MODEL 1
REMARK VINA RESULT:      -8.1      0.000      0.000
REMARK  Name = 
REMARK  4 active torsions:
REMARK  status: ('A' for Active; 'I' for Inactive)
REMARK    1  A    between atoms: C_4  and  N_5
REMARK    2  A    between atoms: C_7  and  C_8
REMARK    3  A    between atoms: C_8  and  C_9
REMARK    4  A    between atoms: C_9  and  C_10
REMARK                            x       y       z     vdW  Elec       q    Type
REMARK                         _______ _______ _______ _____ _____    ______ ____
ROOT
ATOM      1  N   UNL     1       6.101   4.681  15.664  0.00  0.00    +0.000 N 
ATOM      2  C   UNL     1       5.196   3.733  16.197  0.00  0.00    +0.000 A 
ATOM      3  C   UNL     1       4.570   4.543  17.106  0.00  0.00    +0.000 A 
ATOM      4  C   UNL     1       5.658   4.912  17.861  0.00  0.00    +0.000 A 
ATOM      5  C   UNL     1       5.819   5.102  19.236  0.00  0.00    +0.000 A 
ATOM      6  C   UNL     1       6.964   5.721  19.672  0.00  0.00    +0.000 A 
ATOM      7  C   UNL     1       7.836   6.253  18.725  0.00  0.00    +0.000 A 
ATOM      8  C   UNL     1       7.677   6.091  17.307  0.00  0.00    +0.000 A 
ATOM      9  C   UNL     1       6.597   5.305  16.865  0.00  0.00    +0.000 A 
ENDROOT
BRANCH   1  13
ATOM     10  C   UNL     1       6.837   3.692  11.590  0.00  0.00    +0.000 A 
ATOM     11  C   UNL     1       5.708   3.241  12.249  0.00  0.00    +0.000 A 
ATOM     12  C   UNL     1       5.464   3.710  13.525  0.00  0.00    +0.000 A 
ATOM     13  C   UNL     1       6.364   4.547  14.251  0.00  0.00    +0.000 A 
ATOM     14  C   UNL     1       7.394   5.131  13.519  0.00  0.00    +0.000 A 
ATOM     15  C   UNL     1       7.624   4.696  12.196  0.00  0.00    +0.000 A 
ENDBRANCH   1  13
BRANCH   3  16
ATOM     16  C   UNL     1       3.176   4.968  17.237  0.00  0.00    +0.000 C 
BRANCH  16  17
ATOM     17  C   UNL     1       2.391   3.802  17.748  0.00  0.00    +0.000 C 
BRANCH  17  18
ATOM     18  C   UNL     1       2.571   3.491  19.213  0.00  0.00    +0.000 C 
ATOM     19  C   UNL     1       1.318   3.497  20.073  0.00  0.00    +0.000 C 
ATOM     20  C   UNL     1       1.807   3.563  21.526  0.00  0.00    +0.000 C 
ATOM     21  N   UNL     1       2.685   2.430  21.871  0.00  0.00    +0.000 NA
ATOM     22  C   UNL     1       3.800   2.260  20.925  0.00  0.00    +0.000 C 
ATOM     23  C   UNL     1       3.311   2.181  19.479  0.00  0.00    +0.000 C 
ATOM     24  H   UNL     1       2.128   1.580  21.865  0.00  0.00    +0.000 HD
ENDBRANCH  17  18
ENDBRANCH  16  17
ENDBRANCH   3  16
TORSDOF 4
ENDMDL
MODEL 2
REMARK VINA RESULT:      -8.1      4.031      6.158
REMARK  Name = 
REMARK  4 active torsions:
REMARK  status: ('A' for Active; 'I' for Inactive)
REMARK    1  A    between atoms: C_4  and  N_5
REMARK    2  A    between atoms: C_7  and  C_8
REMARK    3  A    between atoms: C_8  and  C_9
REMARK    4  A    between atoms: C_9  and  C_10
REMARK                            x       y       z     vdW  Elec       q    Type
REMARK                         _______ _______ _______ _____ _____    ______ ____
ROOT
ATOM      1  N   UNL     1       4.075   5.364  18.724  0.00  0.00    +0.000 N 
ATOM      2  C   UNL     1       3.013   6.263  18.471  0.00  0.00    +0.000 A 
ATOM      3  C   UNL     1       2.233   5.963  19.554  0.00  0.00    +0.000 A 
ATOM      4  C   UNL     1       2.032   4.623  19.318  0.00  0.00    +0.000 A 
ATOM      5  C   UNL     1       0.914   3.803  19.487  0.00  0.00    +0.000 A 
ATOM      6  C   UNL     1       1.092   2.444  19.405  0.00  0.00    +0.000 A 
ATOM      7  C   UNL     1       2.389   1.948  19.301  0.00  0.00    +0.000 A 
ATOM      8  C   UNL     1       3.555   2.773  19.151  0.00  0.00    +0.000 A 
ATOM      9  C   UNL     1       3.355   4.162  19.058  0.00  0.00    +0.000 A 
ENDROOT
BRANCH   1  13
ATOM     10  C   UNL     1       8.003   6.935  18.251  0.00  0.00    +0.000 A 
ATOM     11  C   UNL     1       7.735   5.923  19.155  0.00  0.00    +0.000 A 
ATOM     12  C   UNL     1       6.470   5.368  19.160  0.00  0.00    +0.000 A 
ATOM     13  C   UNL     1       5.386   5.851  18.366  0.00  0.00    +0.000 A 
ATOM     14  C   UNL     1       5.714   6.738  17.344  0.00  0.00    +0.000 A 
ATOM     15  C   UNL     1       7.018   7.275  17.298  0.00  0.00    +0.000 A 
ENDBRANCH   1  13
BRANCH   3  16
ATOM     16  C   UNL     1       1.776   6.773  20.683  0.00  0.00    +0.000 C 
BRANCH  16  17
ATOM     17  C   UNL     1       1.608   8.178  20.197  0.00  0.00    +0.000 C 
BRANCH  17  18
ATOM     18  C   UNL     1       0.770   9.073  21.076  0.00  0.00    +0.000 C 
ATOM     19  C   UNL     1       1.060   9.033  22.567  0.00  0.00    +0.000 C 
ATOM     20  C   UNL     1      -0.152   9.685  23.247  0.00  0.00    +0.000 C 
ATOM     21  N   UNL     1      -0.375  11.067  22.785  0.00  0.00    +0.000 NA
ATOM     22  C   UNL     1      -0.446  11.176  21.318  0.00  0.00    +0.000 C 
ATOM     23  C   UNL     1       0.768  10.538  20.642  0.00  0.00    +0.000 C 
ATOM     24  H   UNL     1       0.396  11.641  23.111  0.00  0.00    +0.000 HD
ENDBRANCH  17  18
ENDBRANCH  16  17
ENDBRANCH   3  16
TORSDOF 4
ENDMDL
MODEL 3
REMARK VINA RESULT:      -8.1      4.030      5.742
REMARK  Name = 
REMARK  4 active torsions:
REMARK  status: ('A' for Active; 'I' for Inactive)
REMARK    1  A    between atoms: C_4  and  N_5
REMARK    2  A    between atoms: C_7  and  C_8
REMARK    3  A    between atoms: C_8  and  C_9
REMARK    4  A    between atoms: C_9  and  C_10
REMARK                            x       y       z     vdW  Elec       q    Type
REMARK                         _______ _______ _______ _____ _____    ______ ____
ROOT
ATOM      1  N   UNL     1       3.958   4.884  18.425  0.00  0.00    +0.000 N 
ATOM      2  C   UNL     1       2.864   5.665  17.985  0.00  0.00    +0.000 A 
ATOM      3  C   UNL     1       2.386   6.047  19.210  0.00  0.00    +0.000 A 
ATOM      4  C   UNL     1       2.136   4.806  19.747  0.00  0.00    +0.000 A 
ATOM      5  C   UNL     1       1.099   4.330  20.554  0.00  0.00    +0.000 A 
ATOM      6  C   UNL     1       1.255   3.101  21.146  0.00  0.00    +0.000 A 
ATOM      7  C   UNL     1       2.485   2.457  21.030  0.00  0.00    +0.000 A 
ATOM      8  C   UNL     1       3.572   2.941  20.225  0.00  0.00    +0.000 A 
ATOM      9  C   UNL     1       3.350   4.111  19.478  0.00  0.00    +0.000 A 
ENDROOT
BRANCH   1  13
ATOM     10  C   UNL     1       7.111   4.767  15.567  0.00  0.00    +0.000 A 
ATOM     11  C   UNL     1       5.853   5.235  15.234  0.00  0.00    +0.000 A 
ATOM     12  C   UNL     1       4.918   5.372  16.242  0.00  0.00    +0.000 A 
ATOM     13  C   UNL     1       5.134   4.955  17.590  0.00  0.00    +0.000 A 
ATOM     14  C   UNL     1       6.447   4.660  17.944  0.00  0.00    +0.000 A 
ATOM     15  C   UNL     1       7.423   4.564  16.929  0.00  0.00    +0.000 A 
ENDBRANCH   1  13
BRANCH   3  16
ATOM     16  C   UNL     1       2.227   7.362  19.829  0.00  0.00    +0.000 C 
BRANCH  16  17
ATOM     17  C   UNL     1       1.927   8.345  18.742  0.00  0.00    +0.000 C 
BRANCH  17  18
ATOM     18  C   UNL     1       1.111   9.543  19.157  0.00  0.00    +0.000 C 
ATOM     19  C   UNL     1      -0.019   9.957  18.229  0.00  0.00    +0.000 C 
ATOM     20  C   UNL     1      -0.404  11.383  18.646  0.00  0.00    +0.000 C 
ATOM     21  N   UNL     1      -0.820  11.458  20.058  0.00  0.00    +0.000 NA
ATOM     22  C   UNL     1       0.165  10.865  20.978  0.00  0.00    +0.000 C 
ATOM     23  C   UNL     1       0.538   9.440  20.570  0.00  0.00    +0.000 C 
ATOM     24  H   UNL     1      -1.696  10.955  20.161  0.00  0.00    +0.000 HD
ENDBRANCH  17  18
ENDBRANCH  16  17
ENDBRANCH   3  16
TORSDOF 4
ENDMDL
MODEL 4
REMARK VINA RESULT:      -8.0      2.872      4.400
REMARK  Name = 
REMARK  4 active torsions:
REMARK  status: ('A' for Active; 'I' for Inactive)
REMARK    1  A    between atoms: C_4  and  N_5
REMARK    2  A    between atoms: C_7  and  C_8
REMARK    3  A    between atoms: C_8  and  C_9
REMARK    4  A    between atoms: C_9  and  C_10
REMARK                            x       y       z     vdW  Elec       q    Type
REMARK                         _______ _______ _______ _____ _____    ______ ____
ROOT
ATOM      1  N   UNL     1       3.473   6.503  18.306  0.00  0.00    +0.000 N 
ATOM      2  C   UNL     1       3.675   6.136  19.657  0.00  0.00    +0.000 A 
ATOM      3  C   UNL     1       2.369   6.147  20.066  0.00  0.00    +0.000 A 
ATOM      4  C   UNL     1       2.058   7.455  19.779  0.00  0.00    +0.000 A 
ATOM      5  C   UNL     1       1.280   8.400  20.454  0.00  0.00    +0.000 A 
ATOM      6  C   UNL     1       0.944   9.552  19.789  0.00  0.00    +0.000 A 
ATOM      7  C   UNL     1       1.269   9.662  18.439  0.00  0.00    +0.000 A 
ATOM      8  C   UNL     1       2.046   8.691  17.719  0.00  0.00    +0.000 A 
ATOM      9  C   UNL     1       2.541   7.594  18.446  0.00  0.00    +0.000 A 
ENDROOT
BRANCH   1  13
ATOM     10  C   UNL     1       5.725   4.849  15.096  0.00  0.00    +0.000 A 
ATOM     11  C   UNL     1       5.415   6.196  15.140  0.00  0.00    +0.000 A 
ATOM     12  C   UNL     1       4.800   6.689  16.275  0.00  0.00    +0.000 A 
ATOM     13  C   UNL     1       4.363   5.873  17.362  0.00  0.00    +0.000 A 
ATOM     14  C   UNL     1       4.839   4.565  17.384  0.00  0.00    +0.000 A 
ATOM     15  C   UNL     1       5.512   4.063  16.250  0.00  0.00    +0.000 A 
ENDBRANCH   1  13
BRANCH   3  16
ATOM     16  C   UNL     1       1.503   5.094  20.597  0.00  0.00    +0.000 C 
BRANCH  16  17
ATOM     17  C   UNL     1       1.320   4.070  19.522  0.00  0.00    +0.000 C 
BRANCH  17  18
ATOM     18  C   UNL     1       2.484   3.133  19.314  0.00  0.00    +0.000 C 
ATOM     19  C   UNL     1       3.150   2.582  20.563  0.00  0.00    +0.000 C 
ATOM     20  C   UNL     1       4.502   2.019  20.103  0.00  0.00    +0.000 C 
ATOM     21  N   UNL     1       4.351   0.974  19.074  0.00  0.00    +0.000 NA
ATOM     22  C   UNL     1       3.522   1.406  17.936  0.00  0.00    +0.000 C 
ATOM     23  C   UNL     1       2.170   1.955  18.394  0.00  0.00    +0.000 C 
ATOM     24  H   UNL     1       3.910   0.165  19.501  0.00  0.00    +0.000 HD
ENDBRANCH  17  18
ENDBRANCH  16  17
ENDBRANCH   3  16
TORSDOF 4
ENDMDL
MODEL 5
REMARK VINA RESULT:      -8.0      3.956      5.889
REMARK  Name = 
REMARK  4 active torsions:
REMARK  status: ('A' for Active; 'I' for Inactive)
REMARK    1  A    between atoms: C_4  and  N_5
REMARK    2  A    between atoms: C_7  and  C_8
REMARK    3  A    between atoms: C_8  and  C_9
REMARK    4  A    between atoms: C_9  and  C_10
REMARK                            x       y       z     vdW  Elec       q    Type
REMARK                         _______ _______ _______ _____ _____    ______ ____
ROOT
ATOM      1  N   UNL     1       3.998   4.852  18.374  0.00  0.00    +0.000 N 
ATOM      2  C   UNL     1       2.878   5.538  17.851  0.00  0.00    +0.000 A 
ATOM      3  C   UNL     1       2.369   6.018  19.027  0.00  0.00    +0.000 A 
ATOM      4  C   UNL     1       2.164   4.827  19.682  0.00  0.00    +0.000 A 
ATOM      5  C   UNL     1       1.139   4.388  20.524  0.00  0.00    +0.000 A 
ATOM      6  C   UNL     1       1.339   3.231  21.236  0.00  0.00    +0.000 A 
ATOM      7  C   UNL     1       2.595   2.632  21.194  0.00  0.00    +0.000 A 
ATOM      8  C   UNL     1       3.671   3.081  20.355  0.00  0.00    +0.000 A 
ATOM      9  C   UNL     1       3.410   4.161  19.494  0.00  0.00    +0.000 A 
ENDROOT
BRANCH   1  13
ATOM     10  C   UNL     1       7.188   4.587  15.569  0.00  0.00    +0.000 A 
ATOM     11  C   UNL     1       5.916   4.963  15.179  0.00  0.00    +0.000 A 
ATOM     12  C   UNL     1       4.963   5.160  16.161  0.00  0.00    +0.000 A 
ATOM     13  C   UNL     1       5.180   4.891  17.546  0.00  0.00    +0.000 A 
ATOM     14  C   UNL     1       6.500   4.691  17.938  0.00  0.00    +0.000 A 
ATOM     15  C   UNL     1       7.492   4.537  16.946  0.00  0.00    +0.000 A 
ENDBRANCH   1  13
BRANCH   3  16
ATOM     16  C   UNL     1       2.148   7.380  19.512  0.00  0.00    +0.000 C 
BRANCH  16  17
ATOM     17  C   UNL     1       2.103   8.286  18.322  0.00  0.00    +0.000 C 
BRANCH  17  18
ATOM     18  C   UNL     1       1.419   9.612  18.542  0.00  0.00    +0.000 C 
ATOM     19  C   UNL     1       2.158  10.850  18.062  0.00  0.00    +0.000 C 
ATOM     20  C   UNL     1       1.474  12.040  18.750  0.00  0.00    +0.000 C 
ATOM     21  N   UNL     1       0.037  12.119  18.431  0.00  0.00    +0.000 NA
ATOM     22  C   UNL     1      -0.676  10.856  18.683  0.00  0.00    +0.000 C 
ATOM     23  C   UNL     1      -0.003   9.674  17.987  0.00  0.00    +0.000 C 
ATOM     24  H   UNL     1      -0.060  12.349  17.447  0.00  0.00    +0.000 HD
ENDBRANCH  17  18
ENDBRANCH  16  17
ENDBRANCH   3  16
TORSDOF 4
ENDMDL
MODEL 6
REMARK VINA RESULT:      -8.0      3.514      6.343
REMARK  Name = 
REMARK  4 active torsions:
REMARK  status: ('A' for Active; 'I' for Inactive)
REMARK    1  A    between atoms: C_4  and  N_5
REMARK    2  A    between atoms: C_7  and  C_8
REMARK    3  A    between atoms: C_8  and  C_9
REMARK    4  A    between atoms: C_9  and  C_10
REMARK                            x       y       z     vdW  Elec       q    Type
REMARK                         _______ _______ _______ _____ _____    ______ ____
ROOT
ATOM      1  N   UNL     1       3.634   4.717  18.555  0.00  0.00    +0.000 N 
ATOM      2  C   UNL     1       4.101   5.950  19.067  0.00  0.00    +0.000 A 
ATOM      3  C   UNL     1       3.863   6.728  17.967  0.00  0.00    +0.000 A 
ATOM      4  C   UNL     1       4.640   6.060  17.050  0.00  0.00    +0.000 A 
ATOM      5  C   UNL     1       5.457   6.513  16.011  0.00  0.00    +0.000 A 
ATOM      6  C   UNL     1       5.910   5.593  15.099  0.00  0.00    +0.000 A 
ATOM      7  C   UNL     1       5.424   4.290  15.169  0.00  0.00    +0.000 A 
ATOM      8  C   UNL     1       4.564   3.808  16.215  0.00  0.00    +0.000 A 
ATOM      9  C   UNL     1       4.241   4.706  17.247  0.00  0.00    +0.000 A 
ENDROOT
BRANCH   1  13
ATOM     10  C   UNL     1       1.386   2.717  21.565  0.00  0.00    +0.000 A 
ATOM     11  C   UNL     1       0.767   3.469  20.583  0.00  0.00    +0.000 A 
ATOM     12  C   UNL     1       1.545   3.978  19.561  0.00  0.00    +0.000 A 
ATOM     13  C   UNL     1       2.968   3.870  19.514  0.00  0.00    +0.000 A 
ATOM     14  C   UNL     1       3.549   2.967  20.400  0.00  0.00    +0.000 A 
ATOM     15  C   UNL     1       2.754   2.402  21.420  0.00  0.00    +0.000 A 
ENDBRANCH   1  13
BRANCH   3  16
ATOM     16  C   UNL     1       3.001   7.892  17.762  0.00  0.00    +0.000 C 
BRANCH  16  17
ATOM     17  C   UNL     1       1.766   7.695  18.583  0.00  0.00    +0.000 C 
BRANCH  17  18
ATOM     18  C   UNL     1       1.564   8.690  19.699  0.00  0.00    +0.000 C 
ATOM     19  C   UNL     1       0.611   9.842  19.423  0.00  0.00    +0.000 C 
ATOM     20  C   UNL     1       0.893  10.888  20.511  0.00  0.00    +0.000 C 
ATOM     21  N   UNL     1       0.698  10.348  21.868  0.00  0.00    +0.000 NA
ATOM     22  C   UNL     1       1.445   9.101  22.102  0.00  0.00    +0.000 C 
ATOM     23  C   UNL     1       1.154   8.055  21.026  0.00  0.00    +0.000 C 
ATOM     24  H   UNL     1      -0.291  10.158  21.998  0.00  0.00    +0.000 HD
ENDBRANCH  17  18
ENDBRANCH  16  17
ENDBRANCH   3  16
TORSDOF 4
ENDMDL
MODEL 7
REMARK VINA RESULT:      -8.0      0.561      1.125
REMARK  Name = 
REMARK  4 active torsions:
REMARK  status: ('A' for Active; 'I' for Inactive)
REMARK    1  A    between atoms: C_4  and  N_5
REMARK    2  A    between atoms: C_7  and  C_8
REMARK    3  A    between atoms: C_8  and  C_9
REMARK    4  A    between atoms: C_9  and  C_10
REMARK                            x       y       z     vdW  Elec       q    Type
REMARK                         _______ _______ _______ _____ _____    ______ ____
ROOT
ATOM      1  N   UNL     1       6.300   4.607  15.563  0.00  0.00    +0.000 N 
ATOM      2  C   UNL     1       5.634   3.497  16.133  0.00  0.00    +0.000 A 
ATOM      3  C   UNL     1       4.901   4.166  17.076  0.00  0.00    +0.000 A 
ATOM      4  C   UNL     1       5.926   4.752  17.780  0.00  0.00    +0.000 A 
ATOM      5  C   UNL     1       6.112   4.976  19.146  0.00  0.00    +0.000 A 
ATOM      6  C   UNL     1       7.127   5.817  19.530  0.00  0.00    +0.000 A 
ATOM      7  C   UNL     1       7.825   6.511  18.545  0.00  0.00    +0.000 A 
ATOM      8  C   UNL     1       7.634   6.314  17.135  0.00  0.00    +0.000 A 
ATOM      9  C   UNL     1       6.716   5.324  16.741  0.00  0.00    +0.000 A 
ENDROOT
BRANCH   1  13
ATOM     10  C   UNL     1       6.943   3.764  11.440  0.00  0.00    +0.000 A 
ATOM     11  C   UNL     1       5.877   3.215  12.130  0.00  0.00    +0.000 A 
ATOM     12  C   UNL     1       5.651   3.638  13.426  0.00  0.00    +0.000 A 
ATOM     13  C   UNL     1       6.515   4.523  14.138  0.00  0.00    +0.000 A 
ATOM     14  C   UNL     1       7.469   5.198  13.381  0.00  0.00    +0.000 A 
ATOM     15  C   UNL     1       7.677   4.810  12.040  0.00  0.00    +0.000 A 
ENDBRANCH   1  13
BRANCH   3  16
ATOM     16  C   UNL     1       3.458   4.300  17.277  0.00  0.00    +0.000 C 
BRANCH  16  17
ATOM     17  C   UNL     1       2.932   2.964  17.700  0.00  0.00    +0.000 C 
BRANCH  17  18
ATOM     18  C   UNL     1       2.546   2.849  19.154  0.00  0.00    +0.000 C 
ATOM     19  C   UNL     1       3.676   2.629  20.145  0.00  0.00    +0.000 C 
ATOM     20  C   UNL     1       3.009   2.148  21.442  0.00  0.00    +0.000 C 
ATOM     21  N   UNL     1       2.029   3.120  21.958  0.00  0.00    +0.000 NA
ATOM     22  C   UNL     1       1.036   3.525  20.948  0.00  0.00    +0.000 C 
ATOM     23  C   UNL     1       1.702   4.016  19.663  0.00  0.00    +0.000 C 
ATOM     24  H   UNL     1       2.530   3.949  22.263  0.00  0.00    +0.000 HD
ENDBRANCH  17  18
ENDBRANCH  16  17
ENDBRANCH   3  16
TORSDOF 4
ENDMDL
MODEL 8
REMARK VINA RESULT:      -8.0      3.902      5.686
REMARK  Name = 
REMARK  4 active torsions:
REMARK  status: ('A' for Active; 'I' for Inactive)
REMARK    1  A    between atoms: C_4  and  N_5
REMARK    2  A    between atoms: C_7  and  C_8
REMARK    3  A    between atoms: C_8  and  C_9
REMARK    4  A    between atoms: C_9  and  C_10
REMARK                            x       y       z     vdW  Elec       q    Type
REMARK                         _______ _______ _______ _____ _____    ______ ____
ROOT
ATOM      1  N   UNL     1       3.864   4.474  18.230  0.00  0.00    +0.000 N 
ATOM      2  C   UNL     1       2.808   5.317  17.813  0.00  0.00    +0.000 A 
ATOM      3  C   UNL     1       2.474   5.838  19.034  0.00  0.00    +0.000 A 
ATOM      4  C   UNL     1       2.164   4.674  19.695  0.00  0.00    +0.000 A 
ATOM      5  C   UNL     1       1.165   4.363  20.621  0.00  0.00    +0.000 A 
ATOM      6  C   UNL     1       1.264   3.176  21.304  0.00  0.00    +0.000 A 
ATOM      7  C   UNL     1       2.418   2.412  21.146  0.00  0.00    +0.000 A 
ATOM      8  C   UNL     1       3.469   2.725  20.218  0.00  0.00    +0.000 A 
ATOM      9  C   UNL     1       3.285   3.848  19.392  0.00  0.00    +0.000 A 
ENDROOT
BRANCH   1  13
ATOM     10  C   UNL     1       7.299   4.679  15.725  0.00  0.00    +0.000 A 
ATOM     11  C   UNL     1       7.407   4.736  17.103  0.00  0.00    +0.000 A 
ATOM     12  C   UNL     1       6.268   4.528  17.857  0.00  0.00    +0.000 A 
ATOM     13  C   UNL     1       4.964   4.367  17.301  0.00  0.00    +0.000 A 
ATOM     14  C   UNL     1       4.899   4.133  15.931  0.00  0.00    +0.000 A 
ATOM     15  C   UNL     1       6.067   4.295  15.154  0.00  0.00    +0.000 A 
ENDBRANCH   1  13
BRANCH   3  16
ATOM     16  C   UNL     1       2.486   7.208  19.547  0.00  0.00    +0.000 C 
BRANCH  16  17
ATOM     17  C   UNL     1       1.849   8.086  18.516  0.00  0.00    +0.000 C 
BRANCH  17  18
ATOM     18  C   UNL     1       1.263   9.376  19.035  0.00  0.00    +0.000 C 
ATOM     19  C   UNL     1       0.119   9.978  18.236  0.00  0.00    +0.000 C 
ATOM     20  C   UNL     1      -0.009  11.430  18.716  0.00  0.00    +0.000 C 
ATOM     21  N   UNL     1      -0.266  11.519  20.165  0.00  0.00    +0.000 NA
ATOM     22  C   UNL     1       0.709  10.761  20.967  0.00  0.00    +0.000 C 
ATOM     23  C   UNL     1       0.826   9.311  20.497  0.00  0.00    +0.000 C 
ATOM     24  H   UNL     1      -1.191  11.145  20.349  0.00  0.00    +0.000 HD
ENDBRANCH  17  18
ENDBRANCH  16  17
ENDBRANCH   3  16
TORSDOF 4
ENDMDL
MODEL 9
REMARK VINA RESULT:      -8.0      4.214      6.297
REMARK  Name = 
REMARK  4 active torsions:
REMARK  status: ('A' for Active; 'I' for Inactive)
REMARK    1  A    between atoms: C_4  and  N_5
REMARK    2  A    between atoms: C_7  and  C_8
REMARK    3  A    between atoms: C_8  and  C_9
REMARK    4  A    between atoms: C_9  and  C_10
REMARK                            x       y       z     vdW  Elec       q    Type
REMARK                         _______ _______ _______ _____ _____    ______ ____
ROOT
ATOM      1  N   UNL     1       3.959   5.472  18.977  0.00  0.00    +0.000 N 
ATOM      2  C   UNL     1       2.889   6.347  18.678  0.00  0.00    +0.000 A 
ATOM      3  C   UNL     1       2.170   6.186  19.832  0.00  0.00    +0.000 A 
ATOM      4  C   UNL     1       1.949   4.831  19.768  0.00  0.00    +0.000 A 
ATOM      5  C   UNL     1       0.838   4.050  20.095  0.00  0.00    +0.000 A 
ATOM      6  C   UNL     1       1.004   2.689  20.165  0.00  0.00    +0.000 A 
ATOM      7  C   UNL     1       2.291   2.168  20.049  0.00  0.00    +0.000 A 
ATOM      8  C   UNL     1       3.451   2.956  19.737  0.00  0.00    +0.000 A 
ATOM      9  C   UNL     1       3.253   4.326  19.492  0.00  0.00    +0.000 A 
ENDROOT
BRANCH   1  13
ATOM     10  C   UNL     1       7.883   6.879  18.116  0.00  0.00    +0.000 A 
ATOM     11  C   UNL     1       7.660   5.910  19.077  0.00  0.00    +0.000 A 
ATOM     12  C   UNL     1       6.381   5.403  19.209  0.00  0.00    +0.000 A 
ATOM     13  C   UNL     1       5.250   5.897  18.492  0.00  0.00    +0.000 A 
ATOM     14  C   UNL     1       5.520   6.735  17.413  0.00  0.00    +0.000 A 
ATOM     15  C   UNL     1       6.833   7.222  17.237  0.00  0.00    +0.000 A 
ENDBRANCH   1  13
BRANCH   3  16
ATOM     16  C   UNL     1       1.782   7.130  20.880  0.00  0.00    +0.000 C 
BRANCH  16  17
ATOM     17  C   UNL     1       1.466   8.436  20.223  0.00  0.00    +0.000 C 
BRANCH  17  18
ATOM     18  C   UNL     1       0.782   9.455  21.100  0.00  0.00    +0.000 C 
ATOM     19  C   UNL     1       0.128  10.633  20.397  0.00  0.00    +0.000 C 
ATOM     20  C   UNL     1      -0.118  11.687  21.486  0.00  0.00    +0.000 C 
ATOM     21  N   UNL     1      -0.970  11.176  22.575  0.00  0.00    +0.000 NA
ATOM     22  C   UNL     1      -0.478   9.908  23.141  0.00  0.00    +0.000 C 
ATOM     23  C   UNL     1      -0.246   8.855  22.057  0.00  0.00    +0.000 C 
ATOM     24  H   UNL     1      -1.903  11.020  22.206  0.00  0.00    +0.000 HD
ENDBRANCH  17  18
ENDBRANCH  16  17
ENDBRANCH   3  16
TORSDOF 4
ENDMDL
