MODEL 1
REMARK VINA RESULT:      -7.8      0.000      0.000
REMARK  Name = 
REMARK  5 active torsions:
REMARK  status: ('A' for Active; 'I' for Inactive)
REMARK    1  A    between atoms: C_1  and  S_2
REMARK    2  A    between atoms: S_2  and  C_5
REMARK    3  A    between atoms: C_8  and  N_9
REMARK    4  A    between atoms: C_10  and  C_12
REMARK    5  A    between atoms: C_17  and  N_18
REMARK                            x       y       z     vdW  Elec       q    Type
REMARK                         _______ _______ _______ _____ _____    ______ ____
ROOT
ATOM      1  N   UNL     1       3.002   7.259  17.705  0.00  0.00    +0.000 N 
ATOM      2  C   UNL     1       3.948   6.318  18.075  0.00  0.00    +0.000 C 
ATOM      3  O   UNL     1       4.364   6.107  19.205  0.00  0.00    +0.000 OA
ATOM      4  H   UNL     1       2.796   7.372  16.720  0.00  0.00    +0.000 HD
ENDROOT
BRANCH   1   8
ATOM      5  C   UNL     1       0.794   9.823  20.220  0.00  0.00    +0.000 A 
ATOM      6  C   UNL     1       1.200   8.584  20.704  0.00  0.00    +0.000 A 
ATOM      7  C   UNL     1       1.948   7.732  19.894  0.00  0.00    +0.000 A 
ATOM      8  C   UNL     1       2.278   8.097  18.586  0.00  0.00    +0.000 A 
ATOM      9  C   UNL     1       1.849   9.343  18.102  0.00  0.00    +0.000 A 
ATOM     10  C   UNL     1       1.111  10.209  18.918  0.00  0.00    +0.000 A 
BRANCH   5  12
ATOM     11  C   UNL     1      -0.556   9.865  22.673  0.00  0.00    +0.000 C 
ATOM     12  S   UNL     1      -0.162  10.884  21.273  0.00  0.00    +0.000 S 
ATOM     13  O   UNL     1      -1.393  11.185  20.565  0.00  0.00    +0.000 OA
ATOM     14  O   UNL     1       0.711  11.942  21.736  0.00  0.00    +0.000 OA
ENDBRANCH   5  12
ENDBRANCH   1   8
BRANCH   2  15
ATOM     15  C   UNL     1       4.517   5.488  16.981  0.00  0.00    +0.000 A 
ATOM     16  C   UNL     1       5.525   6.060  16.183  0.00  0.00    +0.000 A 
ATOM     17  C   UNL     1       6.226   5.287  15.259  0.00  0.00    +0.000 A 
ATOM     18  C   UNL     1       5.956   3.927  15.144  0.00  0.00    +0.000 A 
ATOM     19  C   UNL     1       4.982   3.336  15.950  0.00  0.00    +0.000 A 
ATOM     20  C   UNL     1       4.238   4.110  16.861  0.00  0.00    +0.000 A 
BRANCH  20  21
ATOM     21  N   UNL     1       3.233   3.449  17.613  0.00  0.00    +0.000 N 
ATOM     22  C   UNL     1       3.315   2.741  18.787  0.00  0.00    +0.000 A 
ATOM     23  N   UNL     1       2.120   2.313  19.127  0.00  0.00    +0.000 NA
ATOM     24  N   UNL     1       1.269   2.797  18.170  0.00  0.00    +0.000 NA
ATOM     25  N   UNL     1       1.919   3.543  17.288  0.00  0.00    +0.000 NA
ENDBRANCH  20  21
ENDBRANCH   2  15
TORSDOF 4
ENDMDL
MODEL 2
REMARK VINA RESULT:      -7.8      1.083      1.330
REMARK  Name = 
REMARK  5 active torsions:
REMARK  status: ('A' for Active; 'I' for Inactive)
REMARK    1  A    between atoms: C_1  and  S_2
REMARK    2  A    between atoms: S_2  and  C_5
REMARK    3  A    between atoms: C_8  and  N_9
REMARK    4  A    between atoms: C_10  and  C_12
REMARK    5  A    between atoms: C_17  and  N_18
REMARK                            x       y       z     vdW  Elec       q    Type
REMARK                         _______ _______ _______ _____ _____    ______ ____
ROOT
ATOM      1  N   UNL     1       3.076   6.676  17.528  0.00  0.00    +0.000 N 
ATOM      2  C   UNL     1       4.445   6.607  17.333  0.00  0.00    +0.000 C 
ATOM      3  O   UNL     1       5.293   7.323  17.848  0.00  0.00    +0.000 OA
ATOM      4  H   UNL     1       2.482   6.062  16.985  0.00  0.00    +0.000 HD
ENDROOT
BRANCH   1   8
ATOM      5  C   UNL     1       1.028   9.308  20.108  0.00  0.00    +0.000 A 
ATOM      6  C   UNL     1       1.508   8.103  20.610  0.00  0.00    +0.000 A 
ATOM      7  C   UNL     1       2.206   7.230  19.777  0.00  0.00    +0.000 A 
ATOM      8  C   UNL     1       2.410   7.539  18.429  0.00  0.00    +0.000 A 
ATOM      9  C   UNL     1       1.907   8.750  17.929  0.00  0.00    +0.000 A 
ATOM     10  C   UNL     1       1.220   9.637  18.766  0.00  0.00    +0.000 A 
BRANCH   5  12
ATOM     11  C   UNL     1      -0.357   9.355  22.541  0.00  0.00    +0.000 C 
ATOM     12  S   UNL     1       0.140  10.396  21.192  0.00  0.00    +0.000 S 
ATOM     13  O   UNL     1      -1.051  10.823  20.480  0.00  0.00    +0.000 OA
ATOM     14  O   UNL     1       1.085  11.362  21.711  0.00  0.00    +0.000 OA
ENDBRANCH   5  12
ENDBRANCH   1   8
BRANCH   2  15
ATOM     15  C   UNL     1       4.927   5.559  16.395  0.00  0.00    +0.000 A 
ATOM     16  C   UNL     1       5.516   5.983  15.189  0.00  0.00    +0.000 A 
ATOM     17  C   UNL     1       6.147   5.069  14.346  0.00  0.00    +0.000 A 
ATOM     18  C   UNL     1       6.231   3.729  14.712  0.00  0.00    +0.000 A 
ATOM     19  C   UNL     1       5.681   3.297  15.919  0.00  0.00    +0.000 A 
ATOM     20  C   UNL     1       5.005   4.200  16.763  0.00  0.00    +0.000 A 
BRANCH  20  21
ATOM     21  N   UNL     1       4.431   3.679  17.952  0.00  0.00    +0.000 N 
ATOM     22  C   UNL     1       3.215   3.079  18.170  0.00  0.00    +0.000 A 
ATOM     23  N   UNL     1       3.112   2.740  19.435  0.00  0.00    +0.000 NA
ATOM     24  N   UNL     1       4.303   3.095  20.010  0.00  0.00    +0.000 NA
ATOM     25  N   UNL     1       5.134   3.601  19.110  0.00  0.00    +0.000 NA
ENDBRANCH  20  21
ENDBRANCH   2  15
TORSDOF 4
ENDMDL
MODEL 3
REMARK VINA RESULT:      -7.7      0.914      1.382
REMARK  Name = 
REMARK  5 active torsions:
REMARK  status: ('A' for Active; 'I' for Inactive)
REMARK    1  A    between atoms: C_1  and  S_2
REMARK    2  A    between atoms: S_2  and  C_5
REMARK    3  A    between atoms: C_8  and  N_9
REMARK    4  A    between atoms: C_10  and  C_12
REMARK    5  A    between atoms: C_17  and  N_18
REMARK                            x       y       z     vdW  Elec       q    Type
REMARK                         _______ _______ _______ _____ _____    ______ ____
ROOT
ATOM      1  N   UNL     1       2.956   6.739  17.548  0.00  0.00    +0.000 N 
ATOM      2  C   UNL     1       4.319   6.723  17.303  0.00  0.00    +0.000 C 
ATOM      3  O   UNL     1       5.144   7.526  17.718  0.00  0.00    +0.000 OA
ATOM      4  H   UNL     1       2.378   6.048  17.086  0.00  0.00    +0.000 HD
ENDROOT
BRANCH   1   8
ATOM      5  C   UNL     1       0.992   9.379  20.183  0.00  0.00    +0.000 A 
ATOM      6  C   UNL     1       1.132   9.736  18.846  0.00  0.00    +0.000 A 
ATOM      7  C   UNL     1       1.760   8.866  17.955  0.00  0.00    +0.000 A 
ATOM      8  C   UNL     1       2.276   7.644  18.396  0.00  0.00    +0.000 A 
ATOM      9  C   UNL     1       2.144   7.302  19.750  0.00  0.00    +0.000 A 
ATOM     10  C   UNL     1       1.499   8.165  20.644  0.00  0.00    +0.000 A 
BRANCH   5  12
ATOM     11  C   UNL     1      -0.123   9.539  22.746  0.00  0.00    +0.000 C 
ATOM     12  S   UNL     1       0.192  10.509  21.292  0.00  0.00    +0.000 S 
ATOM     13  O   UNL     1      -1.082  10.861  20.692  0.00  0.00    +0.000 OA
ATOM     14  O   UNL     1       1.156  11.529  21.648  0.00  0.00    +0.000 OA
ENDBRANCH   5  12
ENDBRANCH   1   8
BRANCH   2  15
ATOM     15  C   UNL     1       4.824   5.622  16.443  0.00  0.00    +0.000 A 
ATOM     16  C   UNL     1       5.527   5.975  15.276  0.00  0.00    +0.000 A 
ATOM     17  C   UNL     1       6.180   5.003  14.517  0.00  0.00    +0.000 A 
ATOM     18  C   UNL     1       6.170   3.676  14.931  0.00  0.00    +0.000 A 
ATOM     19  C   UNL     1       5.506   3.313  16.104  0.00  0.00    +0.000 A 
ATOM     20  C   UNL     1       4.809   4.275  16.860  0.00  0.00    +0.000 A 
BRANCH  20  21
ATOM     21  N   UNL     1       4.118   3.823  18.015  0.00  0.00    +0.000 N 
ATOM     22  C   UNL     1       4.564   3.605  19.296  0.00  0.00    +0.000 A 
ATOM     23  N   UNL     1       3.564   3.198  20.046  0.00  0.00    +0.000 NA
ATOM     24  N   UNL     1       2.465   3.202  19.229  0.00  0.00    +0.000 NA
ATOM     25  N   UNL     1       2.773   3.644  18.018  0.00  0.00    +0.000 NA
ENDBRANCH  20  21
ENDBRANCH   2  15
TORSDOF 4
ENDMDL
MODEL 4
REMARK VINA RESULT:      -7.7      2.486      3.550
REMARK  Name = 
REMARK  5 active torsions:
REMARK  status: ('A' for Active; 'I' for Inactive)
REMARK    1  A    between atoms: C_1  and  S_2
REMARK    2  A    between atoms: S_2  and  C_5
REMARK    3  A    between atoms: C_8  and  N_9
REMARK    4  A    between atoms: C_10  and  C_12
REMARK    5  A    between atoms: C_17  and  N_18
REMARK                            x       y       z     vdW  Elec       q    Type
REMARK                         _______ _______ _______ _____ _____    ______ ____
ROOT
ATOM      1  N   UNL     1       3.976   6.749  17.228  0.00  0.00    +0.000 N 
ATOM      2  C   UNL     1       4.277   5.398  17.243  0.00  0.00    +0.000 C 
ATOM      3  O   UNL     1       3.867   4.568  18.044  0.00  0.00    +0.000 OA
ATOM      4  H   UNL     1       4.438   7.336  16.545  0.00  0.00    +0.000 HD
ENDROOT
BRANCH   1   8
ATOM      5  C   UNL     1       1.326   8.644  19.903  0.00  0.00    +0.000 A 
ATOM      6  C   UNL     1       1.560   9.221  18.660  0.00  0.00    +0.000 A 
ATOM      7  C   UNL     1       2.417   8.597  17.754  0.00  0.00    +0.000 A 
ATOM      8  C   UNL     1       3.067   7.406  18.090  0.00  0.00    +0.000 A 
ATOM      9  C   UNL     1       2.836   6.842  19.353  0.00  0.00    +0.000 A 
ATOM     10  C   UNL     1       1.963   7.456  20.260  0.00  0.00    +0.000 A 
BRANCH   5  12
ATOM     11  C   UNL     1      -0.745  10.526  20.004  0.00  0.00    +0.000 C 
ATOM     12  S   UNL     1       0.234   9.463  21.036  0.00  0.00    +0.000 S 
ATOM     13  O   UNL     1       1.060  10.293  21.895  0.00  0.00    +0.000 OA
ATOM     14  O   UNL     1      -0.650   8.461  21.594  0.00  0.00    +0.000 OA
ENDBRANCH   5  12
ENDBRANCH   1   8
BRANCH   2  15
ATOM     15  C   UNL     1       5.198   4.913  16.182  0.00  0.00    +0.000 A 
ATOM     16  C   UNL     1       4.626   4.467  14.975  0.00  0.00    +0.000 A 
ATOM     17  C   UNL     1       5.430   4.166  13.876  0.00  0.00    +0.000 A 
ATOM     18  C   UNL     1       6.808   4.340  13.954  0.00  0.00    +0.000 A 
ATOM     19  C   UNL     1       7.389   4.812  15.133  0.00  0.00    +0.000 A 
ATOM     20  C   UNL     1       6.595   5.083  16.264  0.00  0.00    +0.000 A 
BRANCH  20  21
ATOM     21  N   UNL     1       7.261   5.515  17.441  0.00  0.00    +0.000 N 
ATOM     22  C   UNL     1       7.592   6.778  17.869  0.00  0.00    +0.000 A 
ATOM     23  N   UNL     1       8.195   6.704  19.033  0.00  0.00    +0.000 NA
ATOM     24  N   UNL     1       8.205   5.374  19.359  0.00  0.00    +0.000 NA
ATOM     25  N   UNL     1       7.582   4.653  18.438  0.00  0.00    +0.000 NA
ENDBRANCH  20  21
ENDBRANCH   2  15
TORSDOF 4
ENDMDL
MODEL 5
REMARK VINA RESULT:      -7.7      0.176      1.001
REMARK  Name = 
REMARK  5 active torsions:
REMARK  status: ('A' for Active; 'I' for Inactive)
REMARK    1  A    between atoms: C_1  and  S_2
REMARK    2  A    between atoms: S_2  and  C_5
REMARK    3  A    between atoms: C_8  and  N_9
REMARK    4  A    between atoms: C_10  and  C_12
REMARK    5  A    between atoms: C_17  and  N_18
REMARK                            x       y       z     vdW  Elec       q    Type
REMARK                         _______ _______ _______ _____ _____    ______ ____
ROOT
ATOM      1  N   UNL     1       2.940   7.397  17.674  0.00  0.00    +0.000 N 
ATOM      2  C   UNL     1       3.779   6.388  18.117  0.00  0.00    +0.000 C 
ATOM      3  O   UNL     1       4.060   6.132  19.280  0.00  0.00    +0.000 OA
ATOM      4  H   UNL     1       2.847   7.539  16.676  0.00  0.00    +0.000 HD
ENDROOT
BRANCH   1   8
ATOM      5  C   UNL     1       0.739   9.929  20.226  0.00  0.00    +0.000 A 
ATOM      6  C   UNL     1       1.042  10.362  18.939  0.00  0.00    +0.000 A 
ATOM      7  C   UNL     1       1.751   9.529  18.074  0.00  0.00    +0.000 A 
ATOM      8  C   UNL     1       2.185   8.269  18.493  0.00  0.00    +0.000 A 
ATOM      9  C   UNL     1       1.889   7.849  19.799  0.00  0.00    +0.000 A 
ATOM     10  C   UNL     1       1.163   8.675  20.665  0.00  0.00    +0.000 A 
BRANCH   5  12
ATOM     11  C   UNL     1      -0.527  10.008  22.722  0.00  0.00    +0.000 C 
ATOM     12  S   UNL     1      -0.160  11.013  21.305  0.00  0.00    +0.000 S 
ATOM     13  O   UNL     1      -1.409  11.335  20.637  0.00  0.00    +0.000 OA
ATOM     14  O   UNL     1       0.747  12.056  21.733  0.00  0.00    +0.000 OA
ENDBRANCH   5  12
ENDBRANCH   1   8
BRANCH   2  15
ATOM     15  C   UNL     1       4.403   5.538  17.070  0.00  0.00    +0.000 A 
ATOM     16  C   UNL     1       5.444   6.100  16.307  0.00  0.00    +0.000 A 
ATOM     17  C   UNL     1       6.191   5.312  15.433  0.00  0.00    +0.000 A 
ATOM     18  C   UNL     1       5.935   3.948  15.336  0.00  0.00    +0.000 A 
ATOM     19  C   UNL     1       4.929   3.367  16.110  0.00  0.00    +0.000 A 
ATOM     20  C   UNL     1       4.138   4.157  16.968  0.00  0.00    +0.000 A 
BRANCH  20  21
ATOM     21  N   UNL     1       3.103   3.504  17.687  0.00  0.00    +0.000 N 
ATOM     22  C   UNL     1       3.147   2.766  18.845  0.00  0.00    +0.000 A 
ATOM     23  N   UNL     1       1.936   2.363  19.155  0.00  0.00    +0.000 NA
ATOM     24  N   UNL     1       1.114   2.893  18.196  0.00  0.00    +0.000 NA
ATOM     25  N   UNL     1       1.798   3.642  17.344  0.00  0.00    +0.000 NA
ENDBRANCH  20  21
ENDBRANCH   2  15
TORSDOF 4
ENDMDL
MODEL 6
REMARK VINA RESULT:      -7.7      2.461      3.545
REMARK  Name = 
REMARK  5 active torsions:
REMARK  status: ('A' for Active; 'I' for Inactive)
REMARK    1  A    between atoms: C_1  and  S_2
REMARK    2  A    between atoms: S_2  and  C_5
REMARK    3  A    between atoms: C_8  and  N_9
REMARK    4  A    between atoms: C_10  and  C_12
REMARK    5  A    between atoms: C_17  and  N_18
REMARK                            x       y       z     vdW  Elec       q    Type
REMARK                         _______ _______ _______ _____ _____    ______ ____
ROOT
ATOM      1  N   UNL     1       4.155   6.603  17.310  0.00  0.00    +0.000 N 
ATOM      2  C   UNL     1       4.228   5.244  17.051  0.00  0.00    +0.000 C 
ATOM      3  O   UNL     1       3.588   4.361  17.603  0.00  0.00    +0.000 OA
ATOM      4  H   UNL     1       4.792   7.219  16.821  0.00  0.00    +0.000 HD
ENDROOT
BRANCH   1   8
ATOM      5  C   UNL     1       1.429   8.531  19.883  0.00  0.00    +0.000 A 
ATOM      6  C   UNL     1       2.030   7.347  20.297  0.00  0.00    +0.000 A 
ATOM      7  C   UNL     1       2.949   6.706  19.468  0.00  0.00    +0.000 A 
ATOM      8  C   UNL     1       3.260   7.228  18.209  0.00  0.00    +0.000 A 
ATOM      9  C   UNL     1       2.636   8.414  17.794  0.00  0.00    +0.000 A 
ATOM     10  C   UNL     1       1.724   9.070  18.630  0.00  0.00    +0.000 A 
BRANCH   5  12
ATOM     11  C   UNL     1      -0.719  10.327  19.870  0.00  0.00    +0.000 C 
ATOM     12  S   UNL     1       0.260   9.321  20.958  0.00  0.00    +0.000 S 
ATOM     13  O   UNL     1       1.016  10.198  21.835  0.00  0.00    +0.000 OA
ATOM     14  O   UNL     1      -0.604   8.292  21.496  0.00  0.00    +0.000 OA
ENDBRANCH   5  12
ENDBRANCH   1   8
BRANCH   2  15
ATOM     15  C   UNL     1       5.189   4.822  15.998  0.00  0.00    +0.000 A 
ATOM     16  C   UNL     1       4.673   4.154  14.872  0.00  0.00    +0.000 A 
ATOM     17  C   UNL     1       5.484   3.886  13.770  0.00  0.00    +0.000 A 
ATOM     18  C   UNL     1       6.808   4.313  13.761  0.00  0.00    +0.000 A 
ATOM     19  C   UNL     1       7.327   5.007  14.855  0.00  0.00    +0.000 A 
ATOM     20  C   UNL     1       6.533   5.250  15.993  0.00  0.00    +0.000 A 
BRANCH  20  21
ATOM     21  N   UNL     1       7.144   5.920  17.085  0.00  0.00    +0.000 N 
ATOM     22  C   UNL     1       7.638   5.431  18.270  0.00  0.00    +0.000 A 
ATOM     23  N   UNL     1       8.128   6.420  18.983  0.00  0.00    +0.000 NA
ATOM     24  N   UNL     1       7.976   7.542  18.211  0.00  0.00    +0.000 NA
ATOM     25  N   UNL     1       7.446   7.241  17.034  0.00  0.00    +0.000 NA
ENDBRANCH  20  21
ENDBRANCH   2  15
TORSDOF 4
ENDMDL
MODEL 7
REMARK VINA RESULT:      -7.6      1.562      2.153
REMARK  Name = 
REMARK  5 active torsions:
REMARK  status: ('A' for Active; 'I' for Inactive)
REMARK    1  A    between atoms: C_1  and  S_2
REMARK    2  A    between atoms: S_2  and  C_5
REMARK    3  A    between atoms: C_8  and  N_9
REMARK    4  A    between atoms: C_10  and  C_12
REMARK    5  A    between atoms: C_17  and  N_18
REMARK                            x       y       z     vdW  Elec       q    Type
REMARK                         _______ _______ _______ _____ _____    ______ ____
ROOT
ATOM      1  N   UNL     1       3.124   6.214  17.742  0.00  0.00    +0.000 N 
ATOM      2  C   UNL     1       4.417   6.431  17.299  0.00  0.00    +0.000 C 
ATOM      3  O   UNL     1       5.159   7.345  17.630  0.00  0.00    +0.000 OA
ATOM      4  H   UNL     1       2.598   5.452  17.333  0.00  0.00    +0.000 HD
ENDROOT
BRANCH   1   8
ATOM      5  C   UNL     1       1.162   8.381  20.780  0.00  0.00    +0.000 A 
ATOM      6  C   UNL     1       1.417   9.001  19.562  0.00  0.00    +0.000 A 
ATOM      7  C   UNL     1       2.046   8.294  18.539  0.00  0.00    +0.000 A 
ATOM      8  C   UNL     1       2.448   6.969  18.729  0.00  0.00    +0.000 A 
ATOM      9  C   UNL     1       2.201   6.358  19.967  0.00  0.00    +0.000 A 
ATOM     10  C   UNL     1       1.555   7.059  20.993  0.00  0.00    +0.000 A 
BRANCH   5  12
ATOM     11  C   UNL     1      -0.158  10.802  21.261  0.00  0.00    +0.000 C 
ATOM     12  S   UNL     1       0.365   9.308  22.065  0.00  0.00    +0.000 S 
ATOM     13  O   UNL     1       1.387   9.646  23.040  0.00  0.00    +0.000 OA
ATOM     14  O   UNL     1      -0.826   8.582  22.454  0.00  0.00    +0.000 OA
ENDBRANCH   5  12
ENDBRANCH   1   8
BRANCH   2  15
ATOM     15  C   UNL     1       4.952   5.454  16.314  0.00  0.00    +0.000 A 
ATOM     16  C   UNL     1       5.536   5.963  15.139  0.00  0.00    +0.000 A 
ATOM     17  C   UNL     1       6.212   5.121  14.258  0.00  0.00    +0.000 A 
ATOM     18  C   UNL     1       6.347   3.768  14.554  0.00  0.00    +0.000 A 
ATOM     19  C   UNL     1       5.802   3.252  15.731  0.00  0.00    +0.000 A 
ATOM     20  C   UNL     1       5.082   4.081  16.612  0.00  0.00    +0.000 A 
BRANCH  20  21
ATOM     21  N   UNL     1       4.517   3.476  17.765  0.00  0.00    +0.000 N 
ATOM     22  C   UNL     1       3.485   2.578  17.889  0.00  0.00    +0.000 A 
ATOM     23  N   UNL     1       3.313   2.279  19.157  0.00  0.00    +0.000 NA
ATOM     24  N   UNL     1       4.282   2.970  19.834  0.00  0.00    +0.000 NA
ATOM     25  N   UNL     1       5.060   3.642  18.997  0.00  0.00    +0.000 NA
ENDBRANCH  20  21
ENDBRANCH   2  15
TORSDOF 4
ENDMDL
MODEL 8
REMARK VINA RESULT:      -7.6      0.739      1.040
REMARK  Name = 
REMARK  5 active torsions:
REMARK  status: ('A' for Active; 'I' for Inactive)
REMARK    1  A    between atoms: C_1  and  S_2
REMARK    2  A    between atoms: S_2  and  C_5
REMARK    3  A    between atoms: C_8  and  N_9
REMARK    4  A    between atoms: C_10  and  C_12
REMARK    5  A    between atoms: C_17  and  N_18
REMARK                            x       y       z     vdW  Elec       q    Type
REMARK                         _______ _______ _______ _____ _____    ______ ____
ROOT
ATOM      1  N   UNL     1       3.110   7.204  17.535  0.00  0.00    +0.000 N 
ATOM      2  C   UNL     1       4.035   6.248  17.919  0.00  0.00    +0.000 C 
ATOM      3  O   UNL     1       4.437   6.036  19.055  0.00  0.00    +0.000 OA
ATOM      4  H   UNL     1       2.916   7.315  16.548  0.00  0.00    +0.000 HD
ENDROOT
BRANCH   1   8
ATOM      5  C   UNL     1       0.927   9.823  20.014  0.00  0.00    +0.000 A 
ATOM      6  C   UNL     1       1.277   8.567  20.498  0.00  0.00    +0.000 A 
ATOM      7  C   UNL     1       2.017   7.695  19.700  0.00  0.00    +0.000 A 
ATOM      8  C   UNL     1       2.393   8.060  18.404  0.00  0.00    +0.000 A 
ATOM      9  C   UNL     1       2.021   9.323  17.920  0.00  0.00    +0.000 A 
ATOM     10  C   UNL     1       1.292  10.208  18.724  0.00  0.00    +0.000 A 
BRANCH   5  12
ATOM     11  C   UNL     1       0.762  12.490  20.851  0.00  0.00    +0.000 C 
ATOM     12  S   UNL     1      -0.018  10.908  21.052  0.00  0.00    +0.000 S 
ATOM     13  O   UNL     1       0.184  10.468  22.421  0.00  0.00    +0.000 OA
ATOM     14  O   UNL     1      -1.348  11.003  20.488  0.00  0.00    +0.000 OA
ENDBRANCH   5  12
ENDBRANCH   1   8
BRANCH   2  15
ATOM     15  C   UNL     1       4.600   5.401  16.836  0.00  0.00    +0.000 A 
ATOM     16  C   UNL     1       5.593   5.968  16.015  0.00  0.00    +0.000 A 
ATOM     17  C   UNL     1       6.291   5.183  15.097  0.00  0.00    +0.000 A 
ATOM     18  C   UNL     1       6.034   3.819  15.013  0.00  0.00    +0.000 A 
ATOM     19  C   UNL     1       5.075   3.234  15.843  0.00  0.00    +0.000 A 
ATOM     20  C   UNL     1       4.334   4.019  16.746  0.00  0.00    +0.000 A 
BRANCH  20  21
ATOM     21  N   UNL     1       3.344   3.363  17.524  0.00  0.00    +0.000 N 
ATOM     22  C   UNL     1       3.452   2.654  18.696  0.00  0.00    +0.000 A 
ATOM     23  N   UNL     1       2.264   2.233  19.065  0.00  0.00    +0.000 NA
ATOM     24  N   UNL     1       1.392   2.722  18.129  0.00  0.00    +0.000 NA
ATOM     25  N   UNL     1       2.024   3.464  17.232  0.00  0.00    +0.000 NA
ENDBRANCH  20  21
ENDBRANCH   2  15
TORSDOF 4
ENDMDL
MODEL 9
REMARK VINA RESULT:      -7.5      0.876      1.049
REMARK  Name = 
REMARK  5 active torsions:
REMARK  status: ('A' for Active; 'I' for Inactive)
REMARK    1  A    between atoms: C_1  and  S_2
REMARK    2  A    between atoms: S_2  and  C_5
REMARK    3  A    between atoms: C_8  and  N_9
REMARK    4  A    between atoms: C_10  and  C_12
REMARK    5  A    between atoms: C_17  and  N_18
REMARK                            x       y       z     vdW  Elec       q    Type
REMARK                         _______ _______ _______ _____ _____    ______ ____
ROOT
ATOM      1  N   UNL     1       2.590   7.666  18.084  0.00  0.00    +0.000 N 
ATOM      2  C   UNL     1       3.320   6.561  18.489  0.00  0.00    +0.000 C 
ATOM      3  O   UNL     1       3.530   6.208  19.642  0.00  0.00    +0.000 OA
ATOM      4  H   UNL     1       2.551   7.879  17.095  0.00  0.00    +0.000 HD
ENDROOT
BRANCH   1   8
ATOM      5  C   UNL     1       0.423  10.356  20.501  0.00  0.00    +0.000 A 
ATOM      6  C   UNL     1       0.801   9.125  21.027  0.00  0.00    +0.000 A 
ATOM      7  C   UNL     1       1.536   8.232  20.250  0.00  0.00    +0.000 A 
ATOM      8  C   UNL     1       1.880   8.547  18.932  0.00  0.00    +0.000 A 
ATOM      9  C   UNL     1       1.479   9.784  18.406  0.00  0.00    +0.000 A 
ATOM     10  C   UNL     1       0.755  10.692  19.188  0.00  0.00    +0.000 A 
BRANCH   5  12
ATOM     11  C   UNL     1      -0.893  10.523  22.966  0.00  0.00    +0.000 C 
ATOM     12  S   UNL     1      -0.516  11.470  21.513  0.00  0.00    +0.000 S 
ATOM     13  O   UNL     1      -1.756  11.740  20.807  0.00  0.00    +0.000 OA
ATOM     14  O   UNL     1       0.365  12.547  21.911  0.00  0.00    +0.000 OA
ENDBRANCH   5  12
ENDBRANCH   1   8
BRANCH   2  15
ATOM     15  C   UNL     1       3.912   5.727  17.411  0.00  0.00    +0.000 A 
ATOM     16  C   UNL     1       4.856   6.333  16.561  0.00  0.00    +0.000 A 
ATOM     17  C   UNL     1       5.580   5.571  15.644  0.00  0.00    +0.000 A 
ATOM     18  C   UNL     1       5.400   4.193  15.590  0.00  0.00    +0.000 A 
ATOM     19  C   UNL     1       4.492   3.571  16.448  0.00  0.00    +0.000 A 
ATOM     20  C   UNL     1       3.724   4.331  17.352  0.00  0.00    +0.000 A 
BRANCH  20  21
ATOM     21  N   UNL     1       2.787   3.635  18.160  0.00  0.00    +0.000 N 
ATOM     22  C   UNL     1       1.418   3.558  18.079  0.00  0.00    +0.000 A 
ATOM     23  N   UNL     1       0.964   2.782  19.036  0.00  0.00    +0.000 NA
ATOM     24  N   UNL     1       2.072   2.331  19.703  0.00  0.00    +0.000 NA
ATOM     25  N   UNL     1       3.183   2.784  19.140  0.00  0.00    +0.000 NA
ENDBRANCH  20  21
ENDBRANCH   2  15
TORSDOF 4
ENDMDL
