MODEL 1
REMARK VINA RESULT:      -8.5      0.000      0.000
REMARK  Name = 
REMARK  10 active torsions:
REMARK  status: ('A' for Active; 'I' for Inactive)
REMARK    1  A    between atoms: C_1  and  C_2
REMARK    2  A    between atoms: C_2  and  C_3
REMARK    3  A    between atoms: C_3  and  C_4
REMARK    4  A    between atoms: C_4  and  C_5
REMARK    5  A    between atoms: C_5  and  C_6
REMARK    6  A    between atoms: C_6  and  C_7
REMARK    7  A    between atoms: C_6  and  N_8
REMARK    8  A    between atoms: C_9  and  C_10
REMARK    9  A    between atoms: C_11  and  C_12
REMARK   10  A    between atoms: C_12  and  C_14
REMARK                            x       y       z     vdW  Elec       q    Type
REMARK                         _______ _______ _______ _____ _____    ______ ____
ROOT
ATOM      1  N   UNL     1       4.505   5.309  18.157  0.00  0.00    +0.000 N 
ATOM      2  C   UNL     1       4.113   6.612  17.856  0.00  0.00    +0.000 A 
ATOM      3  C   UNL     1       4.744   7.370  16.722  0.00  0.00    +0.000 C 
ATOM      4  C   UNL     1       3.015   6.988  18.679  0.00  0.00    +0.000 A 
ATOM      5  C   UNL     1       2.791   5.847  19.528  0.00  0.00    +0.000 A 
ATOM      6  C   UNL     1       1.811   5.515  20.488  0.00  0.00    +0.000 A 
ATOM      7  C   UNL     1       1.759   4.233  21.057  0.00  0.00    +0.000 A 
ATOM      8  C   UNL     1       2.689   3.250  20.719  0.00  0.00    +0.000 A 
ATOM      9  C   UNL     1       3.644   3.550  19.757  0.00  0.00    +0.000 A 
ATOM     10  C   UNL     1       3.715   4.832  19.199  0.00  0.00    +0.000 A 
ENDROOT
BRANCH   1  11
ATOM     11  C   UNL     1       5.492   4.423  17.491  0.00  0.00    +0.000 C 
ATOM     12  C   UNL     1       5.130   4.067  16.040  0.00  0.00    +0.000 C 
BRANCH  11  13
ATOM     13  C   UNL     1       6.995   4.752  17.645  0.00  0.00    +0.000 C 
BRANCH  13  14
ATOM     14  C   UNL     1       7.355   5.379  18.996  0.00  0.00    +0.000 C 
BRANCH  14  15
ATOM     15  C   UNL     1       8.181   6.663  18.871  0.00  0.00    +0.000 C 
BRANCH  15  17
ATOM     16  C   UNL     1       8.126   8.962  17.868  0.00  0.00    +0.000 C 
ATOM     17  C   UNL     1       7.730   7.508  17.682  0.00  0.00    +0.000 C 
ENDBRANCH  15  17
ENDBRANCH  14  15
ENDBRANCH  13  14
ENDBRANCH  11  13
ENDBRANCH   1  11
BRANCH   4  18
ATOM     18  C   UNL     1       2.019   8.071  18.356  0.00  0.00    +0.000 C 
ATOM     19  O   UNL     1       1.814   8.229  17.143  0.00  0.00    +0.000 OA
BRANCH  18  20
ATOM     20  C   UNL     1       1.378   9.192  19.244  0.00  0.00    +0.000 A 
ATOM     21  C   UNL     1       1.263  10.335  18.415  0.00  0.00    +0.000 A 
ATOM     22  C   UNL     1       0.442  11.395  18.747  0.00  0.00    +0.000 A 
ATOM     23  C   UNL     1       0.396  11.732  20.067  0.00  0.00    +0.000 A 
ATOM     24  C   UNL     1       0.393  10.687  20.965  0.00  0.00    +0.000 A 
ATOM     25  C   UNL     1      -0.087  11.071  22.222  0.00  0.00    +0.000 A 
ATOM     26  C   UNL     1      -0.599  10.116  23.075  0.00  0.00    +0.000 A 
ATOM     27  C   UNL     1      -0.601   8.803  22.654  0.00  0.00    +0.000 A 
ATOM     28  C   UNL     1       0.059   8.398  21.453  0.00  0.00    +0.000 A 
ATOM     29  C   UNL     1       0.668   9.329  20.538  0.00  0.00    +0.000 A 
ENDBRANCH  18  20
ENDBRANCH   4  18
TORSDOF 7
ENDMDL
MODEL 2
REMARK VINA RESULT:      -8.1      0.738      1.871
REMARK  Name = 
REMARK  10 active torsions:
REMARK  status: ('A' for Active; 'I' for Inactive)
REMARK    1  A    between atoms: C_1  and  C_2
REMARK    2  A    between atoms: C_2  and  C_3
REMARK    3  A    between atoms: C_3  and  C_4
REMARK    4  A    between atoms: C_4  and  C_5
REMARK    5  A    between atoms: C_5  and  C_6
REMARK    6  A    between atoms: C_6  and  C_7
REMARK    7  A    between atoms: C_6  and  N_8
REMARK    8  A    between atoms: C_9  and  C_10
REMARK    9  A    between atoms: C_11  and  C_12
REMARK   10  A    between atoms: C_12  and  C_14
REMARK                            x       y       z     vdW  Elec       q    Type
REMARK                         _______ _______ _______ _____ _____    ______ ____
ROOT
ATOM      1  N   UNL     1       4.367   5.177  18.191  0.00  0.00    +0.000 N 
ATOM      2  C   UNL     1       3.932   6.491  18.031  0.00  0.00    +0.000 A 
ATOM      3  C   UNL     1       4.484   7.364  16.939  0.00  0.00    +0.000 C 
ATOM      4  C   UNL     1       2.872   6.763  18.941  0.00  0.00    +0.000 A 
ATOM      5  C   UNL     1       2.719   5.546  19.693  0.00  0.00    +0.000 A 
ATOM      6  C   UNL     1       1.799   5.103  20.669  0.00  0.00    +0.000 A 
ATOM      7  C   UNL     1       1.805   3.775  21.120  0.00  0.00    +0.000 A 
ATOM      8  C   UNL     1       2.735   2.849  20.646  0.00  0.00    +0.000 A 
ATOM      9  C   UNL     1       3.630   3.260  19.667  0.00  0.00    +0.000 A 
ATOM     10  C   UNL     1       3.644   4.588  19.226  0.00  0.00    +0.000 A 
ENDROOT
BRANCH   1  11
ATOM     11  C   UNL     1       5.334   4.379  17.397  0.00  0.00    +0.000 C 
ATOM     12  C   UNL     1       4.812   3.969  16.009  0.00  0.00    +0.000 C 
BRANCH  11  13
ATOM     13  C   UNL     1       6.805   4.853  17.341  0.00  0.00    +0.000 C 
BRANCH  13  14
ATOM     14  C   UNL     1       7.419   5.124  18.718  0.00  0.00    +0.000 C 
BRANCH  14  15
ATOM     15  C   UNL     1       8.001   6.534  18.859  0.00  0.00    +0.000 C 
BRANCH  15  17
ATOM     16  C   UNL     1       8.089   8.834  17.860  0.00  0.00    +0.000 C 
ATOM     17  C   UNL     1       7.741   7.376  17.613  0.00  0.00    +0.000 C 
ENDBRANCH  15  17
ENDBRANCH  14  15
ENDBRANCH  13  14
ENDBRANCH  11  13
ENDBRANCH   1  11
BRANCH   4  18
ATOM     18  C   UNL     1       1.838   7.846  18.771  0.00  0.00    +0.000 C 
ATOM     19  O   UNL     1       1.578   8.119  17.589  0.00  0.00    +0.000 OA
BRANCH  18  20
ATOM     20  C   UNL     1       1.210   8.852  19.793  0.00  0.00    +0.000 A 
ATOM     21  C   UNL     1       1.418   8.293  21.077  0.00  0.00    +0.000 A 
ATOM     22  C   UNL     1       1.305   9.049  22.229  0.00  0.00    +0.000 A 
ATOM     23  C   UNL     1       0.305   9.974  22.246  0.00  0.00    +0.000 A 
ATOM     24  C   UNL     1       0.086  10.661  21.072  0.00  0.00    +0.000 A 
ATOM     25  C   UNL     1      -0.617  11.853  21.280  0.00  0.00    +0.000 A 
ATOM     26  C   UNL     1      -0.521  12.869  20.352  0.00  0.00    +0.000 A 
ATOM     27  C   UNL     1       0.262  12.660  19.238  0.00  0.00    +0.000 A 
ATOM     28  C   UNL     1       0.824  11.378  18.943  0.00  0.00    +0.000 A 
ATOM     29  C   UNL     1       0.717  10.250  19.833  0.00  0.00    +0.000 A 
ENDBRANCH  18  20
ENDBRANCH   4  18
TORSDOF 7
ENDMDL
MODEL 3
REMARK VINA RESULT:      -7.9      2.648      7.765
REMARK  Name = 
REMARK  10 active torsions:
REMARK  status: ('A' for Active; 'I' for Inactive)
REMARK    1  A    between atoms: C_1  and  C_2
REMARK    2  A    between atoms: C_2  and  C_3
REMARK    3  A    between atoms: C_3  and  C_4
REMARK    4  A    between atoms: C_4  and  C_5
REMARK    5  A    between atoms: C_5  and  C_6
REMARK    6  A    between atoms: C_6  and  C_7
REMARK    7  A    between atoms: C_6  and  N_8
REMARK    8  A    between atoms: C_9  and  C_10
REMARK    9  A    between atoms: C_11  and  C_12
REMARK   10  A    between atoms: C_12  and  C_14
REMARK                            x       y       z     vdW  Elec       q    Type
REMARK                         _______ _______ _______ _____ _____    ______ ____
ROOT
ATOM      1  N   UNL     1       0.125  11.055  19.528  0.00  0.00    +0.000 N 
ATOM      2  C   UNL     1       0.754   9.857  19.191  0.00  0.00    +0.000 A 
ATOM      3  C   UNL     1       1.492   9.708  17.891  0.00  0.00    +0.000 C 
ATOM      4  C   UNL     1       0.669   8.945  20.280  0.00  0.00    +0.000 A 
ATOM      5  C   UNL     1      -0.087   9.647  21.283  0.00  0.00    +0.000 A 
ATOM      6  C   UNL     1      -0.443   9.366  22.621  0.00  0.00    +0.000 A 
ATOM      7  C   UNL     1      -1.069  10.333  23.422  0.00  0.00    +0.000 A 
ATOM      8  C   UNL     1      -1.390  11.595  22.923  0.00  0.00    +0.000 A 
ATOM      9  C   UNL     1      -1.023  11.898  21.618  0.00  0.00    +0.000 A 
ATOM     10  C   UNL     1      -0.417  10.933  20.805  0.00  0.00    +0.000 A 
ENDROOT
BRANCH   1  11
ATOM     11  C   UNL     1       0.066  12.348  18.803  0.00  0.00    +0.000 C 
ATOM     12  C   UNL     1       1.445  12.913  18.425  0.00  0.00    +0.000 C 
BRANCH  11  13
ATOM     13  C   UNL     1      -0.953  12.497  17.650  0.00  0.00    +0.000 C 
BRANCH  13  14
ATOM     14  C   UNL     1      -2.204  11.630  17.815  0.00  0.00    +0.000 C 
BRANCH  14  15
ATOM     15  C   UNL     1      -2.318  10.518  16.767  0.00  0.00    +0.000 C 
BRANCH  15  17
ATOM     16  C   UNL     1      -3.008   9.942  14.425  0.00  0.00    +0.000 C 
ATOM     17  C   UNL     1      -3.048  10.999  15.516  0.00  0.00    +0.000 C 
ENDBRANCH  15  17
ENDBRANCH  14  15
ENDBRANCH  13  14
ENDBRANCH  11  13
ENDBRANCH   1  11
BRANCH   4  18
ATOM     18  C   UNL     1       1.597   7.781  20.511  0.00  0.00    +0.000 C 
ATOM     19  O   UNL     1       2.327   7.902  21.507  0.00  0.00    +0.000 OA
BRANCH  18  20
ATOM     20  C   UNL     1       1.983   6.564  19.603  0.00  0.00    +0.000 A 
ATOM     21  C   UNL     1       3.105   6.978  18.844  0.00  0.00    +0.000 A 
ATOM     22  C   UNL     1       3.919   6.071  18.193  0.00  0.00    +0.000 A 
ATOM     23  C   UNL     1       3.294   5.006  17.616  0.00  0.00    +0.000 A 
ATOM     24  C   UNL     1       2.250   4.451  18.324  0.00  0.00    +0.000 A 
ATOM     25  C   UNL     1       1.961   3.148  17.906  0.00  0.00    +0.000 A 
ATOM     26  C   UNL     1       1.308   2.288  18.765  0.00  0.00    +0.000 A 
ATOM     27  C   UNL     1       0.950   2.760  20.009  0.00  0.00    +0.000 A 
ATOM     28  C   UNL     1       1.081   4.141  20.356  0.00  0.00    +0.000 A 
ATOM     29  C   UNL     1       1.699   5.113  19.491  0.00  0.00    +0.000 A 
ENDBRANCH  18  20
ENDBRANCH   4  18
TORSDOF 7
ENDMDL
MODEL 4
REMARK VINA RESULT:      -7.8      1.879      3.219
REMARK  Name = 
REMARK  10 active torsions:
REMARK  status: ('A' for Active; 'I' for Inactive)
REMARK    1  A    between atoms: C_1  and  C_2
REMARK    2  A    between atoms: C_2  and  C_3
REMARK    3  A    between atoms: C_3  and  C_4
REMARK    4  A    between atoms: C_4  and  C_5
REMARK    5  A    between atoms: C_5  and  C_6
REMARK    6  A    between atoms: C_6  and  C_7
REMARK    7  A    between atoms: C_6  and  N_8
REMARK    8  A    between atoms: C_9  and  C_10
REMARK    9  A    between atoms: C_11  and  C_12
REMARK   10  A    between atoms: C_12  and  C_14
REMARK                            x       y       z     vdW  Elec       q    Type
REMARK                         _______ _______ _______ _____ _____    ______ ____
ROOT
ATOM      1  N   UNL     1       4.940   5.308  17.293  0.00  0.00    +0.000 N 
ATOM      2  C   UNL     1       4.616   6.630  17.588  0.00  0.00    +0.000 A 
ATOM      3  C   UNL     1       5.563   7.752  17.269  0.00  0.00    +0.000 C 
ATOM      4  C   UNL     1       3.284   6.701  18.086  0.00  0.00    +0.000 A 
ATOM      5  C   UNL     1       2.835   5.334  18.114  0.00  0.00    +0.000 A 
ATOM      6  C   UNL     1       1.599   4.712  18.398  0.00  0.00    +0.000 A 
ATOM      7  C   UNL     1       1.415   3.337  18.186  0.00  0.00    +0.000 A 
ATOM      8  C   UNL     1       2.449   2.528  17.714  0.00  0.00    +0.000 A 
ATOM      9  C   UNL     1       3.662   3.128  17.403  0.00  0.00    +0.000 A 
ATOM     10  C   UNL     1       3.861   4.494  17.631  0.00  0.00    +0.000 A 
ENDROOT
BRANCH   1  11
ATOM     11  C   UNL     1       6.137   4.736  16.627  0.00  0.00    +0.000 C 
ATOM     12  C   UNL     1       7.325   4.502  17.575  0.00  0.00    +0.000 C 
BRANCH  11  13
ATOM     13  C   UNL     1       5.939   3.553  15.650  0.00  0.00    +0.000 C 
BRANCH  13  14
ATOM     14  C   UNL     1       6.144   3.927  14.179  0.00  0.00    +0.000 C 
BRANCH  14  15
ATOM     15  C   UNL     1       7.217   4.999  13.966  0.00  0.00    +0.000 C 
BRANCH  15  17
ATOM     16  C   UNL     1       7.091   3.912  11.709  0.00  0.00    +0.000 C 
ATOM     17  C   UNL     1       7.644   5.083  12.503  0.00  0.00    +0.000 C 
ENDBRANCH  15  17
ENDBRANCH  14  15
ENDBRANCH  13  14
ENDBRANCH  11  13
ENDBRANCH   1  11
BRANCH   4  18
ATOM     18  C   UNL     1       2.412   7.929  18.059  0.00  0.00    +0.000 C 
ATOM     19  O   UNL     1       2.522   8.609  17.027  0.00  0.00    +0.000 OA
BRANCH  18  20
ATOM     20  C   UNL     1       1.577   8.635  19.181  0.00  0.00    +0.000 A 
ATOM     21  C   UNL     1       1.744   7.852  20.349  0.00  0.00    +0.000 A 
ATOM     22  C   UNL     1       1.440   8.343  21.605  0.00  0.00    +0.000 A 
ATOM     23  C   UNL     1       0.333   9.134  21.690  0.00  0.00    +0.000 A 
ATOM     24  C   UNL     1       0.129  10.017  20.652  0.00  0.00    +0.000 A 
ATOM     25  C   UNL     1      -0.733  11.060  21.007  0.00  0.00    +0.000 A 
ATOM     26  C   UNL     1      -0.687  12.247  20.306  0.00  0.00    +0.000 A 
ATOM     27  C   UNL     1       0.208  12.353  19.264  0.00  0.00    +0.000 A 
ATOM     28  C   UNL     1       0.949  11.225  18.792  0.00  0.00    +0.000 A 
ATOM     29  C   UNL     1       0.911   9.935  19.433  0.00  0.00    +0.000 A 
ENDBRANCH  18  20
ENDBRANCH   4  18
TORSDOF 7
ENDMDL
MODEL 5
REMARK VINA RESULT:      -7.6      1.463      2.336
REMARK  Name = 
REMARK  10 active torsions:
REMARK  status: ('A' for Active; 'I' for Inactive)
REMARK    1  A    between atoms: C_1  and  C_2
REMARK    2  A    between atoms: C_2  and  C_3
REMARK    3  A    between atoms: C_3  and  C_4
REMARK    4  A    between atoms: C_4  and  C_5
REMARK    5  A    between atoms: C_5  and  C_6
REMARK    6  A    between atoms: C_6  and  C_7
REMARK    7  A    between atoms: C_6  and  N_8
REMARK    8  A    between atoms: C_9  and  C_10
REMARK    9  A    between atoms: C_11  and  C_12
REMARK   10  A    between atoms: C_12  and  C_14
REMARK                            x       y       z     vdW  Elec       q    Type
REMARK                         _______ _______ _______ _____ _____    ______ ____
ROOT
ATOM      1  N   UNL     1       4.142   5.242  18.203  0.00  0.00    +0.000 N 
ATOM      2  C   UNL     1       3.961   6.571  17.824  0.00  0.00    +0.000 A 
ATOM      3  C   UNL     1       4.724   7.159  16.671  0.00  0.00    +0.000 C 
ATOM      4  C   UNL     1       2.918   7.155  18.595  0.00  0.00    +0.000 A 
ATOM      5  C   UNL     1       2.504   6.112  19.495  0.00  0.00    +0.000 A 
ATOM      6  C   UNL     1       1.465   5.987  20.443  0.00  0.00    +0.000 A 
ATOM      7  C   UNL     1       1.206   4.762  21.077  0.00  0.00    +0.000 A 
ATOM      8  C   UNL     1       1.979   3.630  20.817  0.00  0.00    +0.000 A 
ATOM      9  C   UNL     1       2.988   3.728  19.868  0.00  0.00    +0.000 A 
ATOM     10  C   UNL     1       3.267   4.950  19.246  0.00  0.00    +0.000 A 
ENDROOT
BRANCH   1  11
ATOM     11  C   UNL     1       4.994   4.180  17.613  0.00  0.00    +0.000 C 
ATOM     12  C   UNL     1       4.207   3.111  16.835  0.00  0.00    +0.000 C 
BRANCH  11  13
ATOM     13  C   UNL     1       6.282   4.601  16.869  0.00  0.00    +0.000 C 
BRANCH  13  14
ATOM     14  C   UNL     1       6.538   3.810  15.582  0.00  0.00    +0.000 C 
BRANCH  14  15
ATOM     15  C   UNL     1       6.343   4.638  14.308  0.00  0.00    +0.000 C 
BRANCH  15  17
ATOM     16  C   UNL     1       7.138   4.220  11.966  0.00  0.00    +0.000 C 
ATOM     17  C   UNL     1       6.213   3.748  13.075  0.00  0.00    +0.000 C 
ENDBRANCH  15  17
ENDBRANCH  14  15
ENDBRANCH  13  14
ENDBRANCH  11  13
ENDBRANCH   1  11
BRANCH   4  18
ATOM     18  C   UNL     1       2.108   8.359  18.188  0.00  0.00    +0.000 C 
ATOM     19  O   UNL     1       2.453   8.863  17.108  0.00  0.00    +0.000 OA
BRANCH  18  20
ATOM     20  C   UNL     1       1.077   9.233  18.979  0.00  0.00    +0.000 A 
ATOM     21  C   UNL     1       0.172   9.745  18.017  0.00  0.00    +0.000 A 
ATOM     22  C   UNL     1      -1.054  10.272  18.378  0.00  0.00    +0.000 A 
ATOM     23  C   UNL     1      -1.080  11.006  19.525  0.00  0.00    +0.000 A 
ATOM     24  C   UNL     1      -0.315  10.537  20.571  0.00  0.00    +0.000 A 
ATOM     25  C   UNL     1      -0.723  11.063  21.802  0.00  0.00    +0.000 A 
ATOM     26  C   UNL     1      -0.419  10.385  22.965  0.00  0.00    +0.000 A 
ATOM     27  C   UNL     1       0.295   9.210  22.864  0.00  0.00    +0.000 A 
ATOM     28  C   UNL     1       0.865   8.780  21.626  0.00  0.00    +0.000 A 
ATOM     29  C   UNL     1       0.643   9.466  20.378  0.00  0.00    +0.000 A 
ENDBRANCH  18  20
ENDBRANCH   4  18
TORSDOF 7
ENDMDL
MODEL 6
REMARK VINA RESULT:      -7.6      1.334      4.452
REMARK  Name = 
REMARK  10 active torsions:
REMARK  status: ('A' for Active; 'I' for Inactive)
REMARK    1  A    between atoms: C_1  and  C_2
REMARK    2  A    between atoms: C_2  and  C_3
REMARK    3  A    between atoms: C_3  and  C_4
REMARK    4  A    between atoms: C_4  and  C_5
REMARK    5  A    between atoms: C_5  and  C_6
REMARK    6  A    between atoms: C_6  and  C_7
REMARK    7  A    between atoms: C_6  and  N_8
REMARK    8  A    between atoms: C_9  and  C_10
REMARK    9  A    between atoms: C_11  and  C_12
REMARK   10  A    between atoms: C_12  and  C_14
REMARK                            x       y       z     vdW  Elec       q    Type
REMARK                         _______ _______ _______ _____ _____    ______ ____
ROOT
ATOM      1  N   UNL     1       4.040   4.364  17.909  0.00  0.00    +0.000 N 
ATOM      2  C   UNL     1       3.012   5.276  17.676  0.00  0.00    +0.000 A 
ATOM      3  C   UNL     1       1.571   4.861  17.770  0.00  0.00    +0.000 C 
ATOM      4  C   UNL     1       3.556   6.576  17.477  0.00  0.00    +0.000 A 
ATOM      5  C   UNL     1       4.981   6.390  17.563  0.00  0.00    +0.000 A 
ATOM      6  C   UNL     1       6.088   7.266  17.559  0.00  0.00    +0.000 A 
ATOM      7  C   UNL     1       7.384   6.798  17.822  0.00  0.00    +0.000 A 
ATOM      8  C   UNL     1       7.633   5.447  18.068  0.00  0.00    +0.000 A 
ATOM      9  C   UNL     1       6.553   4.575  18.103  0.00  0.00    +0.000 A 
ATOM     10  C   UNL     1       5.260   5.031  17.821  0.00  0.00    +0.000 A 
ENDROOT
BRANCH   1  11
ATOM     11  C   UNL     1       3.988   2.935  18.307  0.00  0.00    +0.000 C 
ATOM     12  C   UNL     1       4.537   2.662  19.718  0.00  0.00    +0.000 C 
BRANCH  11  13
ATOM     13  C   UNL     1       2.689   2.144  18.031  0.00  0.00    +0.000 C 
BRANCH  13  14
ATOM     14  C   UNL     1       2.031   1.579  19.294  0.00  0.00    +0.000 C 
BRANCH  14  15
ATOM     15  C   UNL     1       0.961   2.501  19.888  0.00  0.00    +0.000 C 
BRANCH  15  17
ATOM     16  C   UNL     1       2.060   4.138  21.440  0.00  0.00    +0.000 C 
ATOM     17  C   UNL     1       1.265   2.847  21.344  0.00  0.00    +0.000 C 
ENDBRANCH  15  17
ENDBRANCH  14  15
ENDBRANCH  13  14
ENDBRANCH  11  13
ENDBRANCH   1  11
BRANCH   4  18
ATOM     18  C   UNL     1       2.809   7.869  17.678  0.00  0.00    +0.000 C 
ATOM     19  O   UNL     1       3.108   8.760  16.869  0.00  0.00    +0.000 OA
BRANCH  18  20
ATOM     20  C   UNL     1       1.909   8.376  18.855  0.00  0.00    +0.000 A 
ATOM     21  C   UNL     1       2.115   7.475  19.927  0.00  0.00    +0.000 A 
ATOM     22  C   UNL     1       1.757   7.791  21.224  0.00  0.00    +0.000 A 
ATOM     23  C   UNL     1       0.595   8.485  21.376  0.00  0.00    +0.000 A 
ATOM     24  C   UNL     1       0.342   9.469  20.444  0.00  0.00    +0.000 A 
ATOM     25  C   UNL     1      -0.599  10.399  20.897  0.00  0.00    +0.000 A 
ATOM     26  C   UNL     1      -0.629  11.661  20.342  0.00  0.00    +0.000 A 
ATOM     27  C   UNL     1       0.271  11.952  19.340  0.00  0.00    +0.000 A 
ATOM     28  C   UNL     1       1.100  10.943  18.757  0.00  0.00    +0.000 A 
ATOM     29  C   UNL     1       1.146   9.587  19.242  0.00  0.00    +0.000 A 
ENDBRANCH  18  20
ENDBRANCH   4  18
TORSDOF 7
ENDMDL
MODEL 7
REMARK VINA RESULT:      -7.5      3.351      5.886
REMARK  Name = 
REMARK  10 active torsions:
REMARK  status: ('A' for Active; 'I' for Inactive)
REMARK    1  A    between atoms: C_1  and  C_2
REMARK    2  A    between atoms: C_2  and  C_3
REMARK    3  A    between atoms: C_3  and  C_4
REMARK    4  A    between atoms: C_4  and  C_5
REMARK    5  A    between atoms: C_5  and  C_6
REMARK    6  A    between atoms: C_6  and  C_7
REMARK    7  A    between atoms: C_6  and  N_8
REMARK    8  A    between atoms: C_9  and  C_10
REMARK    9  A    between atoms: C_11  and  C_12
REMARK   10  A    between atoms: C_12  and  C_14
REMARK                            x       y       z     vdW  Elec       q    Type
REMARK                         _______ _______ _______ _____ _____    ______ ____
ROOT
ATOM      1  N   UNL     1       1.350   8.891  20.095  0.00  0.00    +0.000 N 
ATOM      2  C   UNL     1       1.131   9.740  19.011  0.00  0.00    +0.000 A 
ATOM      3  C   UNL     1       1.633   9.390  17.639  0.00  0.00    +0.000 C 
ATOM      4  C   UNL     1       0.309  10.831  19.410  0.00  0.00    +0.000 A 
ATOM      5  C   UNL     1       0.076  10.615  20.814  0.00  0.00    +0.000 A 
ATOM      6  C   UNL     1      -0.725  11.252  21.786  0.00  0.00    +0.000 A 
ATOM      7  C   UNL     1      -0.875  10.709  23.072  0.00  0.00    +0.000 A 
ATOM      8  C   UNL     1      -0.218   9.537  23.447  0.00  0.00    +0.000 A 
ATOM      9  C   UNL     1       0.553   8.882  22.495  0.00  0.00    +0.000 A 
ATOM     10  C   UNL     1       0.724   9.428  21.218  0.00  0.00    +0.000 A 
ENDROOT
BRANCH   1  11
ATOM     11  C   UNL     1       2.010   7.564  20.161  0.00  0.00    +0.000 C 
ATOM     12  C   UNL     1       1.111   6.448  20.719  0.00  0.00    +0.000 C 
BRANCH  11  13
ATOM     13  C   UNL     1       2.824   7.088  18.935  0.00  0.00    +0.000 C 
BRANCH  13  14
ATOM     14  C   UNL     1       3.311   5.640  19.043  0.00  0.00    +0.000 C 
BRANCH  14  15
ATOM     15  C   UNL     1       3.041   4.811  17.782  0.00  0.00    +0.000 C 
BRANCH  15  17
ATOM     16  C   UNL     1       1.331   3.108  18.466  0.00  0.00    +0.000 C 
ATOM     17  C   UNL     1       1.577   4.390  17.690  0.00  0.00    +0.000 C 
ENDBRANCH  15  17
ENDBRANCH  14  15
ENDBRANCH  13  14
ENDBRANCH  11  13
ENDBRANCH   1  11
BRANCH   4  18
ATOM     18  C   UNL     1      -0.532  11.668  18.483  0.00  0.00    +0.000 C 
ATOM     19  O   UNL     1      -0.055  12.786  18.234  0.00  0.00    +0.000 OA
BRANCH  18  20
ATOM     20  C   UNL     1      -2.000  11.492  17.967  0.00  0.00    +0.000 A 
ATOM     21  C   UNL     1      -1.943  10.521  16.938  0.00  0.00    +0.000 A 
ATOM     22  C   UNL     1      -3.076   9.867  16.489  0.00  0.00    +0.000 A 
ATOM     23  C   UNL     1      -4.210  10.618  16.403  0.00  0.00    +0.000 A 
ATOM     24  C   UNL     1      -4.423  11.526  17.417  0.00  0.00    +0.000 A 
ATOM     25  C   UNL     1      -5.762  11.922  17.500  0.00  0.00    +0.000 A 
ATOM     26  C   UNL     1      -6.249  12.426  18.688  0.00  0.00    +0.000 A 
ATOM     27  C   UNL     1      -5.381  12.532  19.754  0.00  0.00    +0.000 A 
ATOM     28  C   UNL     1      -3.978  12.301  19.606  0.00  0.00    +0.000 A 
ATOM     29  C   UNL     1      -3.383  11.830  18.381  0.00  0.00    +0.000 A 
ENDBRANCH  18  20
ENDBRANCH   4  18
TORSDOF 7
ENDMDL
MODEL 8
REMARK VINA RESULT:      -7.4      2.373      7.765
REMARK  Name = 
REMARK  10 active torsions:
REMARK  status: ('A' for Active; 'I' for Inactive)
REMARK    1  A    between atoms: C_1  and  C_2
REMARK    2  A    between atoms: C_2  and  C_3
REMARK    3  A    between atoms: C_3  and  C_4
REMARK    4  A    between atoms: C_4  and  C_5
REMARK    5  A    between atoms: C_5  and  C_6
REMARK    6  A    between atoms: C_6  and  C_7
REMARK    7  A    between atoms: C_6  and  N_8
REMARK    8  A    between atoms: C_9  and  C_10
REMARK    9  A    between atoms: C_11  and  C_12
REMARK   10  A    between atoms: C_12  and  C_14
REMARK                            x       y       z     vdW  Elec       q    Type
REMARK                         _______ _______ _______ _____ _____    ______ ____
ROOT
ATOM      1  N   UNL     1       0.569  10.608  19.463  0.00  0.00    +0.000 N 
ATOM      2  C   UNL     1       1.169   9.430  19.022  0.00  0.00    +0.000 A 
ATOM      3  C   UNL     1       1.895   9.374  17.708  0.00  0.00    +0.000 C 
ATOM      4  C   UNL     1       1.070   8.431  20.031  0.00  0.00    +0.000 A 
ATOM      5  C   UNL     1       0.336   9.063  21.096  0.00  0.00    +0.000 A 
ATOM      6  C   UNL     1      -0.017   8.679  22.408  0.00  0.00    +0.000 A 
ATOM      7  C   UNL     1      -0.616   9.589  23.293  0.00  0.00    +0.000 A 
ATOM      8  C   UNL     1      -0.911  10.895  22.903  0.00  0.00    +0.000 A 
ATOM      9  C   UNL     1      -0.546  11.298  21.625  0.00  0.00    +0.000 A 
ATOM     10  C   UNL     1       0.033  10.392  20.730  0.00  0.00    +0.000 A 
ENDROOT
BRANCH   1  11
ATOM     11  C   UNL     1       0.535  11.959  18.849  0.00  0.00    +0.000 C 
ATOM     12  C   UNL     1       1.921  12.506  18.469  0.00  0.00    +0.000 C 
BRANCH  11  13
ATOM     13  C   UNL     1      -0.516  12.239  17.750  0.00  0.00    +0.000 C 
BRANCH  13  14
ATOM     14  C   UNL     1      -1.898  11.654  18.053  0.00  0.00    +0.000 C 
BRANCH  14  15
ATOM     15  C   UNL     1      -2.120  10.266  17.444  0.00  0.00    +0.000 C 
BRANCH  15  17
ATOM     16  C   UNL     1      -2.882  10.333  15.055  0.00  0.00    +0.000 C 
ATOM     17  C   UNL     1      -3.324  10.251  16.506  0.00  0.00    +0.000 C 
ENDBRANCH  15  17
ENDBRANCH  14  15
ENDBRANCH  13  14
ENDBRANCH  11  13
ENDBRANCH   1  11
BRANCH   4  18
ATOM     18  C   UNL     1       1.973   7.232  20.156  0.00  0.00    +0.000 C 
ATOM     19  O   UNL     1       2.570   7.156  21.241  0.00  0.00    +0.000 OA
BRANCH  18  20
ATOM     20  C   UNL     1       2.483   6.200  19.094  0.00  0.00    +0.000 A 
ATOM     21  C   UNL     1       1.507   5.176  19.038  0.00  0.00    +0.000 A 
ATOM     22  C   UNL     1       1.446   4.284  17.984  0.00  0.00    +0.000 A 
ATOM     23  C   UNL     1       2.641   3.859  17.484  0.00  0.00    +0.000 A 
ATOM     24  C   UNL     1       3.637   4.807  17.392  0.00  0.00    +0.000 A 
ATOM     25  C   UNL     1       4.644   4.430  16.496  0.00  0.00    +0.000 A 
ATOM     26  C   UNL     1       5.442   5.399  15.924  0.00  0.00    +0.000 A 
ATOM     27  C   UNL     1       5.222   6.713  16.276  0.00  0.00    +0.000 A 
ATOM     28  C   UNL     1       4.322   7.069  17.328  0.00  0.00    +0.000 A 
ATOM     29  C   UNL     1       3.495   6.109  18.014  0.00  0.00    +0.000 A 
ENDBRANCH  18  20
ENDBRANCH   4  18
TORSDOF 7
ENDMDL
MODEL 9
REMARK VINA RESULT:      -7.3      5.461      8.359
REMARK  Name = 
REMARK  10 active torsions:
REMARK  status: ('A' for Active; 'I' for Inactive)
REMARK    1  A    between atoms: C_1  and  C_2
REMARK    2  A    between atoms: C_2  and  C_3
REMARK    3  A    between atoms: C_3  and  C_4
REMARK    4  A    between atoms: C_4  and  C_5
REMARK    5  A    between atoms: C_5  and  C_6
REMARK    6  A    between atoms: C_6  and  C_7
REMARK    7  A    between atoms: C_6  and  N_8
REMARK    8  A    between atoms: C_9  and  C_10
REMARK    9  A    between atoms: C_11  and  C_12
REMARK   10  A    between atoms: C_12  and  C_14
REMARK                            x       y       z     vdW  Elec       q    Type
REMARK                         _______ _______ _______ _____ _____    ______ ____
ROOT
ATOM      1  N   UNL     1      -0.234  11.740  20.004  0.00  0.00    +0.000 N 
ATOM      2  C   UNL     1      -1.080  12.763  20.428  0.00  0.00    +0.000 A 
ATOM      3  C   UNL     1      -1.546  13.828  19.476  0.00  0.00    +0.000 C 
ATOM      4  C   UNL     1      -1.471  12.538  21.778  0.00  0.00    +0.000 A 
ATOM      5  C   UNL     1      -0.777  11.337  22.161  0.00  0.00    +0.000 A 
ATOM      6  C   UNL     1      -0.794  10.517  23.310  0.00  0.00    +0.000 A 
ATOM      7  C   UNL     1      -0.110   9.292  23.337  0.00  0.00    +0.000 A 
ATOM      8  C   UNL     1       0.636   8.852  22.244  0.00  0.00    +0.000 A 
ATOM      9  C   UNL     1       0.643   9.633  21.095  0.00  0.00    +0.000 A 
ATOM     10  C   UNL     1      -0.020  10.865  21.067  0.00  0.00    +0.000 A 
ENDROOT
BRANCH   1  11
ATOM     11  C   UNL     1       0.321  11.444  18.660  0.00  0.00    +0.000 C 
ATOM     12  C   UNL     1       1.858  11.461  18.604  0.00  0.00    +0.000 C 
BRANCH  11  13
ATOM     13  C   UNL     1      -0.271  10.256  17.867  0.00  0.00    +0.000 C 
BRANCH  13  14
ATOM     14  C   UNL     1      -1.793  10.130  17.988  0.00  0.00    +0.000 C 
BRANCH  14  15
ATOM     15  C   UNL     1      -2.558  11.076  17.057  0.00  0.00    +0.000 C 
BRANCH  15  17
ATOM     16  C   UNL     1      -2.992  10.228  14.736  0.00  0.00    +0.000 C 
ATOM     17  C   UNL     1      -3.526  10.314  16.155  0.00  0.00    +0.000 C 
ENDBRANCH  15  17
ENDBRANCH  14  15
ENDBRANCH  13  14
ENDBRANCH  11  13
ENDBRANCH   1  11
BRANCH   4  18
ATOM     18  C   UNL     1      -2.706  13.104  22.429  0.00  0.00    +0.000 C 
ATOM     19  O   UNL     1      -2.485  13.746  23.467  0.00  0.00    +0.000 OA
BRANCH  18  20
ATOM     20  C   UNL     1      -4.229  12.835  22.178  0.00  0.00    +0.000 A 
ATOM     21  C   UNL     1      -4.910  13.328  23.318  0.00  0.00    +0.000 A 
ATOM     22  C   UNL     1      -6.270  13.571  23.305  0.00  0.00    +0.000 A 
ATOM     23  C   UNL     1      -7.036  12.677  22.617  0.00  0.00    +0.000 A 
ATOM     24  C   UNL     1      -6.514  12.211  21.430  0.00  0.00    +0.000 A 
ATOM     25  C   UNL     1      -7.499  11.672  20.595  0.00  0.00    +0.000 A 
ATOM     26  C   UNL     1      -7.272  11.598  19.236  0.00  0.00    +0.000 A 
ATOM     27  C   UNL     1      -6.062  12.049  18.754  0.00  0.00    +0.000 A 
ATOM     28  C   UNL     1      -4.995  12.422  19.629  0.00  0.00    +0.000 A 
ATOM     29  C   UNL     1      -5.135  12.470  21.063  0.00  0.00    +0.000 A 
ENDBRANCH  18  20
ENDBRANCH   4  18
TORSDOF 7
ENDMDL
