MODEL 1
REMARK VINA RESULT:      -8.1      0.000      0.000
REMARK  Name = 
REMARK  5 active torsions:
REMARK  status: ('A' for Active; 'I' for Inactive)
REMARK    1  A    between atoms: C_1  and  C_2
REMARK    2  A    between atoms: C_2  and  O_3
REMARK    3  A    between atoms: C_2  and  C_15
REMARK    4  A    between atoms: O_3  and  C_4
REMARK    5  A    between atoms: N_17  and  C_18
REMARK                            x       y       z     vdW  Elec       q    Type
REMARK                         _______ _______ _______ _____ _____    ______ ____
ROOT
ATOM      1  C   UNL     1       1.272   9.225  22.177  0.00  0.00    +0.000 C 
ATOM      2  C   UNL     1       0.730   8.894  20.782  0.00  0.00    +0.000 C 
ENDROOT
BRANCH   2   3
ATOM      3  C   UNL     1       1.589   7.839  20.149  0.00  0.00    +0.000 A 
ATOM      4  C   UNL     1       2.328   7.840  18.986  0.00  0.00    +0.000 A 
ATOM      5  N   UNL     1       2.850   6.569  18.895  0.00  0.00    +0.000 N 
ATOM      6  N   UNL     1       2.501   5.861  19.996  0.00  0.00    +0.000 NA
ATOM      7  N   UNL     1       1.724   6.618  20.756  0.00  0.00    +0.000 NA
BRANCH   5   8
ATOM      8  C   UNL     1       3.602   5.986  17.843  0.00  0.00    +0.000 A 
ATOM      9  C   UNL     1       3.536   4.609  17.589  0.00  0.00    +0.000 A 
ATOM     10  C   UNL     1       4.324   4.047  16.578  0.00  0.00    +0.000 A 
ATOM     11  C   UNL     1       5.174   4.853  15.825  0.00  0.00    +0.000 A 
ATOM     12 CL   UNL     1       6.155   4.147  14.601  0.00  0.00    +0.000 Cl
ATOM     13  C   UNL     1       5.238   6.225  16.060  0.00  0.00    +0.000 A 
ATOM     14  C   UNL     1       4.451   6.793  17.066  0.00  0.00    +0.000 A 
ENDBRANCH   5   8
ENDBRANCH   2   3
BRANCH   2  15
ATOM     15  O   UNL     1       0.675  10.088  19.966  0.00  0.00    +0.000 OA
BRANCH  15  16
ATOM     16  C   UNL     1      -0.477  10.845  19.999  0.00  0.00    +0.000 A 
ATOM     17  C   UNL     1      -0.775  11.715  21.046  0.00  0.00    +0.000 A 
ATOM     18  C   UNL     1      -1.947  12.459  21.024  0.00  0.00    +0.000 A 
ATOM     19  N   UNL     1      -2.847  12.375  19.983  0.00  0.00    +0.000 N 
ATOM     20  O   UNL     1      -3.911  13.077  20.034  0.00  0.00    +0.000 OA
ATOM     21  C   UNL     1      -2.560  11.525  18.897  0.00  0.00    +0.000 A 
ATOM     22  C   UNL     1      -3.464  11.441  17.814  0.00  0.00    +0.000 A 
ATOM     23  C   UNL     1      -3.203  10.622  16.719  0.00  0.00    +0.000 A 
ATOM     24  C   UNL     1      -2.039   9.864  16.699  0.00  0.00    +0.000 A 
ATOM     25  C   UNL     1      -1.132   9.926  17.768  0.00  0.00    +0.000 A 
ATOM     26  C   UNL     1      -1.361  10.753  18.891  0.00  0.00    +0.000 A 
ENDBRANCH  15  16
ENDBRANCH   2  15
TORSDOF 4
ENDMDL
MODEL 2
REMARK VINA RESULT:      -8.0      4.484      8.910
REMARK  Name = 
REMARK  5 active torsions:
REMARK  status: ('A' for Active; 'I' for Inactive)
REMARK    1  A    between atoms: C_1  and  C_2
REMARK    2  A    between atoms: C_2  and  O_3
REMARK    3  A    between atoms: C_2  and  C_15
REMARK    4  A    between atoms: O_3  and  C_4
REMARK    5  A    between atoms: N_17  and  C_18
REMARK                            x       y       z     vdW  Elec       q    Type
REMARK                         _______ _______ _______ _____ _____    ______ ____
ROOT
ATOM      1  C   UNL     1       1.939   9.027  18.177  0.00  0.00    +0.000 C 
ATOM      2  C   UNL     1       1.467   8.173  19.360  0.00  0.00    +0.000 C 
ENDROOT
BRANCH   2   3
ATOM      3  C   UNL     1       0.955   9.068  20.450  0.00  0.00    +0.000 A 
ATOM      4  C   UNL     1       0.047  10.105  20.429  0.00  0.00    +0.000 A 
ATOM      5  N   UNL     1       0.031  10.590  21.717  0.00  0.00    +0.000 N 
ATOM      6  N   UNL     1       0.837   9.826  22.494  0.00  0.00    +0.000 NA
ATOM      7  N   UNL     1       1.413   8.910  21.731  0.00  0.00    +0.000 NA
BRANCH   5   8
ATOM      8  C   UNL     1      -0.648  11.722  22.236  0.00  0.00    +0.000 A 
ATOM      9  C   UNL     1      -1.799  11.572  23.021  0.00  0.00    +0.000 A 
ATOM     10  C   UNL     1      -2.482  12.704  23.482  0.00  0.00    +0.000 A 
ATOM     11  C   UNL     1      -2.020  13.978  23.162  0.00  0.00    +0.000 A 
ATOM     12 CL   UNL     1      -2.881  15.360  23.714  0.00  0.00    +0.000 Cl
ATOM     13  C   UNL     1      -0.869  14.139  22.393  0.00  0.00    +0.000 A 
ATOM     14  C   UNL     1      -0.180  13.012  21.932  0.00  0.00    +0.000 A 
ENDBRANCH   5   8
ENDBRANCH   2   3
BRANCH   2  15
ATOM     15  O   UNL     1       2.543   7.329  19.832  0.00  0.00    +0.000 OA
BRANCH  15  16
ATOM     16  C   UNL     1       2.402   5.964  19.705  0.00  0.00    +0.000 A 
ATOM     17  C   UNL     1       1.552   5.217  20.519  0.00  0.00    +0.000 A 
ATOM     18  C   UNL     1       1.442   3.844  20.342  0.00  0.00    +0.000 A 
ATOM     19  N   UNL     1       2.151   3.174  19.368  0.00  0.00    +0.000 N 
ATOM     20  O   UNL     1       2.013   1.910  19.269  0.00  0.00    +0.000 OA
ATOM     21  C   UNL     1       2.997   3.905  18.511  0.00  0.00    +0.000 A 
ATOM     22  C   UNL     1       3.717   3.235  17.497  0.00  0.00    +0.000 A 
ATOM     23  C   UNL     1       4.551   3.930  16.624  0.00  0.00    +0.000 A 
ATOM     24  C   UNL     1       4.685   5.306  16.764  0.00  0.00    +0.000 A 
ATOM     25  C   UNL     1       3.985   5.989  17.771  0.00  0.00    +0.000 A 
ATOM     26  C   UNL     1       3.125   5.317  18.667  0.00  0.00    +0.000 A 
ENDBRANCH  15  16
ENDBRANCH   2  15
TORSDOF 4
ENDMDL
MODEL 3
REMARK VINA RESULT:      -7.9      2.319      3.812
REMARK  Name = 
REMARK  5 active torsions:
REMARK  status: ('A' for Active; 'I' for Inactive)
REMARK    1  A    between atoms: C_1  and  C_2
REMARK    2  A    between atoms: C_2  and  O_3
REMARK    3  A    between atoms: C_2  and  C_15
REMARK    4  A    between atoms: O_3  and  C_4
REMARK    5  A    between atoms: N_17  and  C_18
REMARK                            x       y       z     vdW  Elec       q    Type
REMARK                         _______ _______ _______ _____ _____    ______ ____
ROOT
ATOM      1  C   UNL     1       1.831   5.093  20.878  0.00  0.00    +0.000 C 
ATOM      2  C   UNL     1       2.091   6.176  19.826  0.00  0.00    +0.000 C 
ENDROOT
BRANCH   2   3
ATOM      3  C   UNL     1       3.280   5.793  18.996  0.00  0.00    +0.000 A 
ATOM      4  C   UNL     1       3.500   5.844  17.637  0.00  0.00    +0.000 A 
ATOM      5  N   UNL     1       4.750   5.297  17.457  0.00  0.00    +0.000 N 
ATOM      6  N   UNL     1       5.289   5.003  18.665  0.00  0.00    +0.000 NA
ATOM      7  N   UNL     1       4.398   5.286  19.604  0.00  0.00    +0.000 NA
BRANCH   5   8
ATOM      8  C   UNL     1       5.433   5.007  16.247  0.00  0.00    +0.000 A 
ATOM      9  C   UNL     1       6.762   5.410  16.058  0.00  0.00    +0.000 A 
ATOM     10  C   UNL     1       7.401   5.157  14.839  0.00  0.00    +0.000 A 
ATOM     11  C   UNL     1       6.718   4.508  13.813  0.00  0.00    +0.000 A 
ATOM     12 CL   UNL     1       7.506   4.224  12.311  0.00  0.00    +0.000 Cl
ATOM     13  C   UNL     1       5.400   4.092  13.995  0.00  0.00    +0.000 A 
ATOM     14  C   UNL     1       4.758   4.339  15.212  0.00  0.00    +0.000 A 
ENDBRANCH   5   8
ENDBRANCH   2   3
BRANCH   2  15
ATOM     15  O   UNL     1       2.284   7.462  20.463  0.00  0.00    +0.000 OA
BRANCH  15  16
ATOM     16  C   UNL     1       1.550   8.533  20.000  0.00  0.00    +0.000 A 
ATOM     17  C   UNL     1       1.531   8.907  18.658  0.00  0.00    +0.000 A 
ATOM     18  C   UNL     1       0.767   9.991  18.245  0.00  0.00    +0.000 A 
ATOM     19  N   UNL     1       0.005  10.726  19.128  0.00  0.00    +0.000 N 
ATOM     20  O   UNL     1      -0.662  11.719  18.683  0.00  0.00    +0.000 OA
ATOM     21  C   UNL     1      -0.018  10.356  20.487  0.00  0.00    +0.000 A 
ATOM     22  C   UNL     1      -0.807  11.089  21.400  0.00  0.00    +0.000 A 
ATOM     23  C   UNL     1      -0.863  10.739  22.748  0.00  0.00    +0.000 A 
ATOM     24  C   UNL     1      -0.118   9.658  23.200  0.00  0.00    +0.000 A 
ATOM     25  C   UNL     1       0.679   8.922  22.311  0.00  0.00    +0.000 A 
ATOM     26  C   UNL     1       0.753   9.243  20.937  0.00  0.00    +0.000 A 
ENDBRANCH  15  16
ENDBRANCH   2  15
TORSDOF 4
ENDMDL
MODEL 4
REMARK VINA RESULT:      -7.9      4.484      9.215
REMARK  Name = 
REMARK  5 active torsions:
REMARK  status: ('A' for Active; 'I' for Inactive)
REMARK    1  A    between atoms: C_1  and  C_2
REMARK    2  A    between atoms: C_2  and  O_3
REMARK    3  A    between atoms: C_2  and  C_15
REMARK    4  A    between atoms: O_3  and  C_4
REMARK    5  A    between atoms: N_17  and  C_18
REMARK                            x       y       z     vdW  Elec       q    Type
REMARK                         _______ _______ _______ _____ _____    ______ ____
ROOT
ATOM      1  C   UNL     1       1.797   4.856  19.426  0.00  0.00    +0.000 C 
ATOM      2  C   UNL     1       2.833   5.986  19.417  0.00  0.00    +0.000 C 
ENDROOT
BRANCH   2   3
ATOM      3  C   UNL     1       2.150   7.294  19.690  0.00  0.00    +0.000 A 
ATOM      4  C   UNL     1       1.594   7.811  20.840  0.00  0.00    +0.000 A 
ATOM      5  N   UNL     1       1.057   9.021  20.463  0.00  0.00    +0.000 N 
ATOM      6  N   UNL     1       1.347   9.254  19.160  0.00  0.00    +0.000 NA
ATOM      7  N   UNL     1       1.996   8.205  18.679  0.00  0.00    +0.000 NA
BRANCH   5   8
ATOM      8  C   UNL     1       0.275   9.926  21.225  0.00  0.00    +0.000 A 
ATOM      9  C   UNL     1      -0.249   9.552  22.471  0.00  0.00    +0.000 A 
ATOM     10  C   UNL     1      -1.058  10.443  23.184  0.00  0.00    +0.000 A 
ATOM     11  C   UNL     1      -1.346  11.700  22.658  0.00  0.00    +0.000 A 
ATOM     12 CL   UNL     1      -2.362  12.778  23.533  0.00  0.00    +0.000 Cl
ATOM     13  C   UNL     1      -0.821  12.088  21.427  0.00  0.00    +0.000 A 
ATOM     14  C   UNL     1      -0.009  11.203  20.711  0.00  0.00    +0.000 A 
ENDBRANCH   5   8
ENDBRANCH   2   3
BRANCH   2  15
ATOM     15  O   UNL     1       3.538   6.013  18.153  0.00  0.00    +0.000 OA
BRANCH  15  16
ATOM     16  C   UNL     1       4.835   5.548  18.122  0.00  0.00    +0.000 A 
ATOM     17  C   UNL     1       5.637   5.482  19.260  0.00  0.00    +0.000 A 
ATOM     18  C   UNL     1       6.935   4.998  19.173  0.00  0.00    +0.000 A 
ATOM     19  N   UNL     1       7.475   4.563  17.982  0.00  0.00    +0.000 N 
ATOM     20  O   UNL     1       8.679   4.143  17.971  0.00  0.00    +0.000 OA
ATOM     21  C   UNL     1       6.680   4.592  16.819  0.00  0.00    +0.000 A 
ATOM     22  C   UNL     1       7.213   4.134  15.593  0.00  0.00    +0.000 A 
ATOM     23  C   UNL     1       6.449   4.135  14.429  0.00  0.00    +0.000 A 
ATOM     24  C   UNL     1       5.144   4.607  14.474  0.00  0.00    +0.000 A 
ATOM     25  C   UNL     1       4.598   5.074  15.679  0.00  0.00    +0.000 A 
ATOM     26  C   UNL     1       5.341   5.080  16.880  0.00  0.00    +0.000 A 
ENDBRANCH  15  16
ENDBRANCH   2  15
TORSDOF 4
ENDMDL
MODEL 5
REMARK VINA RESULT:      -7.9      0.987      2.241
REMARK  Name = 
REMARK  5 active torsions:
REMARK  status: ('A' for Active; 'I' for Inactive)
REMARK    1  A    between atoms: C_1  and  C_2
REMARK    2  A    between atoms: C_2  and  O_3
REMARK    3  A    between atoms: C_2  and  C_15
REMARK    4  A    between atoms: O_3  and  C_4
REMARK    5  A    between atoms: N_17  and  C_18
REMARK                            x       y       z     vdW  Elec       q    Type
REMARK                         _______ _______ _______ _____ _____    ______ ____
ROOT
ATOM      1  C   UNL     1       1.296   9.077  22.215  0.00  0.00    +0.000 C 
ATOM      2  C   UNL     1       0.823   8.837  20.776  0.00  0.00    +0.000 C 
ENDROOT
BRANCH   2   3
ATOM      3  C   UNL     1       1.671   7.774  20.142  0.00  0.00    +0.000 A 
ATOM      4  C   UNL     1       2.414   7.771  18.981  0.00  0.00    +0.000 A 
ATOM      5  N   UNL     1       2.921   6.495  18.886  0.00  0.00    +0.000 N 
ATOM      6  N   UNL     1       2.562   5.787  19.984  0.00  0.00    +0.000 NA
ATOM      7  N   UNL     1       1.791   6.550  20.744  0.00  0.00    +0.000 NA
BRANCH   5   8
ATOM      8  C   UNL     1       3.670   5.908  17.834  0.00  0.00    +0.000 A 
ATOM      9  C   UNL     1       3.622   4.527  17.601  0.00  0.00    +0.000 A 
ATOM     10  C   UNL     1       4.406   3.961  16.590  0.00  0.00    +0.000 A 
ATOM     11  C   UNL     1       5.235   4.767  15.815  0.00  0.00    +0.000 A 
ATOM     12 CL   UNL     1       6.213   4.058  14.591  0.00  0.00    +0.000 Cl
ATOM     13  C   UNL     1       5.282   6.144  16.029  0.00  0.00    +0.000 A 
ATOM     14  C   UNL     1       4.498   6.715  17.037  0.00  0.00    +0.000 A 
ENDBRANCH   5   8
ENDBRANCH   2   3
BRANCH   2  15
ATOM     15  O   UNL     1       0.867  10.069  20.019  0.00  0.00    +0.000 OA
BRANCH  15  16
ATOM     16  C   UNL     1      -0.270  10.459  19.345  0.00  0.00    +0.000 A 
ATOM     17  C   UNL     1      -0.589   9.987  18.073  0.00  0.00    +0.000 A 
ATOM     18  C   UNL     1      -1.753  10.407  17.442  0.00  0.00    +0.000 A 
ATOM     19  N   UNL     1      -2.630  11.287  18.039  0.00  0.00    +0.000 N 
ATOM     20  O   UNL     1      -3.674  11.643  17.398  0.00  0.00    +0.000 OA
ATOM     21  C   UNL     1      -2.350  11.760  19.336  0.00  0.00    +0.000 A 
ATOM     22  C   UNL     1      -3.248  12.650  19.968  0.00  0.00    +0.000 A 
ATOM     23  C   UNL     1      -3.007  13.124  21.255  0.00  0.00    +0.000 A 
ATOM     24  C   UNL     1      -1.857  12.724  21.922  0.00  0.00    +0.000 A 
ATOM     25  C   UNL     1      -0.947  11.848  21.310  0.00  0.00    +0.000 A 
ATOM     26  C   UNL     1      -1.164  11.341  20.009  0.00  0.00    +0.000 A 
ENDBRANCH  15  16
ENDBRANCH   2  15
TORSDOF 4
ENDMDL
MODEL 6
REMARK VINA RESULT:      -7.9      0.468      1.053
REMARK  Name = 
REMARK  5 active torsions:
REMARK  status: ('A' for Active; 'I' for Inactive)
REMARK    1  A    between atoms: C_1  and  C_2
REMARK    2  A    between atoms: C_2  and  O_3
REMARK    3  A    between atoms: C_2  and  C_15
REMARK    4  A    between atoms: O_3  and  C_4
REMARK    5  A    between atoms: N_17  and  C_18
REMARK                            x       y       z     vdW  Elec       q    Type
REMARK                         _______ _______ _______ _____ _____    ______ ____
ROOT
ATOM      1  C   UNL     1       1.203   8.772  21.865  0.00  0.00    +0.000 C 
ATOM      2  C   UNL     1       0.872   8.558  20.383  0.00  0.00    +0.000 C 
ENDROOT
BRANCH   2   3
ATOM      3  C   UNL     1       1.842   7.579  19.791  0.00  0.00    +0.000 A 
ATOM      4  C   UNL     1       2.535   7.586  18.600  0.00  0.00    +0.000 A 
ATOM      5  N   UNL     1       3.219   6.392  18.577  0.00  0.00    +0.000 N 
ATOM      6  N   UNL     1       3.005   5.731  19.741  0.00  0.00    +0.000 NA
ATOM      7  N   UNL     1       2.159   6.436  20.477  0.00  0.00    +0.000 NA
BRANCH   5   8
ATOM      8  C   UNL     1       4.006   5.833  17.538  0.00  0.00    +0.000 A 
ATOM      9  C   UNL     1       4.690   6.656  16.633  0.00  0.00    +0.000 A 
ATOM     10  C   UNL     1       5.422   6.086  15.585  0.00  0.00    +0.000 A 
ATOM     11  C   UNL     1       5.471   4.702  15.440  0.00  0.00    +0.000 A 
ATOM     12 CL   UNL     1       6.353   4.012  14.135  0.00  0.00    +0.000 Cl
ATOM     13  C   UNL     1       4.806   3.873  16.342  0.00  0.00    +0.000 A 
ATOM     14  C   UNL     1       4.075   4.437  17.393  0.00  0.00    +0.000 A 
ENDBRANCH   5   8
ENDBRANCH   2   3
BRANCH   2  15
ATOM     15  O   UNL     1       0.897   9.819  19.674  0.00  0.00    +0.000 OA
BRANCH  15  16
ATOM     16  C   UNL     1      -0.181  10.666  19.817  0.00  0.00    +0.000 A 
ATOM     17  C   UNL     1      -0.301  11.557  20.882  0.00  0.00    +0.000 A 
ATOM     18  C   UNL     1      -1.406  12.393  20.973  0.00  0.00    +0.000 A 
ATOM     19  N   UNL     1      -2.410  12.383  20.028  0.00  0.00    +0.000 N 
ATOM     20  O   UNL     1      -3.404  13.168  20.180  0.00  0.00    +0.000 OA
ATOM     21  C   UNL     1      -2.303  11.513  18.925  0.00  0.00    +0.000 A 
ATOM     22  C   UNL     1      -3.315  11.504  17.939  0.00  0.00    +0.000 A 
ATOM     23  C   UNL     1      -3.233  10.667  16.829  0.00  0.00    +0.000 A 
ATOM     24  C   UNL     1      -2.141   9.818  16.698  0.00  0.00    +0.000 A 
ATOM     25  C   UNL     1      -1.130   9.806  17.670  0.00  0.00    +0.000 A 
ATOM     26  C   UNL     1      -1.177  10.647  18.804  0.00  0.00    +0.000 A 
ENDBRANCH  15  16
ENDBRANCH   2  15
TORSDOF 4
ENDMDL
MODEL 7
REMARK VINA RESULT:      -7.7      0.825      1.296
REMARK  Name = 
REMARK  5 active torsions:
REMARK  status: ('A' for Active; 'I' for Inactive)
REMARK    1  A    between atoms: C_1  and  C_2
REMARK    2  A    between atoms: C_2  and  O_3
REMARK    3  A    between atoms: C_2  and  C_15
REMARK    4  A    between atoms: O_3  and  C_4
REMARK    5  A    between atoms: N_17  and  C_18
REMARK                            x       y       z     vdW  Elec       q    Type
REMARK                         _______ _______ _______ _____ _____    ______ ____
ROOT
ATOM      1  C   UNL     1       0.985  10.383  21.610  0.00  0.00    +0.000 C 
ATOM      2  C   UNL     1       0.324   9.592  20.474  0.00  0.00    +0.000 C 
ENDROOT
BRANCH   2   3
ATOM      3  C   UNL     1       1.237   8.484  20.041  0.00  0.00    +0.000 A 
ATOM      4  C   UNL     1       2.015   8.330  18.913  0.00  0.00    +0.000 A 
ATOM      5  N   UNL     1       2.579   7.081  19.038  0.00  0.00    +0.000 N 
ATOM      6  N   UNL     1       2.216   6.541  20.227  0.00  0.00    +0.000 NA
ATOM      7  N   UNL     1       1.390   7.379  20.835  0.00  0.00    +0.000 NA
BRANCH   5   8
ATOM      8  C   UNL     1       3.385   6.368  18.113  0.00  0.00    +0.000 A 
ATOM      9  C   UNL     1       4.279   7.043  17.270  0.00  0.00    +0.000 A 
ATOM     10  C   UNL     1       5.029   6.327  16.331  0.00  0.00    +0.000 A 
ATOM     11  C   UNL     1       4.888   4.945  16.230  0.00  0.00    +0.000 A 
ATOM     12 CL   UNL     1       5.796   4.079  15.055  0.00  0.00    +0.000 Cl
ATOM     13  C   UNL     1       4.011   4.262  17.071  0.00  0.00    +0.000 A 
ATOM     14  C   UNL     1       3.261   4.972  18.014  0.00  0.00    +0.000 A 
ENDBRANCH   5   8
ENDBRANCH   2   3
BRANCH   2  15
ATOM     15  O   UNL     1      -0.000  10.471  19.371  0.00  0.00    +0.000 OA
BRANCH  15  16
ATOM     16  C   UNL     1      -1.241  11.072  19.362  0.00  0.00    +0.000 A 
ATOM     17  C   UNL     1      -1.675  11.915  20.383  0.00  0.00    +0.000 A 
ATOM     18  C   UNL     1      -2.933  12.500  20.320  0.00  0.00    +0.000 A 
ATOM     19  N   UNL     1      -3.788  12.281  19.261  0.00  0.00    +0.000 N 
ATOM     20  O   UNL     1      -4.935  12.839  19.273  0.00  0.00    +0.000 OA
ATOM     21  C   UNL     1      -3.367  11.455  18.200  0.00  0.00    +0.000 A 
ATOM     22  C   UNL     1      -4.225  11.235  17.099  0.00  0.00    +0.000 A 
ATOM     23  C   UNL     1      -3.833  10.437  16.027  0.00  0.00    +0.000 A 
ATOM     24  C   UNL     1      -2.580   9.837  16.050  0.00  0.00    +0.000 A 
ATOM     25  C   UNL     1      -1.716  10.036  17.137  0.00  0.00    +0.000 A 
ATOM     26  C   UNL     1      -2.077  10.846  18.237  0.00  0.00    +0.000 A 
ENDBRANCH  15  16
ENDBRANCH   2  15
TORSDOF 4
ENDMDL
MODEL 8
REMARK VINA RESULT:      -7.6      6.000      8.532
REMARK  Name = 
REMARK  5 active torsions:
REMARK  status: ('A' for Active; 'I' for Inactive)
REMARK    1  A    between atoms: C_1  and  C_2
REMARK    2  A    between atoms: C_2  and  O_3
REMARK    3  A    between atoms: C_2  and  C_15
REMARK    4  A    between atoms: O_3  and  C_4
REMARK    5  A    between atoms: N_17  and  C_18
REMARK                            x       y       z     vdW  Elec       q    Type
REMARK                         _______ _______ _______ _____ _____    ______ ____
ROOT
ATOM      1  C   UNL     1       6.681   5.182  19.421  0.00  0.00    +0.000 C 
ATOM      2  C   UNL     1       6.660   5.691  17.975  0.00  0.00    +0.000 C 
ENDROOT
BRANCH   2   3
ATOM      3  C   UNL     1       7.281   7.056  17.916  0.00  0.00    +0.000 A 
ATOM      4  C   UNL     1       8.258   7.648  18.686  0.00  0.00    +0.000 A 
ATOM      5  N   UNL     1       8.364   8.932  18.202  0.00  0.00    +0.000 N 
ATOM      6  N   UNL     1       7.540   9.079  17.137  0.00  0.00    +0.000 NA
ATOM      7  N   UNL     1       6.867   7.951  16.965  0.00  0.00    +0.000 NA
BRANCH   5   8
ATOM      8  C   UNL     1       9.143  10.011  18.694  0.00  0.00    +0.000 A 
ATOM      9  C   UNL     1       9.221  10.273  20.069  0.00  0.00    +0.000 A 
ATOM     10  C   UNL     1       9.956  11.371  20.529  0.00  0.00    +0.000 A 
ATOM     11  C   UNL     1      10.609  12.204  19.625  0.00  0.00    +0.000 A 
ATOM     12 CL   UNL     1      11.489  13.565  20.202  0.00  0.00    +0.000 Cl
ATOM     13  C   UNL     1      10.549  11.946  18.257  0.00  0.00    +0.000 A 
ATOM     14  C   UNL     1       9.819  10.848  17.790  0.00  0.00    +0.000 A 
ENDBRANCH   5   8
ENDBRANCH   2   3
BRANCH   2  15
ATOM     15  O   UNL     1       5.306   5.705  17.465  0.00  0.00    +0.000 OA
BRANCH  15  16
ATOM     16  C   UNL     1       4.453   4.696  17.857  0.00  0.00    +0.000 A 
ATOM     17  C   UNL     1       4.596   3.380  17.422  0.00  0.00    +0.000 A 
ATOM     18  C   UNL     1       3.712   2.400  17.855  0.00  0.00    +0.000 A 
ATOM     19  N   UNL     1       2.678   2.681  18.723  0.00  0.00    +0.000 N 
ATOM     20  O   UNL     1       1.894   1.736  19.070  0.00  0.00    +0.000 OA
ATOM     21  C   UNL     1       2.524   3.997  19.202  0.00  0.00    +0.000 A 
ATOM     22  C   UNL     1       1.480   4.297  20.106  0.00  0.00    +0.000 A 
ATOM     23  C   UNL     1       1.310   5.584  20.610  0.00  0.00    +0.000 A 
ATOM     24  C   UNL     1       2.176   6.592  20.205  0.00  0.00    +0.000 A 
ATOM     25  C   UNL     1       3.214   6.317  19.302  0.00  0.00    +0.000 A 
ATOM     26  C   UNL     1       3.421   5.022  18.778  0.00  0.00    +0.000 A 
ENDBRANCH  15  16
ENDBRANCH   2  15
TORSDOF 4
ENDMDL
MODEL 9
REMARK VINA RESULT:      -7.6      3.956      8.329
REMARK  Name = 
REMARK  5 active torsions:
REMARK  status: ('A' for Active; 'I' for Inactive)
REMARK    1  A    between atoms: C_1  and  C_2
REMARK    2  A    between atoms: C_2  and  O_3
REMARK    3  A    between atoms: C_2  and  C_15
REMARK    4  A    between atoms: O_3  and  C_4
REMARK    5  A    between atoms: N_17  and  C_18
REMARK                            x       y       z     vdW  Elec       q    Type
REMARK                         _______ _______ _______ _____ _____    ______ ____
ROOT
ATOM      1  C   UNL     1       1.443   9.153  22.163  0.00  0.00    +0.000 C 
ATOM      2  C   UNL     1       1.640   8.650  20.729  0.00  0.00    +0.000 C 
ENDROOT
BRANCH   2   3
ATOM      3  C   UNL     1       0.674   9.347  19.817  0.00  0.00    +0.000 A 
ATOM      4  C   UNL     1      -0.591   9.847  20.037  0.00  0.00    +0.000 A 
ATOM      5  N   UNL     1      -1.008  10.315  18.811  0.00  0.00    +0.000 N 
ATOM      6  N   UNL     1      -0.004  10.173  17.912  0.00  0.00    +0.000 NA
ATOM      7  N   UNL     1       1.015   9.573  18.510  0.00  0.00    +0.000 NA
BRANCH   5   8
ATOM      8  C   UNL     1      -2.273  10.837  18.437  0.00  0.00    +0.000 A 
ATOM      9  C   UNL     1      -2.940  11.759  19.256  0.00  0.00    +0.000 A 
ATOM     10  C   UNL     1      -4.209  12.224  18.893  0.00  0.00    +0.000 A 
ATOM     11  C   UNL     1      -4.810  11.773  17.721  0.00  0.00    +0.000 A 
ATOM     12 CL   UNL     1      -6.380  12.333  17.298  0.00  0.00    +0.000 Cl
ATOM     13  C   UNL     1      -4.151  10.866  16.893  0.00  0.00    +0.000 A 
ATOM     14  C   UNL     1      -2.881  10.400  17.249  0.00  0.00    +0.000 A 
ENDBRANCH   5   8
ENDBRANCH   2   3
BRANCH   2  15
ATOM     15  O   UNL     1       1.474   7.213  20.672  0.00  0.00    +0.000 OA
BRANCH  15  16
ATOM     16  C   UNL     1       2.187   6.514  19.721  0.00  0.00    +0.000 A 
ATOM     17  C   UNL     1       3.102   7.127  18.867  0.00  0.00    +0.000 A 
ATOM     18  C   UNL     1       3.799   6.373  17.931  0.00  0.00    +0.000 A 
ATOM     19  N   UNL     1       3.623   5.011  17.814  0.00  0.00    +0.000 N 
ATOM     20  O   UNL     1       4.285   4.382  16.923  0.00  0.00    +0.000 OA
ATOM     21  C   UNL     1       2.725   4.358  18.681  0.00  0.00    +0.000 A 
ATOM     22  C   UNL     1       2.546   2.960  18.584  0.00  0.00    +0.000 A 
ATOM     23  C   UNL     1       1.678   2.283  19.436  0.00  0.00    +0.000 A 
ATOM     24  C   UNL     1       0.965   2.999  20.390  0.00  0.00    +0.000 A 
ATOM     25  C   UNL     1       1.121   4.390  20.497  0.00  0.00    +0.000 A 
ATOM     26  C   UNL     1       2.000   5.108  19.655  0.00  0.00    +0.000 A 
ENDBRANCH  15  16
ENDBRANCH   2  15
TORSDOF 4
ENDMDL
