MODEL 1
REMARK VINA RESULT:      -8.1      0.000      0.000
REMARK  Name = 
REMARK  6 active torsions:
REMARK  status: ('A' for Active; 'I' for Inactive)
REMARK    1  A    between atoms: C_1  and  S_2
REMARK    2  A    between atoms: S_2  and  C_3
REMARK    3  A    between atoms: C_8  and  C_9
REMARK    4  A    between atoms: N_11  and  C_12
REMARK    5  A    between atoms: C_16  and  S_17
REMARK    6  A    between atoms: S_17  and  N_20
REMARK                            x       y       z     vdW  Elec       q    Type
REMARK                         _______ _______ _______ _____ _____    ______ ____
ROOT
ATOM      1  C   UNL     1       1.800   5.749  20.572  0.00  0.00    +0.000 A 
ATOM      2  C   UNL     1       1.134   4.519  20.581  0.00  0.00    +0.000 A 
ATOM      3  C   UNL     1       1.735   3.363  20.069  0.00  0.00    +0.000 A 
ATOM      4  C   UNL     1       3.025   3.412  19.550  0.00  0.00    +0.000 A 
ATOM      5  C   UNL     1       3.696   4.635  19.525  0.00  0.00    +0.000 A 
ATOM      6  C   UNL     1       3.081   5.808  20.004  0.00  0.00    +0.000 A 
ENDROOT
BRANCH   1   9
ATOM      7  C   UNL     1       1.261   8.194  20.505  0.00  0.00    +0.000 C 
ATOM      8  O   UNL     1       1.779   8.414  19.412  0.00  0.00    +0.000 OA
ATOM      9  N   UNL     1       1.238   6.941  21.105  0.00  0.00    +0.000 N 
ATOM     10  H   UNL     1       0.701   6.841  21.960  0.00  0.00    +0.000 HD
BRANCH   7  16
ATOM     11  C   UNL     1       0.431  10.654  20.688  0.00  0.00    +0.000 A 
ATOM     12  N   UNL     1      -0.210  11.633  21.392  0.00  0.00    +0.000 NA
ATOM     13  C   UNL     1      -0.688  11.343  22.619  0.00  0.00    +0.000 A 
ATOM     14  C   UNL     1      -0.549  10.107  23.207  0.00  0.00    +0.000 A 
ATOM     15  C   UNL     1       0.091   9.112  22.472  0.00  0.00    +0.000 A 
ATOM     16  C   UNL     1       0.592   9.357  21.177  0.00  0.00    +0.000 A 
BRANCH  11  18
ATOM     17  C   UNL     1      -0.340  12.296  18.673  0.00  0.00    +0.000 C 
ATOM     18  S   UNL     1       1.063  11.244  19.127  0.00  0.00    +0.000 S 
ENDBRANCH  11  18
ENDBRANCH   7  16
ENDBRANCH   1   9
BRANCH   5  19
ATOM     19  S   UNL     1       5.323   4.709  18.813  0.00  0.00    +0.000 S 
ATOM     20  O   UNL     1       6.121   5.565  19.664  0.00  0.00    +0.000 OA
ATOM     21  O   UNL     1       5.739   3.350  18.539  0.00  0.00    +0.000 OA
BRANCH  19  22
ATOM     22  N   UNL     1       5.126   5.514  17.312  0.00  0.00    +0.000 NA
ATOM     23  C   UNL     1       5.447   4.761  16.061  0.00  0.00    +0.000 C 
ATOM     24  C   UNL     1       6.959   4.667  15.820  0.00  0.00    +0.000 C 
ATOM     25  O   UNL     1       7.575   5.963  15.798  0.00  0.00    +0.000 OA
ATOM     26  C   UNL     1       7.319   6.694  17.008  0.00  0.00    +0.000 C 
ATOM     27  C   UNL     1       5.813   6.855  17.247  0.00  0.00    +0.000 C 
ENDBRANCH  19  22
ENDBRANCH   5  19
TORSDOF 5
ENDMDL
MODEL 2
REMARK VINA RESULT:      -8.0      1.302      2.064
REMARK  Name = 
REMARK  6 active torsions:
REMARK  status: ('A' for Active; 'I' for Inactive)
REMARK    1  A    between atoms: C_1  and  S_2
REMARK    2  A    between atoms: S_2  and  C_3
REMARK    3  A    between atoms: C_8  and  C_9
REMARK    4  A    between atoms: N_11  and  C_12
REMARK    5  A    between atoms: C_16  and  S_17
REMARK    6  A    between atoms: S_17  and  N_20
REMARK                            x       y       z     vdW  Elec       q    Type
REMARK                         _______ _______ _______ _____ _____    ______ ____
ROOT
ATOM      1  C   UNL     1       2.124   6.377  20.109  0.00  0.00    +0.000 A 
ATOM      2  C   UNL     1       1.355   5.343  20.653  0.00  0.00    +0.000 A 
ATOM      3  C   UNL     1       1.653   4.001  20.390  0.00  0.00    +0.000 A 
ATOM      4  C   UNL     1       2.738   3.665  19.586  0.00  0.00    +0.000 A 
ATOM      5  C   UNL     1       3.506   4.687  19.028  0.00  0.00    +0.000 A 
ATOM      6  C   UNL     1       3.188   6.040  19.260  0.00  0.00    +0.000 A 
ENDROOT
BRANCH   1   9
ATOM      7  C   UNL     1       1.485   8.703  19.437  0.00  0.00    +0.000 C 
ATOM      8  O   UNL     1       1.301   8.453  18.248  0.00  0.00    +0.000 OA
ATOM      9  N   UNL     1       1.875   7.752  20.372  0.00  0.00    +0.000 N 
ATOM     10  H   UNL     1       1.903   8.035  21.345  0.00  0.00    +0.000 HD
BRANCH   7  16
ATOM     11  C   UNL     1       0.730  10.557  21.102  0.00  0.00    +0.000 A 
ATOM     12  N   UNL     1       0.542  11.879  21.389  0.00  0.00    +0.000 NA
ATOM     13  C   UNL     1       0.825  12.795  20.441  0.00  0.00    +0.000 A 
ATOM     14  C   UNL     1       1.280  12.462  19.186  0.00  0.00    +0.000 A 
ATOM     15  C   UNL     1       1.484  11.112  18.911  0.00  0.00    +0.000 A 
ATOM     16  C   UNL     1       1.224  10.115  19.873  0.00  0.00    +0.000 A 
BRANCH  11  18
ATOM     17  C   UNL     1      -1.034  10.578  23.161  0.00  0.00    +0.000 C 
ATOM     18  S   UNL     1       0.228   9.493  22.444  0.00  0.00    +0.000 S 
ENDBRANCH  11  18
ENDBRANCH   7  16
ENDBRANCH   1   9
BRANCH   5  19
ATOM     19  S   UNL     1       4.860   4.261  17.959  0.00  0.00    +0.000 S 
ATOM     20  O   UNL     1       6.062   4.278  18.766  0.00  0.00    +0.000 OA
ATOM     21  O   UNL     1       4.479   3.069  17.231  0.00  0.00    +0.000 OA
BRANCH  19  22
ATOM     22  N   UNL     1       4.977   5.551  16.836  0.00  0.00    +0.000 NA
ATOM     23  C   UNL     1       5.365   5.227  15.429  0.00  0.00    +0.000 C 
ATOM     24  C   UNL     1       6.870   4.966  15.295  0.00  0.00    +0.000 C 
ATOM     25  O   UNL     1       7.647   6.067  15.790  0.00  0.00    +0.000 OA
ATOM     26  C   UNL     1       7.325   6.373  17.156  0.00  0.00    +0.000 C 
ATOM     27  C   UNL     1       5.834   6.696  17.313  0.00  0.00    +0.000 C 
ENDBRANCH  19  22
ENDBRANCH   5  19
TORSDOF 5
ENDMDL
MODEL 3
REMARK VINA RESULT:      -8.0      2.044      2.639
REMARK  Name = 
REMARK  6 active torsions:
REMARK  status: ('A' for Active; 'I' for Inactive)
REMARK    1  A    between atoms: C_1  and  S_2
REMARK    2  A    between atoms: S_2  and  C_3
REMARK    3  A    between atoms: C_8  and  C_9
REMARK    4  A    between atoms: N_11  and  C_12
REMARK    5  A    between atoms: C_16  and  S_17
REMARK    6  A    between atoms: S_17  and  N_20
REMARK                            x       y       z     vdW  Elec       q    Type
REMARK                         _______ _______ _______ _____ _____    ______ ____
ROOT
ATOM      1  C   UNL     1       2.048   7.118  19.868  0.00  0.00    +0.000 A 
ATOM      2  C   UNL     1       1.291   6.329  20.741  0.00  0.00    +0.000 A 
ATOM      3  C   UNL     1       1.543   4.960  20.887  0.00  0.00    +0.000 A 
ATOM      4  C   UNL     1       2.570   4.354  20.170  0.00  0.00    +0.000 A 
ATOM      5  C   UNL     1       3.325   5.126  19.288  0.00  0.00    +0.000 A 
ATOM      6  C   UNL     1       3.051   6.497  19.110  0.00  0.00    +0.000 A 
ENDROOT
BRANCH   1   9
ATOM      7  C   UNL     1       1.563   9.169  18.516  0.00  0.00    +0.000 C 
ATOM      8  O   UNL     1       1.450   8.593  17.436  0.00  0.00    +0.000 OA
ATOM      9  N   UNL     1       1.844   8.515  19.710  0.00  0.00    +0.000 N 
ATOM     10  H   UNL     1       1.819   9.065  20.562  0.00  0.00    +0.000 HD
BRANCH   7  16
ATOM     11  C   UNL     1       0.149  11.341  18.757  0.00  0.00    +0.000 A 
ATOM     12  N   UNL     1       0.069  12.704  18.735  0.00  0.00    +0.000 NA
ATOM     13  C   UNL     1       1.176  13.415  18.444  0.00  0.00    +0.000 A 
ATOM     14  C   UNL     1       2.388  12.833  18.150  0.00  0.00    +0.000 A 
ATOM     15  C   UNL     1       2.461  11.443  18.192  0.00  0.00    +0.000 A 
ATOM     16  C   UNL     1       1.338  10.653  18.512  0.00  0.00    +0.000 A 
BRANCH  11  18
ATOM     17  C   UNL     1      -1.837  10.118  17.376  0.00  0.00    +0.000 C 
ATOM     18  S   UNL     1      -1.428  10.573  19.082  0.00  0.00    +0.000 S 
ENDBRANCH  11  18
ENDBRANCH   7  16
ENDBRANCH   1   9
BRANCH   5  19
ATOM     19  S   UNL     1       4.602   4.342  18.332  0.00  0.00    +0.000 S 
ATOM     20  O   UNL     1       5.478   3.667  19.267  0.00  0.00    +0.000 OA
ATOM     21  O   UNL     1       3.956   3.605  17.267  0.00  0.00    +0.000 OA
BRANCH  19  22
ATOM     22  N   UNL     1       5.493   5.623  17.625  0.00  0.00    +0.000 NA
ATOM     23  C   UNL     1       5.361   5.844  16.152  0.00  0.00    +0.000 C 
ATOM     24  C   UNL     1       6.172   4.825  15.344  0.00  0.00    +0.000 C 
ATOM     25  O   UNL     1       7.555   4.822  15.728  0.00  0.00    +0.000 OA
ATOM     26  C   UNL     1       7.715   4.568  17.133  0.00  0.00    +0.000 C 
ATOM     27  C   UNL     1       6.960   5.607  17.971  0.00  0.00    +0.000 C 
ENDBRANCH  19  22
ENDBRANCH   5  19
TORSDOF 5
ENDMDL
MODEL 4
REMARK VINA RESULT:      -7.8      1.994      2.393
REMARK  Name = 
REMARK  6 active torsions:
REMARK  status: ('A' for Active; 'I' for Inactive)
REMARK    1  A    between atoms: C_1  and  S_2
REMARK    2  A    between atoms: S_2  and  C_3
REMARK    3  A    between atoms: C_8  and  C_9
REMARK    4  A    between atoms: N_11  and  C_12
REMARK    5  A    between atoms: C_16  and  S_17
REMARK    6  A    between atoms: S_17  and  N_20
REMARK                            x       y       z     vdW  Elec       q    Type
REMARK                         _______ _______ _______ _____ _____    ______ ____
ROOT
ATOM      1  C   UNL     1       1.908   7.287  20.007  0.00  0.00    +0.000 A 
ATOM      2  C   UNL     1       1.176   6.368  20.766  0.00  0.00    +0.000 A 
ATOM      3  C   UNL     1       1.610   5.046  20.921  0.00  0.00    +0.000 A 
ATOM      4  C   UNL     1       2.795   4.620  20.328  0.00  0.00    +0.000 A 
ATOM      5  C   UNL     1       3.527   5.524  19.559  0.00  0.00    +0.000 A 
ATOM      6  C   UNL     1       3.076   6.845  19.370  0.00  0.00    +0.000 A 
ENDROOT
BRANCH   1   9
ATOM      7  C   UNL     1       1.290   9.291  18.638  0.00  0.00    +0.000 C 
ATOM      8  O   UNL     1       1.394   8.741  17.543  0.00  0.00    +0.000 OA
ATOM      9  N   UNL     1       1.519   8.645  19.846  0.00  0.00    +0.000 N 
ATOM     10  H   UNL     1       1.310   9.156  20.697  0.00  0.00    +0.000 HD
BRANCH   7  16
ATOM     11  C   UNL     1      -0.443  11.225  18.455  0.00  0.00    +0.000 A 
ATOM     12  N   UNL     1      -0.726  12.561  18.476  0.00  0.00    +0.000 NA
ATOM     13  C   UNL     1       0.285  13.435  18.650  0.00  0.00    +0.000 A 
ATOM     14  C   UNL     1       1.598  13.048  18.793  0.00  0.00    +0.000 A 
ATOM     15  C   UNL     1       1.871  11.682  18.786  0.00  0.00    +0.000 A 
ATOM     16  C   UNL     1       0.849  10.725  18.628  0.00  0.00    +0.000 A 
BRANCH  11  18
ATOM     17  C   UNL     1      -3.133  11.535  18.320  0.00  0.00    +0.000 C 
ATOM     18  S   UNL     1      -1.890  10.230  18.135  0.00  0.00    +0.000 S 
ENDBRANCH  11  18
ENDBRANCH   7  16
ENDBRANCH   1   9
BRANCH   5  19
ATOM     19  S   UNL     1       5.013   4.967  18.759  0.00  0.00    +0.000 S 
ATOM     20  O   UNL     1       6.128   5.485  19.523  0.00  0.00    +0.000 OA
ATOM     21  O   UNL     1       4.875   3.544  18.530  0.00  0.00    +0.000 OA
BRANCH  19  22
ATOM     22  N   UNL     1       5.028   5.749  17.233  0.00  0.00    +0.000 NA
ATOM     23  C   UNL     1       5.283   4.916  16.018  0.00  0.00    +0.000 C 
ATOM     24  C   UNL     1       6.769   4.569  15.862  0.00  0.00    +0.000 C 
ATOM     25  O   UNL     1       7.591   5.745  15.846  0.00  0.00    +0.000 OA
ATOM     26  C   UNL     1       7.398   6.544  17.024  0.00  0.00    +0.000 C 
ATOM     27  C   UNL     1       5.928   6.956  17.178  0.00  0.00    +0.000 C 
ENDBRANCH  19  22
ENDBRANCH   5  19
TORSDOF 5
ENDMDL
MODEL 5
REMARK VINA RESULT:      -7.7      1.361      2.062
REMARK  Name = 
REMARK  6 active torsions:
REMARK  status: ('A' for Active; 'I' for Inactive)
REMARK    1  A    between atoms: C_1  and  S_2
REMARK    2  A    between atoms: S_2  and  C_3
REMARK    3  A    between atoms: C_8  and  C_9
REMARK    4  A    between atoms: N_11  and  C_12
REMARK    5  A    between atoms: C_16  and  S_17
REMARK    6  A    between atoms: S_17  and  N_20
REMARK                            x       y       z     vdW  Elec       q    Type
REMARK                         _______ _______ _______ _____ _____    ______ ____
ROOT
ATOM      1  C   UNL     1       1.882   6.702  20.151  0.00  0.00    +0.000 A 
ATOM      2  C   UNL     1       1.270   5.694  20.903  0.00  0.00    +0.000 A 
ATOM      3  C   UNL     1       1.862   4.434  21.048  0.00  0.00    +0.000 A 
ATOM      4  C   UNL     1       3.091   4.162  20.453  0.00  0.00    +0.000 A 
ATOM      5  C   UNL     1       3.706   5.155  19.692  0.00  0.00    +0.000 A 
ATOM      6  C   UNL     1       3.096   6.412  19.513  0.00  0.00    +0.000 A 
ENDROOT
BRANCH   1   9
ATOM      7  C   UNL     1       1.206   8.958  21.002  0.00  0.00    +0.000 C 
ATOM      8  O   UNL     1       1.578   8.780  22.160  0.00  0.00    +0.000 OA
ATOM      9  N   UNL     1       1.330   8.003  20.001  0.00  0.00    +0.000 N 
ATOM     10  H   UNL     1       1.085   8.280  19.056  0.00  0.00    +0.000 HD
BRANCH   7  16
ATOM     11  C   UNL     1      -0.243  11.073  21.455  0.00  0.00    +0.000 A 
ATOM     12  N   UNL     1      -0.693  12.300  21.060  0.00  0.00    +0.000 NA
ATOM     13  C   UNL     1      -0.298  12.783  19.866  0.00  0.00    +0.000 A 
ATOM     14  C   UNL     1       0.530  12.092  19.012  0.00  0.00    +0.000 A 
ATOM     15  C   UNL     1       0.997  10.849  19.433  0.00  0.00    +0.000 A 
ATOM     16  C   UNL     1       0.631  10.306  20.682  0.00  0.00    +0.000 A 
BRANCH  11  18
ATOM     17  C   UNL     1      -2.199  11.857  23.160  0.00  0.00    +0.000 C 
ATOM     18  S   UNL     1      -0.933  10.567  23.021  0.00  0.00    +0.000 S 
ENDBRANCH  11  18
ENDBRANCH   7  16
ENDBRANCH   1   9
BRANCH   5  19
ATOM     19  S   UNL     1       5.250   4.791  18.888  0.00  0.00    +0.000 S 
ATOM     20  O   UNL     1       6.272   5.564  19.561  0.00  0.00    +0.000 OA
ATOM     21  O   UNL     1       5.360   3.351  18.793  0.00  0.00    +0.000 OA
BRANCH  19  22
ATOM     22  N   UNL     1       5.094   5.416  17.300  0.00  0.00    +0.000 NA
ATOM     23  C   UNL     1       5.486   4.536  16.156  0.00  0.00    +0.000 C 
ATOM     24  C   UNL     1       7.008   4.463  15.985  0.00  0.00    +0.000 C 
ATOM     25  O   UNL     1       7.590   5.766  15.838  0.00  0.00    +0.000 OA
ATOM     26  C   UNL     1       7.266   6.621  16.946  0.00  0.00    +0.000 C 
ATOM     27  C   UNL     1       5.746   6.761  17.109  0.00  0.00    +0.000 C 
ENDBRANCH  19  22
ENDBRANCH   5  19
TORSDOF 5
ENDMDL
MODEL 6
REMARK VINA RESULT:      -7.7      1.281      1.712
REMARK  Name = 
REMARK  6 active torsions:
REMARK  status: ('A' for Active; 'I' for Inactive)
REMARK    1  A    between atoms: C_1  and  S_2
REMARK    2  A    between atoms: S_2  and  C_3
REMARK    3  A    between atoms: C_8  and  C_9
REMARK    4  A    between atoms: N_11  and  C_12
REMARK    5  A    between atoms: C_16  and  S_17
REMARK    6  A    between atoms: S_17  and  N_20
REMARK                            x       y       z     vdW  Elec       q    Type
REMARK                         _______ _______ _______ _____ _____    ______ ____
ROOT
ATOM      1  C   UNL     1       2.103   5.379  20.644  0.00  0.00    +0.000 A 
ATOM      2  C   UNL     1       2.104   4.166  21.339  0.00  0.00    +0.000 A 
ATOM      3  C   UNL     1       2.831   3.063  20.874  0.00  0.00    +0.000 A 
ATOM      4  C   UNL     1       3.584   3.158  19.708  0.00  0.00    +0.000 A 
ATOM      5  C   UNL     1       3.582   4.360  19.000  0.00  0.00    +0.000 A 
ATOM      6  C   UNL     1       2.824   5.460  19.444  0.00  0.00    +0.000 A 
ENDROOT
BRANCH   1   9
ATOM      7  C   UNL     1       1.494   7.807  20.550  0.00  0.00    +0.000 C 
ATOM      8  O   UNL     1       2.206   8.085  19.588  0.00  0.00    +0.000 OA
ATOM      9  N   UNL     1       1.403   6.531  21.095  0.00  0.00    +0.000 N 
ATOM     10  H   UNL     1       0.713   6.381  21.824  0.00  0.00    +0.000 HD
BRANCH   7  16
ATOM     11  C   UNL     1       0.044   9.965  20.424  0.00  0.00    +0.000 A 
ATOM     12  N   UNL     1      -0.702  10.922  21.050  0.00  0.00    +0.000 NA
ATOM     13  C   UNL     1      -0.831  10.872  22.391  0.00  0.00    +0.000 A 
ATOM     14  C   UNL     1      -0.231   9.907  23.167  0.00  0.00    +0.000 A 
ATOM     15  C   UNL     1       0.513   8.926  22.516  0.00  0.00    +0.000 A 
ATOM     16  C   UNL     1       0.662   8.921  21.115  0.00  0.00    +0.000 A 
BRANCH  11  18
ATOM     17  C   UNL     1       1.485  11.483  18.701  0.00  0.00    +0.000 C 
ATOM     18  S   UNL     1       0.166  10.241  18.666  0.00  0.00    +0.000 S 
ENDBRANCH  11  18
ENDBRANCH   7  16
ENDBRANCH   1   9
BRANCH   5  19
ATOM     19  S   UNL     1       4.501   4.465  17.482  0.00  0.00    +0.000 S 
ATOM     20  O   UNL     1       4.398   3.176  16.832  0.00  0.00    +0.000 OA
ATOM     21  O   UNL     1       4.077   5.669  16.800  0.00  0.00    +0.000 OA
BRANCH  19  22
ATOM     22  N   UNL     1       6.136   4.674  17.954  0.00  0.00    +0.000 NA
ATOM     23  C   UNL     1       6.544   6.000  18.510  0.00  0.00    +0.000 C 
ATOM     24  C   UNL     1       6.721   7.054  17.411  0.00  0.00    +0.000 C 
ATOM     25  O   UNL     1       7.651   6.623  16.406  0.00  0.00    +0.000 OA
ATOM     26  C   UNL     1       7.260   5.370  15.822  0.00  0.00    +0.000 C 
ATOM     27  C   UNL     1       7.131   4.279  16.893  0.00  0.00    +0.000 C 
ENDBRANCH  19  22
ENDBRANCH   5  19
TORSDOF 5
ENDMDL
MODEL 7
REMARK VINA RESULT:      -7.7      3.296      8.701
REMARK  Name = 
REMARK  6 active torsions:
REMARK  status: ('A' for Active; 'I' for Inactive)
REMARK    1  A    between atoms: C_1  and  S_2
REMARK    2  A    between atoms: S_2  and  C_3
REMARK    3  A    between atoms: C_8  and  C_9
REMARK    4  A    between atoms: N_11  and  C_12
REMARK    5  A    between atoms: C_16  and  S_17
REMARK    6  A    between atoms: S_17  and  N_20
REMARK                            x       y       z     vdW  Elec       q    Type
REMARK                         _______ _______ _______ _____ _____    ______ ____
ROOT
ATOM      1  C   UNL     1       1.251   9.019  19.447  0.00  0.00    +0.000 A 
ATOM      2  C   UNL     1       1.362   9.126  20.837  0.00  0.00    +0.000 A 
ATOM      3  C   UNL     1       0.479   9.922  21.577  0.00  0.00    +0.000 A 
ATOM      4  C   UNL     1      -0.543  10.618  20.939  0.00  0.00    +0.000 A 
ATOM      5  C   UNL     1      -0.657  10.529  19.552  0.00  0.00    +0.000 A 
ATOM      6  C   UNL     1       0.251   9.758  18.799  0.00  0.00    +0.000 A 
ENDROOT
BRANCH   1   9
ATOM      7  C   UNL     1       2.505   6.906  18.965  0.00  0.00    +0.000 C 
ATOM      8  O   UNL     1       2.144   6.304  19.974  0.00  0.00    +0.000 OA
ATOM      9  N   UNL     1       2.108   8.202  18.660  0.00  0.00    +0.000 N 
ATOM     10  H   UNL     1       2.379   8.574  17.756  0.00  0.00    +0.000 HD
BRANCH   7  16
ATOM     11  C   UNL     1       3.326   4.801  17.672  0.00  0.00    +0.000 A 
ATOM     12  N   UNL     1       4.185   4.225  16.780  0.00  0.00    +0.000 NA
ATOM     13  C   UNL     1       5.149   4.987  16.224  0.00  0.00    +0.000 A 
ATOM     14  C   UNL     1       5.321   6.318  16.523  0.00  0.00    +0.000 A 
ATOM     15  C   UNL     1       4.427   6.898  17.421  0.00  0.00    +0.000 A 
ATOM     16  C   UNL     1       3.389   6.152  18.015  0.00  0.00    +0.000 A 
BRANCH  11  18
ATOM     17  C   UNL     1       3.020   2.111  17.832  0.00  0.00    +0.000 C 
ATOM     18  S   UNL     1       2.174   3.624  18.361  0.00  0.00    +0.000 S 
ENDBRANCH  11  18
ENDBRANCH   7  16
ENDBRANCH   1   9
BRANCH   5  19
ATOM     19  S   UNL     1      -1.930  11.459  18.731  0.00  0.00    +0.000 S 
ATOM     20  O   UNL     1      -2.730  12.086  19.762  0.00  0.00    +0.000 OA
ATOM     21  O   UNL     1      -1.292  12.259  17.708  0.00  0.00    +0.000 OA
BRANCH  19  22
ATOM     22  N   UNL     1      -2.916  10.293  17.953  0.00  0.00    +0.000 NA
ATOM     23  C   UNL     1      -2.511   9.824  16.593  0.00  0.00    +0.000 C 
ATOM     24  C   UNL     1      -2.856  10.850  15.506  0.00  0.00    +0.000 C 
ATOM     25  O   UNL     1      -4.249  11.195  15.524  0.00  0.00    +0.000 OA
ATOM     26  C   UNL     1      -4.657  11.691  16.809  0.00  0.00    +0.000 C 
ATOM     27  C   UNL     1      -4.377  10.662  17.912  0.00  0.00    +0.000 C 
ENDBRANCH  19  22
ENDBRANCH   5  19
TORSDOF 5
ENDMDL
MODEL 8
REMARK VINA RESULT:      -7.6      2.313      8.032
REMARK  Name = 
REMARK  6 active torsions:
REMARK  status: ('A' for Active; 'I' for Inactive)
REMARK    1  A    between atoms: C_1  and  S_2
REMARK    2  A    between atoms: S_2  and  C_3
REMARK    3  A    between atoms: C_8  and  C_9
REMARK    4  A    between atoms: N_11  and  C_12
REMARK    5  A    between atoms: C_16  and  S_17
REMARK    6  A    between atoms: S_17  and  N_20
REMARK                            x       y       z     vdW  Elec       q    Type
REMARK                         _______ _______ _______ _____ _____    ______ ____
ROOT
ATOM      1  C   UNL     1       2.930   6.288  19.071  0.00  0.00    +0.000 A 
ATOM      2  C   UNL     1       2.499   5.219  19.863  0.00  0.00    +0.000 A 
ATOM      3  C   UNL     1       1.565   5.405  20.889  0.00  0.00    +0.000 A 
ATOM      4  C   UNL     1       1.031   6.666  21.134  0.00  0.00    +0.000 A 
ATOM      5  C   UNL     1       1.461   7.743  20.359  0.00  0.00    +0.000 A 
ATOM      6  C   UNL     1       2.428   7.567  19.350  0.00  0.00    +0.000 A 
ENDROOT
BRANCH   1   9
ATOM      7  C   UNL     1       4.743   5.085  17.832  0.00  0.00    +0.000 C 
ATOM      8  O   UNL     1       4.824   4.134  18.606  0.00  0.00    +0.000 OA
ATOM      9  N   UNL     1       3.855   6.140  18.002  0.00  0.00    +0.000 N 
ATOM     10  H   UNL     1       3.794   6.826  17.257  0.00  0.00    +0.000 HD
BRANCH   7  16
ATOM     11  C   UNL     1       6.783   5.811  16.387  0.00  0.00    +0.000 A 
ATOM     12  N   UNL     1       7.529   5.681  15.251  0.00  0.00    +0.000 NA
ATOM     13  C   UNL     1       7.134   4.797  14.313  0.00  0.00    +0.000 A 
ATOM     14  C   UNL     1       6.001   4.026  14.437  0.00  0.00    +0.000 A 
ATOM     15  C   UNL     1       5.259   4.154  15.608  0.00  0.00    +0.000 A 
ATOM     16  C   UNL     1       5.639   5.049  16.629  0.00  0.00    +0.000 A 
BRANCH  11  18
ATOM     17  C   UNL     1       7.876   6.012  18.860  0.00  0.00    +0.000 C 
ATOM     18  S   UNL     1       7.413   7.080  17.472  0.00  0.00    +0.000 S 
ENDBRANCH  11  18
ENDBRANCH   7  16
ENDBRANCH   1   9
BRANCH   5  19
ATOM     19  S   UNL     1       0.819   9.364  20.706  0.00  0.00    +0.000 S 
ATOM     20  O   UNL     1      -0.610   9.225  20.893  0.00  0.00    +0.000 OA
ATOM     21  O   UNL     1       1.644   9.944  21.745  0.00  0.00    +0.000 OA
BRANCH  19  22
ATOM     22  N   UNL     1       1.064  10.267  19.270  0.00  0.00    +0.000 NA
ATOM     23  C   UNL     1       1.262  11.744  19.393  0.00  0.00    +0.000 C 
ATOM     24  C   UNL     1      -0.060  12.481  19.639  0.00  0.00    +0.000 C 
ATOM     25  O   UNL     1      -1.030  12.187  18.622  0.00  0.00    +0.000 OA
ATOM     26  C   UNL     1      -1.272  10.776  18.512  0.00  0.00    +0.000 C 
ATOM     27  C   UNL     1       0.025  10.015  18.208  0.00  0.00    +0.000 C 
ENDBRANCH  19  22
ENDBRANCH   5  19
TORSDOF 5
ENDMDL
MODEL 9
REMARK VINA RESULT:      -7.5      1.886      2.488
REMARK  Name = 
REMARK  6 active torsions:
REMARK  status: ('A' for Active; 'I' for Inactive)
REMARK    1  A    between atoms: C_1  and  S_2
REMARK    2  A    between atoms: S_2  and  C_3
REMARK    3  A    between atoms: C_8  and  C_9
REMARK    4  A    between atoms: N_11  and  C_12
REMARK    5  A    between atoms: C_16  and  S_17
REMARK    6  A    between atoms: S_17  and  N_20
REMARK                            x       y       z     vdW  Elec       q    Type
REMARK                         _______ _______ _______ _____ _____    ______ ____
ROOT
ATOM      1  C   UNL     1       1.966   7.538  19.451  0.00  0.00    +0.000 A 
ATOM      2  C   UNL     1       1.554   6.853  20.599  0.00  0.00    +0.000 A 
ATOM      3  C   UNL     1       2.014   5.561  20.879  0.00  0.00    +0.000 A 
ATOM      4  C   UNL     1       2.909   4.931  20.018  0.00  0.00    +0.000 A 
ATOM      5  C   UNL     1       3.318   5.599  18.864  0.00  0.00    +0.000 A 
ATOM      6  C   UNL     1       2.830   6.885  18.560  0.00  0.00    +0.000 A 
ENDROOT
BRANCH   1   9
ATOM      7  C   UNL     1       0.622   9.611  19.859  0.00  0.00    +0.000 C 
ATOM      8  O   UNL     1       0.055   9.205  20.871  0.00  0.00    +0.000 OA
ATOM      9  N   UNL     1       1.547   8.860  19.143  0.00  0.00    +0.000 N 
ATOM     10  H   UNL     1       2.033   9.320  18.380  0.00  0.00    +0.000 HD
BRANCH   7  16
ATOM     11  C   UNL     1      -0.687  11.435  18.541  0.00  0.00    +0.000 A 
ATOM     12  N   UNL     1      -0.889  12.750  18.233  0.00  0.00    +0.000 NA
ATOM     13  C   UNL     1      -0.086  13.678  18.791  0.00  0.00    +0.000 A 
ATOM     14  C   UNL     1       0.943  13.365  19.649  0.00  0.00    +0.000 A 
ATOM     15  C   UNL     1       1.128  12.022  19.969  0.00  0.00    +0.000 A 
ATOM     16  C   UNL     1       0.305  11.013  19.429  0.00  0.00    +0.000 A 
BRANCH  11  18
ATOM     17  C   UNL     1      -3.253  11.419  17.666  0.00  0.00    +0.000 C 
ATOM     18  S   UNL     1      -1.788  10.351  17.650  0.00  0.00    +0.000 S 
ENDBRANCH  11  18
ENDBRANCH   7  16
ENDBRANCH   1   9
BRANCH   5  19
ATOM     19  S   UNL     1       4.420   4.774  17.739  0.00  0.00    +0.000 S 
ATOM     20  O   UNL     1       5.596   4.397  18.494  0.00  0.00    +0.000 OA
ATOM     21  O   UNL     1       3.649   3.775  17.030  0.00  0.00    +0.000 OA
BRANCH  19  22
ATOM     22  N   UNL     1       4.896   5.973  16.609  0.00  0.00    +0.000 NA
ATOM     23  C   UNL     1       5.307   5.528  15.242  0.00  0.00    +0.000 C 
ATOM     24  C   UNL     1       6.724   4.944  15.230  0.00  0.00    +0.000 C 
ATOM     25  O   UNL     1       7.684   5.867  15.767  0.00  0.00    +0.000 OA
ATOM     26  C   UNL     1       7.338   6.278  17.099  0.00  0.00    +0.000 C 
ATOM     27  C   UNL     1       5.945   6.920  17.134  0.00  0.00    +0.000 C 
ENDBRANCH  19  22
ENDBRANCH   5  19
TORSDOF 5
ENDMDL
