MODEL 1
REMARK VINA RESULT:      -6.0      0.000      0.000
REMARK  Name = 
REMARK  7 active torsions:
REMARK  status: ('A' for Active; 'I' for Inactive)
REMARK    1  A    between atoms: C_1  and  C_2
REMARK    2  A    between atoms: C_2  and  C_3
REMARK    3  A    between atoms: C_3  and  C_22
REMARK    4  A    between atoms: C_4  and  C_5
REMARK    5  A    between atoms: C_5  and  N_6
REMARK    6  A    between atoms: C_20  and  C_21
REMARK    7  A    between atoms: C_22  and  C_23
REMARK                            x       y       z     vdW  Elec       q    Type
REMARK                         _______ _______ _______ _____ _____    ______ ____
ROOT
ATOM      1  N   UNL     1      -1.430  12.981  19.447  0.00  0.00    +0.000 NA
ATOM      2  C   UNL     1      -0.876  13.081  20.813  0.00  0.00    +0.000 C 
ATOM      3  C   UNL     1      -0.584  11.764  21.480  0.00  0.00    +0.000 A 
ATOM      4  C   UNL     1      -1.049  11.420  22.763  0.00  0.00    +0.000 A 
ATOM      5 CL   UNL     1      -1.830  12.571  23.792  0.00  0.00    +0.000 Cl
ATOM      6  C   UNL     1      -0.904  10.108  23.274  0.00  0.00    +0.000 A 
ATOM      7  C   UNL     1      -0.273   9.106  22.533  0.00  0.00    +0.000 A 
ATOM      8  C   UNL     1       0.237   9.477  21.313  0.00  0.00    +0.000 A 
ATOM      9  N   UNL     1       0.929   8.711  20.385  0.00  0.00    +0.000 N 
ATOM     10  C   UNL     1       1.262   9.519  19.287  0.00  0.00    +0.000 A 
ATOM     11  S   UNL     1       2.135   8.979  17.988  0.00  0.00    +0.000 S 
ATOM     12  N   UNL     1       0.727  10.799  19.542  0.00  0.00    +0.000 N 
ATOM     13  C   UNL     1       0.108  10.770  20.807  0.00  0.00    +0.000 A 
ATOM     14  C   UNL     1       0.913  12.029  18.793  0.00  0.00    +0.000 C 
ATOM     15  C   UNL     1      -0.400  12.757  18.402  0.00  0.00    +0.000 C 
ATOM     16  C   UNL     1      -0.049  14.138  17.828  0.00  0.00    +0.000 C 
ATOM     17  H   UNL     1       1.175   7.737  20.472  0.00  0.00    +0.000 HD
ENDROOT
BRANCH   1  18
ATOM     18  C   UNL     1      -2.565  12.046  19.298  0.00  0.00    +0.000 C 
BRANCH  18  20
ATOM     19  C   UNL     1      -3.955  11.402  17.220  0.00  0.00    +0.000 C 
ATOM     20  C   UNL     1      -2.792  11.558  17.893  0.00  0.00    +0.000 C 
BRANCH  19  22
ATOM     21  C   UNL     1      -6.205  12.820  17.127  0.00  0.00    +0.000 C 
ATOM     22  C   UNL     1      -5.376  11.684  17.705  0.00  0.00    +0.000 C 
ENDBRANCH  19  22
BRANCH  19  23
ATOM     23  C   UNL     1      -3.990  10.874  15.781  0.00  0.00    +0.000 C 
ATOM     24  C   UNL     1      -2.793  10.087  15.257  0.00  0.00    +0.000 C 
ENDBRANCH  19  23
ENDBRANCH  18  20
ENDBRANCH   1  18
TORSDOF 4
ENDMDL
MODEL 2
REMARK VINA RESULT:      -5.9      9.052     11.041
REMARK  Name = 
REMARK  7 active torsions:
REMARK  status: ('A' for Active; 'I' for Inactive)
REMARK    1  A    between atoms: C_1  and  C_2
REMARK    2  A    between atoms: C_2  and  C_3
REMARK    3  A    between atoms: C_3  and  C_22
REMARK    4  A    between atoms: C_4  and  C_5
REMARK    5  A    between atoms: C_5  and  N_6
REMARK    6  A    between atoms: C_20  and  C_21
REMARK    7  A    between atoms: C_22  and  C_23
REMARK                            x       y       z     vdW  Elec       q    Type
REMARK                         _______ _______ _______ _____ _____    ______ ____
ROOT
ATOM      1  N   UNL     1       7.593  15.149  19.287  0.00  0.00    +0.000 NA
ATOM      2  C   UNL     1       8.552  14.110  19.717  0.00  0.00    +0.000 C 
ATOM      3  C   UNL     1       9.670  13.834  18.749  0.00  0.00    +0.000 A 
ATOM      4  C   UNL     1      10.003  12.546  18.291  0.00  0.00    +0.000 A 
ATOM      5 CL   UNL     1       9.292  11.121  18.967  0.00  0.00    +0.000 Cl
ATOM      6  C   UNL     1      10.939  12.353  17.245  0.00  0.00    +0.000 A 
ATOM      7  C   UNL     1      11.586  13.434  16.642  0.00  0.00    +0.000 A 
ATOM      8  C   UNL     1      11.300  14.678  17.148  0.00  0.00    +0.000 A 
ATOM      9  N   UNL     1      11.807  15.914  16.769  0.00  0.00    +0.000 N 
ATOM     10  C   UNL     1      11.232  16.907  17.577  0.00  0.00    +0.000 A 
ATOM     11  S   UNL     1      11.620  18.513  17.464  0.00  0.00    +0.000 S 
ATOM     12  N   UNL     1      10.328  16.259  18.444  0.00  0.00    +0.000 N 
ATOM     13  C   UNL     1      10.388  14.876  18.184  0.00  0.00    +0.000 A 
ATOM     14  C   UNL     1       9.590  16.810  19.567  0.00  0.00    +0.000 C 
ATOM     15  C   UNL     1       8.063  16.534  19.539  0.00  0.00    +0.000 C 
ATOM     16  C   UNL     1       7.457  16.966  20.883  0.00  0.00    +0.000 C 
ATOM     17  H   UNL     1      12.487  16.090  16.045  0.00  0.00    +0.000 HD
ENDROOT
BRANCH   1  18
ATOM     18  C   UNL     1       7.077  14.994  17.910  0.00  0.00    +0.000 C 
BRANCH  18  20
ATOM     19  C   UNL     1       4.506  15.173  18.057  0.00  0.00    +0.000 C 
ATOM     20  C   UNL     1       5.658  14.501  17.827  0.00  0.00    +0.000 C 
BRANCH  19  22
ATOM     21  C   UNL     1       3.864  17.017  19.865  0.00  0.00    +0.000 C 
ATOM     22  C   UNL     1       4.327  16.633  18.469  0.00  0.00    +0.000 C 
ENDBRANCH  19  22
BRANCH  19  23
ATOM     23  C   UNL     1       3.138  14.493  17.933  0.00  0.00    +0.000 C 
ATOM     24  C   UNL     1       2.656  13.595  19.067  0.00  0.00    +0.000 C 
ENDBRANCH  19  23
ENDBRANCH  18  20
ENDBRANCH   1  18
TORSDOF 4
ENDMDL
MODEL 3
REMARK VINA RESULT:      -5.8      6.665      9.525
REMARK  Name = 
REMARK  7 active torsions:
REMARK  status: ('A' for Active; 'I' for Inactive)
REMARK    1  A    between atoms: C_1  and  C_2
REMARK    2  A    between atoms: C_2  and  C_3
REMARK    3  A    between atoms: C_3  and  C_22
REMARK    4  A    between atoms: C_4  and  C_5
REMARK    5  A    between atoms: C_5  and  N_6
REMARK    6  A    between atoms: C_20  and  C_21
REMARK    7  A    between atoms: C_22  and  C_23
REMARK                            x       y       z     vdW  Elec       q    Type
REMARK                         _______ _______ _______ _____ _____    ______ ____
ROOT
ATOM      1  N   UNL     1       4.591   5.206  17.588  0.00  0.00    +0.000 NA
ATOM      2  C   UNL     1       3.480   4.242  17.438  0.00  0.00    +0.000 C 
ATOM      3  C   UNL     1       2.682   3.990  18.688  0.00  0.00    +0.000 A 
ATOM      4  C   UNL     1       2.413   2.705  19.194  0.00  0.00    +0.000 A 
ATOM      5 CL   UNL     1       2.795   1.272  18.304  0.00  0.00    +0.000 Cl
ATOM      6  C   UNL     1       1.816   2.522  20.465  0.00  0.00    +0.000 A 
ATOM      7  C   UNL     1       1.451   3.612  21.259  0.00  0.00    +0.000 A 
ATOM      8  C   UNL     1       1.657   4.857  20.720  0.00  0.00    +0.000 A 
ATOM      9  N   UNL     1       1.369   6.104  21.261  0.00  0.00    +0.000 N 
ATOM     10  C   UNL     1       1.745   7.096  20.342  0.00  0.00    +0.000 A 
ATOM     11  S   UNL     1       1.517   8.715  20.604  0.00  0.00    +0.000 S 
ATOM     12  N   UNL     1       2.308   6.434  19.231  0.00  0.00    +0.000 N 
ATOM     13  C   UNL     1       2.233   5.046  19.465  0.00  0.00    +0.000 A 
ATOM     14  C   UNL     1       2.717   6.988  17.953  0.00  0.00    +0.000 C 
ATOM     15  C   UNL     1       4.162   6.625  17.519  0.00  0.00    +0.000 C 
ATOM     16  C   UNL     1       4.372   7.078  16.067  0.00  0.00    +0.000 C 
ATOM     17  H   UNL     1       0.946   6.287  22.158  0.00  0.00    +0.000 HD
ENDROOT
BRANCH   1  18
ATOM     18  C   UNL     1       5.478   4.963  18.745  0.00  0.00    +0.000 C 
BRANCH  18  20
ATOM     19  C   UNL     1       7.423   6.534  18.102  0.00  0.00    +0.000 C 
ATOM     20  C   UNL     1       6.516   6.028  18.970  0.00  0.00    +0.000 C 
BRANCH  19  22
ATOM     21  C   UNL     1       7.459   4.734  16.143  0.00  0.00    +0.000 C 
ATOM     22  C   UNL     1       7.645   6.159  16.638  0.00  0.00    +0.000 C 
ENDBRANCH  19  22
BRANCH  19  23
ATOM     23  C   UNL     1       8.421   7.620  18.521  0.00  0.00    +0.000 C 
ATOM     24  C   UNL     1       8.226   9.040  17.999  0.00  0.00    +0.000 C 
ENDBRANCH  19  23
ENDBRANCH  18  20
ENDBRANCH   1  18
TORSDOF 4
ENDMDL
MODEL 4
REMARK VINA RESULT:      -5.8      2.655      4.766
REMARK  Name = 
REMARK  7 active torsions:
REMARK  status: ('A' for Active; 'I' for Inactive)
REMARK    1  A    between atoms: C_1  and  C_2
REMARK    2  A    between atoms: C_2  and  C_3
REMARK    3  A    between atoms: C_3  and  C_22
REMARK    4  A    between atoms: C_4  and  C_5
REMARK    5  A    between atoms: C_5  and  N_6
REMARK    6  A    between atoms: C_20  and  C_21
REMARK    7  A    between atoms: C_22  and  C_23
REMARK                            x       y       z     vdW  Elec       q    Type
REMARK                         _______ _______ _______ _____ _____    ______ ____
ROOT
ATOM      1  N   UNL     1       0.364  10.268  19.530  0.00  0.00    +0.000 NA
ATOM      2  C   UNL     1       1.352  11.329  19.818  0.00  0.00    +0.000 C 
ATOM      3  C   UNL     1       0.850  12.735  19.634  0.00  0.00    +0.000 A 
ATOM      4  C   UNL     1       1.515  13.704  18.859  0.00  0.00    +0.000 A 
ATOM      5 CL   UNL     1       3.096  13.432  18.213  0.00  0.00    +0.000 Cl
ATOM      6  C   UNL     1       0.916  14.953  18.566  0.00  0.00    +0.000 A 
ATOM      7  C   UNL     1      -0.351  15.283  19.053  0.00  0.00    +0.000 A 
ATOM      8  C   UNL     1      -0.955  14.354  19.864  0.00  0.00    +0.000 A 
ATOM      9  N   UNL     1      -2.185  14.420  20.505  0.00  0.00    +0.000 N 
ATOM     10  C   UNL     1      -2.381  13.238  21.236  0.00  0.00    +0.000 A 
ATOM     11  S   UNL     1      -3.714  12.957  22.176  0.00  0.00    +0.000 S 
ATOM     12  N   UNL     1      -1.255  12.421  21.003  0.00  0.00    +0.000 N 
ATOM     13  C   UNL     1      -0.368  13.126  20.167  0.00  0.00    +0.000 A 
ATOM     14  C   UNL     1      -0.897  11.164  21.636  0.00  0.00    +0.000 C 
ATOM     15  C   UNL     1      -0.575  10.009  20.650  0.00  0.00    +0.000 C 
ATOM     16  C   UNL     1       0.004   8.828  21.443  0.00  0.00    +0.000 C 
ATOM     17  H   UNL     1      -2.839  15.187  20.474  0.00  0.00    +0.000 HD
ENDROOT
BRANCH   1  18
ATOM     18  C   UNL     1      -0.353  10.413  18.245  0.00  0.00    +0.000 C 
BRANCH  18  20
ATOM     19  C   UNL     1      -2.793  10.518  17.407  0.00  0.00    +0.000 C 
ATOM     20  C   UNL     1      -1.848  10.277  18.346  0.00  0.00    +0.000 C 
BRANCH  19  22
ATOM     21  C   UNL     1      -2.941  10.113  14.781  0.00  0.00    +0.000 C 
ATOM     22  C   UNL     1      -2.600  10.998  15.970  0.00  0.00    +0.000 C 
ENDBRANCH  19  22
BRANCH  19  23
ATOM     23  C   UNL     1      -4.286  10.333  17.700  0.00  0.00    +0.000 C 
ATOM     24  C   UNL     1      -5.241  11.487  17.415  0.00  0.00    +0.000 C 
ENDBRANCH  19  23
ENDBRANCH  18  20
ENDBRANCH   1  18
TORSDOF 4
ENDMDL
MODEL 5
REMARK VINA RESULT:      -5.7      2.504      3.672
REMARK  Name = 
REMARK  7 active torsions:
REMARK  status: ('A' for Active; 'I' for Inactive)
REMARK    1  A    between atoms: C_1  and  C_2
REMARK    2  A    between atoms: C_2  and  C_3
REMARK    3  A    between atoms: C_3  and  C_22
REMARK    4  A    between atoms: C_4  and  C_5
REMARK    5  A    between atoms: C_5  and  N_6
REMARK    6  A    between atoms: C_20  and  C_21
REMARK    7  A    between atoms: C_22  and  C_23
REMARK                            x       y       z     vdW  Elec       q    Type
REMARK                         _______ _______ _______ _____ _____    ______ ____
ROOT
ATOM      1  N   UNL     1      -1.103  12.913  20.778  0.00  0.00    +0.000 NA
ATOM      2  C   UNL     1      -0.290  11.783  21.275  0.00  0.00    +0.000 C 
ATOM      3  C   UNL     1       0.589  11.128  20.244  0.00  0.00    +0.000 A 
ATOM      4  C   UNL     1       0.606   9.741  20.003  0.00  0.00    +0.000 A 
ATOM      5 CL   UNL     1      -0.230   8.624  21.025  0.00  0.00    +0.000 Cl
ATOM      6  C   UNL     1       1.311   9.191  18.905  0.00  0.00    +0.000 A 
ATOM      7  C   UNL     1       2.035  10.002  18.027  0.00  0.00    +0.000 A 
ATOM      8  C   UNL     1       2.063  11.344  18.317  0.00  0.00    +0.000 A 
ATOM      9  N   UNL     1       2.716  12.370  17.646  0.00  0.00    +0.000 N 
ATOM     10  C   UNL     1       2.467  13.579  18.315  0.00  0.00    +0.000 A 
ATOM     11  S   UNL     1       3.114  15.030  17.846  0.00  0.00    +0.000 S 
ATOM     12  N   UNL     1       1.613  13.282  19.397  0.00  0.00    +0.000 N 
ATOM     13  C   UNL     1       1.382  11.892  19.403  0.00  0.00    +0.000 A 
ATOM     14  C   UNL     1       1.178  14.149  20.478  0.00  0.00    +0.000 C 
ATOM     15  C   UNL     1      -0.358  14.193  20.697  0.00  0.00    +0.000 C 
ATOM     16  C   UNL     1      -0.651  14.955  21.998  0.00  0.00    +0.000 C 
ATOM     17  H   UNL     1       3.290  12.281  16.822  0.00  0.00    +0.000 HD
ENDROOT
BRANCH   1  18
ATOM     18  C   UNL     1      -1.854  12.643  19.533  0.00  0.00    +0.000 C 
BRANCH  18  20
ATOM     19  C   UNL     1      -4.226  11.822  18.929  0.00  0.00    +0.000 C 
ATOM     20  C   UNL     1      -3.335  12.458  19.725  0.00  0.00    +0.000 C 
BRANCH  19  22
ATOM     21  C   UNL     1      -3.184   9.811  17.534  0.00  0.00    +0.000 C 
ATOM     22  C   UNL     1      -3.972  11.109  17.603  0.00  0.00    +0.000 C 
ENDBRANCH  19  22
BRANCH  19  23
ATOM     23  C   UNL     1      -5.715  11.746  19.287  0.00  0.00    +0.000 C 
ATOM     24  C   UNL     1      -6.726  11.468  18.180  0.00  0.00    +0.000 C 
ENDBRANCH  19  23
ENDBRANCH  18  20
ENDBRANCH   1  18
TORSDOF 4
ENDMDL
MODEL 6
REMARK VINA RESULT:      -5.6      2.934      4.476
REMARK  Name = 
REMARK  7 active torsions:
REMARK  status: ('A' for Active; 'I' for Inactive)
REMARK    1  A    between atoms: C_1  and  C_2
REMARK    2  A    between atoms: C_2  and  C_3
REMARK    3  A    between atoms: C_3  and  C_22
REMARK    4  A    between atoms: C_4  and  C_5
REMARK    5  A    between atoms: C_5  and  N_6
REMARK    6  A    between atoms: C_20  and  C_21
REMARK    7  A    between atoms: C_22  and  C_23
REMARK                            x       y       z     vdW  Elec       q    Type
REMARK                         _______ _______ _______ _____ _____    ______ ____
ROOT
ATOM      1  N   UNL     1      -1.551  11.765  20.618  0.00  0.00    +0.000 NA
ATOM      2  C   UNL     1      -0.210  11.153  20.520  0.00  0.00    +0.000 C 
ATOM      3  C   UNL     1       0.831  12.001  19.839  0.00  0.00    +0.000 A 
ATOM      4  C   UNL     1       1.635  11.544  18.778  0.00  0.00    +0.000 A 
ATOM      5 CL   UNL     1       1.653   9.885  18.292  0.00  0.00    +0.000 Cl
ATOM      6  C   UNL     1       2.468  12.428  18.051  0.00  0.00    +0.000 A 
ATOM      7  C   UNL     1       2.543  13.786  18.372  0.00  0.00    +0.000 A 
ATOM      8  C   UNL     1       1.805  14.199  19.453  0.00  0.00    +0.000 A 
ATOM      9  N   UNL     1       1.707  15.467  20.012  0.00  0.00    +0.000 N 
ATOM     10  C   UNL     1       0.841  15.411  21.115  0.00  0.00    +0.000 A 
ATOM     11  S   UNL     1       0.503  16.716  22.077  0.00  0.00    +0.000 S 
ATOM     12  N   UNL     1       0.374  14.083  21.204  0.00  0.00    +0.000 N 
ATOM     13  C   UNL     1       0.990  13.334  20.182  0.00  0.00    +0.000 A 
ATOM     14  C   UNL     1      -0.425  13.467  22.248  0.00  0.00    +0.000 C 
ATOM     15  C   UNL     1      -1.689  12.721  21.745  0.00  0.00    +0.000 C 
ATOM     16  C   UNL     1      -2.300  11.935  22.914  0.00  0.00    +0.000 C 
ATOM     17  H   UNL     1       2.183  16.300  19.701  0.00  0.00    +0.000 HD
ENDROOT
BRANCH   1  18
ATOM     18  C   UNL     1      -2.072  12.335  19.357  0.00  0.00    +0.000 C 
BRANCH  18  20
ATOM     19  C   UNL     1      -3.133  10.806  17.568  0.00  0.00    +0.000 C 
ATOM     20  C   UNL     1      -2.080  11.379  18.196  0.00  0.00    +0.000 C 
BRANCH  19  22
ATOM     21  C   UNL     1      -5.435  12.103  17.251  0.00  0.00    +0.000 C 
ATOM     22  C   UNL     1      -4.621  10.976  17.867  0.00  0.00    +0.000 C 
ENDBRANCH  19  22
BRANCH  19  23
ATOM     23  C   UNL     1      -2.943   9.835  16.397  0.00  0.00    +0.000 C 
ATOM     24  C   UNL     1      -2.978  10.382  14.974  0.00  0.00    +0.000 C 
ENDBRANCH  19  23
ENDBRANCH  18  20
ENDBRANCH   1  18
TORSDOF 4
ENDMDL
MODEL 7
REMARK VINA RESULT:      -5.6      3.004      6.174
REMARK  Name = 
REMARK  7 active torsions:
REMARK  status: ('A' for Active; 'I' for Inactive)
REMARK    1  A    between atoms: C_1  and  C_2
REMARK    2  A    between atoms: C_2  and  C_3
REMARK    3  A    between atoms: C_3  and  C_22
REMARK    4  A    between atoms: C_4  and  C_5
REMARK    5  A    between atoms: C_5  and  N_6
REMARK    6  A    between atoms: C_20  and  C_21
REMARK    7  A    between atoms: C_22  and  C_23
REMARK                            x       y       z     vdW  Elec       q    Type
REMARK                         _______ _______ _______ _____ _____    ______ ____
ROOT
ATOM      1  N   UNL     1      -0.676  11.358  18.468  0.00  0.00    +0.000 NA
ATOM      2  C   UNL     1      -1.673  11.857  17.498  0.00  0.00    +0.000 C 
ATOM      3  C   UNL     1      -3.100  11.814  17.971  0.00  0.00    +0.000 A 
ATOM      4  C   UNL     1      -4.147  11.225  17.238  0.00  0.00    +0.000 A 
ATOM      5 CL   UNL     1      -3.930  10.678  15.612  0.00  0.00    +0.000 Cl
ATOM      6  C   UNL     1      -5.434  11.047  17.801  0.00  0.00    +0.000 A 
ATOM      7  C   UNL     1      -5.723  11.469  19.101  0.00  0.00    +0.000 A 
ATOM      8  C   UNL     1      -4.710  12.104  19.776  0.00  0.00    +0.000 A 
ATOM      9  N   UNL     1      -4.717  12.648  21.054  0.00  0.00    +0.000 N 
ATOM     10  C   UNL     1      -3.456  13.204  21.318  0.00  0.00    +0.000 A 
ATOM     11  S   UNL     1      -3.083  13.992  22.726  0.00  0.00    +0.000 S 
ATOM     12  N   UNL     1      -2.654  12.960  20.184  0.00  0.00    +0.000 N 
ATOM     13  C   UNL     1      -3.443  12.293  19.226  0.00  0.00    +0.000 A 
ATOM     14  C   UNL     1      -1.320  13.453  19.888  0.00  0.00    +0.000 C 
ATOM     15  C   UNL     1      -0.294  12.358  19.497  0.00  0.00    +0.000 C 
ATOM     16  C   UNL     1       0.989  13.037  18.994  0.00  0.00    +0.000 C 
ATOM     17  H   UNL     1      -5.494  12.663  21.697  0.00  0.00    +0.000 HD
ENDROOT
BRANCH   1  18
ATOM     18  C   UNL     1      -0.995  10.049  19.077  0.00  0.00    +0.000 C 
BRANCH  18  20
ATOM     19  C   UNL     1       0.682   9.176  20.834  0.00  0.00    +0.000 C 
ATOM     20  C   UNL     1      -0.430   9.848  20.456  0.00  0.00    +0.000 C 
BRANCH  19  22
ATOM     21  C   UNL     1       1.986   6.954  20.168  0.00  0.00    +0.000 C 
ATOM     22  C   UNL     1       1.682   8.428  19.955  0.00  0.00    +0.000 C 
ENDBRANCH  19  22
BRANCH  19  23
ATOM     23  C   UNL     1       1.097   9.067  22.306  0.00  0.00    +0.000 C 
ATOM     24  C   UNL     1       0.105   9.490  23.384  0.00  0.00    +0.000 C 
ENDBRANCH  19  23
ENDBRANCH  18  20
ENDBRANCH   1  18
TORSDOF 4
ENDMDL
MODEL 8
REMARK VINA RESULT:      -5.6      2.341      5.271
REMARK  Name = 
REMARK  7 active torsions:
REMARK  status: ('A' for Active; 'I' for Inactive)
REMARK    1  A    between atoms: C_1  and  C_2
REMARK    2  A    between atoms: C_2  and  C_3
REMARK    3  A    between atoms: C_3  and  C_22
REMARK    4  A    between atoms: C_4  and  C_5
REMARK    5  A    between atoms: C_5  and  N_6
REMARK    6  A    between atoms: C_20  and  C_21
REMARK    7  A    between atoms: C_22  and  C_23
REMARK                            x       y       z     vdW  Elec       q    Type
REMARK                         _______ _______ _______ _____ _____    ______ ____
ROOT
ATOM      1  N   UNL     1       1.175  10.861  19.325  0.00  0.00    +0.000 NA
ATOM      2  C   UNL     1       0.237  10.539  20.421  0.00  0.00    +0.000 C 
ATOM      3  C   UNL     1      -1.091  11.245  20.352  0.00  0.00    +0.000 A 
ATOM      4  C   UNL     1      -1.645  11.969  21.424  0.00  0.00    +0.000 A 
ATOM      5 CL   UNL     1      -0.947  11.938  23.006  0.00  0.00    +0.000 Cl
ATOM      6  C   UNL     1      -2.804  12.765  21.257  0.00  0.00    +0.000 A 
ATOM      7  C   UNL     1      -3.457  12.846  20.024  0.00  0.00    +0.000 A 
ATOM      8  C   UNL     1      -2.943  12.079  19.008  0.00  0.00    +0.000 A 
ATOM      9  N   UNL     1      -3.395  11.940  17.702  0.00  0.00    +0.000 N 
ATOM     10  C   UNL     1      -2.559  11.039  17.026  0.00  0.00    +0.000 A 
ATOM     11  S   UNL     1      -2.800  10.574  15.455  0.00  0.00    +0.000 S 
ATOM     12  N   UNL     1      -1.554  10.649  17.935  0.00  0.00    +0.000 N 
ATOM     13  C   UNL     1      -1.809  11.284  19.167  0.00  0.00    +0.000 A 
ATOM     14  C   UNL     1      -0.533   9.627  17.782  0.00  0.00    +0.000 C 
ATOM     15  C   UNL     1       0.914  10.105  18.076  0.00  0.00    +0.000 C 
ATOM     16  C   UNL     1       1.844   8.883  18.100  0.00  0.00    +0.000 C 
ATOM     17  H   UNL     1      -4.198  12.392  17.292  0.00  0.00    +0.000 HD
ENDROOT
BRANCH   1  18
ATOM     18  C   UNL     1       1.353  12.305  19.058  0.00  0.00    +0.000 C 
BRANCH  18  20
ATOM     19  C   UNL     1       1.592  14.411  20.531  0.00  0.00    +0.000 C 
ATOM     20  C   UNL     1       1.813  13.107  20.244  0.00  0.00    +0.000 C 
BRANCH  19  22
ATOM     21  C   UNL     1      -0.704  15.341  19.558  0.00  0.00    +0.000 C 
ATOM     22  C   UNL     1       0.805  15.439  19.720  0.00  0.00    +0.000 C 
ENDBRANCH  19  22
BRANCH  19  23
ATOM     23  C   UNL     1       2.158  15.066  21.796  0.00  0.00    +0.000 C 
ATOM     24  C   UNL     1       1.274  16.021  22.590  0.00  0.00    +0.000 C 
ENDBRANCH  19  23
ENDBRANCH  18  20
ENDBRANCH   1  18
TORSDOF 4
ENDMDL
MODEL 9
REMARK VINA RESULT:      -5.5      1.977      2.521
REMARK  Name = 
REMARK  7 active torsions:
REMARK  status: ('A' for Active; 'I' for Inactive)
REMARK    1  A    between atoms: C_1  and  C_2
REMARK    2  A    between atoms: C_2  and  C_3
REMARK    3  A    between atoms: C_3  and  C_22
REMARK    4  A    between atoms: C_4  and  C_5
REMARK    5  A    between atoms: C_5  and  N_6
REMARK    6  A    between atoms: C_20  and  C_21
REMARK    7  A    between atoms: C_22  and  C_23
REMARK                            x       y       z     vdW  Elec       q    Type
REMARK                         _______ _______ _______ _____ _____    ______ ____
ROOT
ATOM      1  N   UNL     1      -1.259  12.916  19.110  0.00  0.00    +0.000 NA
ATOM      2  C   UNL     1      -1.395  13.887  20.216  0.00  0.00    +0.000 C 
ATOM      3  C   UNL     1      -1.877  13.307  21.518  0.00  0.00    +0.000 A 
ATOM      4  C   UNL     1      -2.961  13.827  22.249  0.00  0.00    +0.000 A 
ATOM      5 CL   UNL     1      -3.715  15.325  21.826  0.00  0.00    +0.000 Cl
ATOM      6  C   UNL     1      -3.492  13.143  23.370  0.00  0.00    +0.000 A 
ATOM      7  C   UNL     1      -2.946  11.934  23.808  0.00  0.00    +0.000 A 
ATOM      8  C   UNL     1      -1.846  11.477  23.126  0.00  0.00    +0.000 A 
ATOM      9  N   UNL     1      -1.089  10.335  23.351  0.00  0.00    +0.000 N 
ATOM     10  C   UNL     1      -0.052  10.283  22.407  0.00  0.00    +0.000 A 
ATOM     11  S   UNL     1       1.097   9.091  22.378  0.00  0.00    +0.000 S 
ATOM     12  N   UNL     1      -0.207  11.405  21.566  0.00  0.00    +0.000 N 
ATOM     13  C   UNL     1      -1.310  12.149  22.028  0.00  0.00    +0.000 A 
ATOM     14  C   UNL     1       0.682  11.893  20.526  0.00  0.00    +0.000 C 
ATOM     15  C   UNL     1       0.004  12.138  19.152  0.00  0.00    +0.000 C 
ATOM     16  C   UNL     1       0.996  12.861  18.231  0.00  0.00    +0.000 C 
ATOM     17  H   UNL     1      -1.235   9.650  24.077  0.00  0.00    +0.000 HD
ENDROOT
BRANCH   1  18
ATOM     18  C   UNL     1      -2.430  12.039  18.900  0.00  0.00    +0.000 C 
BRANCH  18  20
ATOM     19  C   UNL     1      -3.691  11.424  16.733  0.00  0.00    +0.000 C 
ATOM     20  C   UNL     1      -2.578  11.520  17.496  0.00  0.00    +0.000 C 
BRANCH  19  22
ATOM     21  C   UNL     1      -5.933  11.044  18.115  0.00  0.00    +0.000 C 
ATOM     22  C   UNL     1      -5.122  11.821  17.090  0.00  0.00    +0.000 C 
ENDBRANCH  19  22
BRANCH  19  23
ATOM     23  C   UNL     1      -3.648  10.850  15.312  0.00  0.00    +0.000 C 
ATOM     24  C   UNL     1      -2.692   9.701  15.010  0.00  0.00    +0.000 C 
ENDBRANCH  19  23
ENDBRANCH  18  20
ENDBRANCH   1  18
TORSDOF 4
ENDMDL
