MODEL 1
REMARK VINA RESULT:      -8.5      0.000      0.000
REMARK  Name = 
REMARK  7 active torsions:
REMARK  status: ('A' for Active; 'I' for Inactive)
REMARK    1  A    between atoms: C_1  and  O_2
REMARK    2  A    between atoms: O_2  and  C_3
REMARK    3  A    between atoms: C_6  and  S_7
REMARK    4  A    between atoms: S_7  and  N_10
REMARK    5  A    between atoms: C_14  and  C_16
REMARK    6  A    between atoms: C_16  and  N_17
REMARK    7  A    between atoms: C_18  and  C_20
REMARK                            x       y       z     vdW  Elec       q    Type
REMARK                         _______ _______ _______ _____ _____    ______ ____
ROOT
ATOM      1  N   UNL     1       2.956   4.234  18.865  0.00  0.00    +0.000 NA
ATOM      2  C   UNL     1       2.005   4.413  19.997  0.00  0.00    +0.000 C 
ATOM      3  C   UNL     1       1.968   5.863  20.510  0.00  0.00    +0.000 C 
ATOM      4  N   UNL     1       1.867   6.892  19.468  0.00  0.00    +0.000 N 
ATOM      5  C   UNL     1       1.611   8.226  19.784  0.00  0.00    +0.000 C 
ATOM      6  O   UNL     1       1.553   9.105  18.911  0.00  0.00    +0.000 OA
ATOM      7  C   UNL     1       2.593   6.643  18.210  0.00  0.00    +0.000 C 
ATOM      8  C   UNL     1       2.613   5.178  17.758  0.00  0.00    +0.000 C 
ENDROOT
BRANCH   1   9
ATOM      9  S   UNL     1       4.614   4.094  19.242  0.00  0.00    +0.000 S 
ATOM     10  O   UNL     1       4.865   2.725  19.631  0.00  0.00    +0.000 OA
ATOM     11  O   UNL     1       4.983   5.200  20.091  0.00  0.00    +0.000 OA
BRANCH   9  15
ATOM     12  C   UNL     1       6.618   4.909  15.180  0.00  0.00    +0.000 A 
ATOM     13  C   UNL     1       5.590   3.965  15.288  0.00  0.00    +0.000 A 
ATOM     14  C   UNL     1       4.983   3.704  16.526  0.00  0.00    +0.000 A 
ATOM     15  C   UNL     1       5.428   4.376  17.670  0.00  0.00    +0.000 A 
ATOM     16  C   UNL     1       6.448   5.327  17.566  0.00  0.00    +0.000 A 
ATOM     17  C   UNL     1       7.042   5.590  16.323  0.00  0.00    +0.000 A 
BRANCH  12  19
ATOM     18  C   UNL     1       6.741   4.108  12.945  0.00  0.00    +0.000 C 
ATOM     19  O   UNL     1       7.143   5.061  13.924  0.00  0.00    +0.000 OA
ENDBRANCH  12  19
ENDBRANCH   9  15
ENDBRANCH   1   9
BRANCH   5  20
ATOM     20  C   UNL     1       1.303   8.583  21.249  0.00  0.00    +0.000 C 
BRANCH  20  21
ATOM     21  N   UNL     1       0.509   9.791  21.352  0.00  0.00    +0.000 N 
ATOM     22  C   UNL     1       0.076  10.256  22.574  0.00  0.00    +0.000 C 
ATOM     23  O   UNL     1       0.289   9.677  23.633  0.00  0.00    +0.000 OA
ATOM     24  H   UNL     1       0.263  10.260  20.490  0.00  0.00    +0.000 HD
BRANCH  22  25
ATOM     25  C   UNL     1      -0.806  11.450  22.538  0.00  0.00    +0.000 A 
ATOM     26  C   UNL     1      -0.623  12.483  21.590  0.00  0.00    +0.000 A 
ATOM     27  C   UNL     1      -1.639  13.413  21.356  0.00  0.00    +0.000 A 
ATOM     28  C   UNL     1      -2.807  13.257  22.068  0.00  0.00    +0.000 A 
ATOM     29  C   UNL     1      -2.934  12.319  23.073  0.00  0.00    +0.000 A 
ATOM     30  C   UNL     1      -1.937  11.422  23.363  0.00  0.00    +0.000 A 
ATOM     31  O   UNL     1      -4.195  12.291  23.588  0.00  0.00    +0.000 OA
ATOM     32  C   UNL     1      -4.877  12.983  22.525  0.00  0.00    +0.000 C 
ATOM     33  O   UNL     1      -3.994  13.875  21.810  0.00  0.00    +0.000 OA
ENDBRANCH  22  25
ENDBRANCH  20  21
ENDBRANCH   5  20
TORSDOF 6
ENDMDL
MODEL 2
REMARK VINA RESULT:      -8.4      1.455      1.959
REMARK  Name = 
REMARK  7 active torsions:
REMARK  status: ('A' for Active; 'I' for Inactive)
REMARK    1  A    between atoms: C_1  and  O_2
REMARK    2  A    between atoms: O_2  and  C_3
REMARK    3  A    between atoms: C_6  and  S_7
REMARK    4  A    between atoms: S_7  and  N_10
REMARK    5  A    between atoms: C_14  and  C_16
REMARK    6  A    between atoms: C_16  and  N_17
REMARK    7  A    between atoms: C_18  and  C_20
REMARK                            x       y       z     vdW  Elec       q    Type
REMARK                         _______ _______ _______ _____ _____    ______ ____
ROOT
ATOM      1  N   UNL     1       2.005   3.222  18.748  0.00  0.00    +0.000 NA
ATOM      2  C   UNL     1       1.197   3.648  19.924  0.00  0.00    +0.000 C 
ATOM      3  C   UNL     1       1.643   5.010  20.480  0.00  0.00    +0.000 C 
ATOM      4  N   UNL     1       1.844   6.061  19.475  0.00  0.00    +0.000 N 
ATOM      5  C   UNL     1       2.040   7.392  19.840  0.00  0.00    +0.000 C 
ATOM      6  O   UNL     1       2.239   8.279  18.997  0.00  0.00    +0.000 OA
ATOM      7  C   UNL     1       2.414   5.646  18.180  0.00  0.00    +0.000 C 
ATOM      8  C   UNL     1       1.949   4.270  17.685  0.00  0.00    +0.000 C 
ENDROOT
BRANCH   1   9
ATOM      9  S   UNL     1       3.542   2.544  19.050  0.00  0.00    +0.000 S 
ATOM     10  O   UNL     1       3.630   1.302  18.317  0.00  0.00    +0.000 OA
ATOM     11  O   UNL     1       3.794   2.602  20.469  0.00  0.00    +0.000 OA
BRANCH   9  15
ATOM     12  C   UNL     1       6.539   5.456  17.123  0.00  0.00    +0.000 A 
ATOM     13  C   UNL     1       6.314   5.479  18.504  0.00  0.00    +0.000 A 
ATOM     14  C   UNL     1       5.394   4.602  19.096  0.00  0.00    +0.000 A 
ATOM     15  C   UNL     1       4.673   3.711  18.293  0.00  0.00    +0.000 A 
ATOM     16  C   UNL     1       4.900   3.677  16.913  0.00  0.00    +0.000 A 
ATOM     17  C   UNL     1       5.831   4.550  16.332  0.00  0.00    +0.000 A 
BRANCH  12  19
ATOM     18  C   UNL     1       7.539   7.597  17.384  0.00  0.00    +0.000 C 
ATOM     19  O   UNL     1       7.447   6.373  16.662  0.00  0.00    +0.000 OA
ENDBRANCH  12  19
ENDBRANCH   9  15
ENDBRANCH   1   9
BRANCH   5  20
ATOM     20  C   UNL     1       1.907   7.768  21.327  0.00  0.00    +0.000 C 
BRANCH  20  21
ATOM     21  N   UNL     1       1.246   9.046  21.501  0.00  0.00    +0.000 N 
ATOM     22  C   UNL     1      -0.092   9.118  21.821  0.00  0.00    +0.000 C 
ATOM     23  O   UNL     1      -0.813   8.134  21.938  0.00  0.00    +0.000 OA
ATOM     24  H   UNL     1       1.800   9.880  21.351  0.00  0.00    +0.000 HD
BRANCH  22  25
ATOM     25  C   UNL     1      -0.672  10.483  21.881  0.00  0.00    +0.000 A 
ATOM     26  C   UNL     1      -0.714  11.325  20.745  0.00  0.00    +0.000 A 
ATOM     27  C   UNL     1      -1.545  12.448  20.732  0.00  0.00    +0.000 A 
ATOM     28  C   UNL     1      -2.316  12.670  21.851  0.00  0.00    +0.000 A 
ATOM     29  C   UNL     1      -2.182  11.912  22.997  0.00  0.00    +0.000 A 
ATOM     30  C   UNL     1      -1.339  10.832  23.061  0.00  0.00    +0.000 A 
ATOM     31  O   UNL     1      -3.094  12.259  23.948  0.00  0.00    +0.000 OA
ATOM     32  C   UNL     1      -4.018  12.977  23.108  0.00  0.00    +0.000 C 
ATOM     33  O   UNL     1      -3.367  13.534  21.945  0.00  0.00    +0.000 OA
ENDBRANCH  22  25
ENDBRANCH  20  21
ENDBRANCH   5  20
TORSDOF 6
ENDMDL
MODEL 3
REMARK VINA RESULT:      -8.2      1.057      1.575
REMARK  Name = 
REMARK  7 active torsions:
REMARK  status: ('A' for Active; 'I' for Inactive)
REMARK    1  A    between atoms: C_1  and  O_2
REMARK    2  A    between atoms: O_2  and  C_3
REMARK    3  A    between atoms: C_6  and  S_7
REMARK    4  A    between atoms: S_7  and  N_10
REMARK    5  A    between atoms: C_14  and  C_16
REMARK    6  A    between atoms: C_16  and  N_17
REMARK    7  A    between atoms: C_18  and  C_20
REMARK                            x       y       z     vdW  Elec       q    Type
REMARK                         _______ _______ _______ _____ _____    ______ ____
ROOT
ATOM      1  N   UNL     1       3.114   4.414  18.835  0.00  0.00    +0.000 NA
ATOM      2  C   UNL     1       2.193   4.550  19.997  0.00  0.00    +0.000 C 
ATOM      3  C   UNL     1       2.104   5.997  20.510  0.00  0.00    +0.000 C 
ATOM      4  N   UNL     1       1.919   7.018  19.472  0.00  0.00    +0.000 N 
ATOM      5  C   UNL     1       1.611   8.339  19.796  0.00  0.00    +0.000 C 
ATOM      6  O   UNL     1       1.482   9.213  18.925  0.00  0.00    +0.000 OA
ATOM      7  C   UNL     1       2.616   6.802  18.191  0.00  0.00    +0.000 C 
ATOM      8  C   UNL     1       2.690   5.338  17.740  0.00  0.00    +0.000 C 
ENDROOT
BRANCH   1   9
ATOM      9  S   UNL     1       4.788   4.354  19.158  0.00  0.00    +0.000 S 
ATOM     10  O   UNL     1       5.090   3.044  19.689  0.00  0.00    +0.000 OA
ATOM     11  O   UNL     1       5.160   5.556  19.862  0.00  0.00    +0.000 OA
BRANCH   9  15
ATOM     12  C   UNL     1       6.612   4.742  14.951  0.00  0.00    +0.000 A 
ATOM     13  C   UNL     1       5.657   3.755  15.223  0.00  0.00    +0.000 A 
ATOM     14  C   UNL     1       5.106   3.625  16.506  0.00  0.00    +0.000 A 
ATOM     15  C   UNL     1       5.535   4.473  17.533  0.00  0.00    +0.000 A 
ATOM     16  C   UNL     1       6.482   5.467  17.265  0.00  0.00    +0.000 A 
ATOM     17  C   UNL     1       7.019   5.597  15.976  0.00  0.00    +0.000 A 
BRANCH  12  19
ATOM     18  C   UNL     1       6.547   3.787  12.775  0.00  0.00    +0.000 C 
ATOM     19  O   UNL     1       7.088   4.757  13.666  0.00  0.00    +0.000 OA
ENDBRANCH  12  19
ENDBRANCH   9  15
ENDBRANCH   1   9
BRANCH   5  20
ATOM     20  C   UNL     1       1.333   8.684  21.270  0.00  0.00    +0.000 C 
BRANCH  20  21
ATOM     21  N   UNL     1       0.516   9.874  21.399  0.00  0.00    +0.000 N 
ATOM     22  C   UNL     1       0.059  10.294  22.629  0.00  0.00    +0.000 C 
ATOM     23  O   UNL     1       0.269   9.686  23.672  0.00  0.00    +0.000 OA
ATOM     24  H   UNL     1       0.274  10.365  20.548  0.00  0.00    +0.000 HD
BRANCH  22  25
ATOM     25  C   UNL     1      -0.843  11.473  22.617  0.00  0.00    +0.000 A 
ATOM     26  C   UNL     1      -2.108  11.448  23.249  0.00  0.00    +0.000 A 
ATOM     27  C   UNL     1      -2.786  12.641  23.514  0.00  0.00    +0.000 A 
ATOM     28  C   UNL     1      -2.157  13.812  23.154  0.00  0.00    +0.000 A 
ATOM     29  C   UNL     1      -0.979  13.821  22.435  0.00  0.00    +0.000 A 
ATOM     30  C   UNL     1      -0.312  12.667  22.114  0.00  0.00    +0.000 A 
ATOM     31  O   UNL     1      -0.501  15.085  22.255  0.00  0.00    +0.000 OA
ATOM     32  C   UNL     1      -1.267  15.751  23.277  0.00  0.00    +0.000 C 
ATOM     33  O   UNL     1      -2.510  15.068  23.550  0.00  0.00    +0.000 OA
ENDBRANCH  22  25
ENDBRANCH  20  21
ENDBRANCH   5  20
TORSDOF 6
ENDMDL
MODEL 4
REMARK VINA RESULT:      -8.1      0.844      1.588
REMARK  Name = 
REMARK  7 active torsions:
REMARK  status: ('A' for Active; 'I' for Inactive)
REMARK    1  A    between atoms: C_1  and  O_2
REMARK    2  A    between atoms: O_2  and  C_3
REMARK    3  A    between atoms: C_6  and  S_7
REMARK    4  A    between atoms: S_7  and  N_10
REMARK    5  A    between atoms: C_14  and  C_16
REMARK    6  A    between atoms: C_16  and  N_17
REMARK    7  A    between atoms: C_18  and  C_20
REMARK                            x       y       z     vdW  Elec       q    Type
REMARK                         _______ _______ _______ _____ _____    ______ ____
ROOT
ATOM      1  N   UNL     1       3.031   4.316  18.762  0.00  0.00    +0.000 NA
ATOM      2  C   UNL     1       2.075   4.416  19.900  0.00  0.00    +0.000 C 
ATOM      3  C   UNL     1       2.021   5.831  20.499  0.00  0.00    +0.000 C 
ATOM      4  N   UNL     1       1.911   6.921  19.522  0.00  0.00    +0.000 N 
ATOM      5  C   UNL     1       1.640   8.231  19.917  0.00  0.00    +0.000 C 
ATOM      6  O   UNL     1       1.574   9.160  19.098  0.00  0.00    +0.000 OA
ATOM      7  C   UNL     1       2.644   6.757  18.253  0.00  0.00    +0.000 C 
ATOM      8  C   UNL     1       2.680   5.321  17.714  0.00  0.00    +0.000 C 
ENDROOT
BRANCH   1   9
ATOM      9  S   UNL     1       4.690   4.171  19.136  0.00  0.00    +0.000 S 
ATOM     10  O   UNL     1       4.947   2.791  19.478  0.00  0.00    +0.000 OA
ATOM     11  O   UNL     1       5.052   5.248  20.024  0.00  0.00    +0.000 OA
BRANCH   9  15
ATOM     12  C   UNL     1       6.876   4.973  15.167  0.00  0.00    +0.000 A 
ATOM     13  C   UNL     1       7.083   5.806  16.273  0.00  0.00    +0.000 A 
ATOM     14  C   UNL     1       6.411   5.573  17.482  0.00  0.00    +0.000 A 
ATOM     15  C   UNL     1       5.503   4.512  17.576  0.00  0.00    +0.000 A 
ATOM     16  C   UNL     1       5.300   3.671  16.477  0.00  0.00    +0.000 A 
ATOM     17  C   UNL     1       5.985   3.905  15.275  0.00  0.00    +0.000 A 
BRANCH  12  19
ATOM     18  C   UNL     1       7.255   4.598  12.850  0.00  0.00    +0.000 C 
ATOM     19  O   UNL     1       7.575   5.314  14.039  0.00  0.00    +0.000 OA
ENDBRANCH  12  19
ENDBRANCH   9  15
ENDBRANCH   1   9
BRANCH   5  20
ATOM     20  C   UNL     1       1.324   8.495  21.400  0.00  0.00    +0.000 C 
BRANCH  20  21
ATOM     21  N   UNL     1       0.123   9.291  21.559  0.00  0.00    +0.000 N 
ATOM     22  C   UNL     1       0.187  10.663  21.656  0.00  0.00    +0.000 C 
ATOM     23  O   UNL     1       1.237  11.294  21.654  0.00  0.00    +0.000 OA
ATOM     24  H   UNL     1      -0.757   8.796  21.626  0.00  0.00    +0.000 HD
BRANCH  22  25
ATOM     25  C   UNL     1      -1.102  11.356  21.909  0.00  0.00    +0.000 A 
ATOM     26  C   UNL     1      -1.760  11.271  23.158  0.00  0.00    +0.000 A 
ATOM     27  C   UNL     1      -2.773  12.177  23.484  0.00  0.00    +0.000 A 
ATOM     28  C   UNL     1      -3.070  13.146  22.552  0.00  0.00    +0.000 A 
ATOM     29  C   UNL     1      -2.505  13.149  21.292  0.00  0.00    +0.000 A 
ATOM     30  C   UNL     1      -1.544  12.244  20.921  0.00  0.00    +0.000 A 
ATOM     31  O   UNL     1      -2.886  14.237  20.565  0.00  0.00    +0.000 OA
ATOM     32  C   UNL     1      -3.370  15.058  21.645  0.00  0.00    +0.000 C 
ATOM     33  O   UNL     1      -3.819  14.264  22.765  0.00  0.00    +0.000 OA
ENDBRANCH  22  25
ENDBRANCH  20  21
ENDBRANCH   5  20
TORSDOF 6
ENDMDL
MODEL 5
REMARK VINA RESULT:      -8.1      2.952      3.343
REMARK  Name = 
REMARK  7 active torsions:
REMARK  status: ('A' for Active; 'I' for Inactive)
REMARK    1  A    between atoms: C_1  and  O_2
REMARK    2  A    between atoms: O_2  and  C_3
REMARK    3  A    between atoms: C_6  and  S_7
REMARK    4  A    between atoms: S_7  and  N_10
REMARK    5  A    between atoms: C_14  and  C_16
REMARK    6  A    between atoms: C_16  and  N_17
REMARK    7  A    between atoms: C_18  and  C_20
REMARK                            x       y       z     vdW  Elec       q    Type
REMARK                         _______ _______ _______ _____ _____    ______ ____
ROOT
ATOM      1  N   UNL     1       3.439   4.130  19.420  0.00  0.00    +0.000 NA
ATOM      2  C   UNL     1       4.144   5.424  19.630  0.00  0.00    +0.000 C 
ATOM      3  C   UNL     1       3.178   6.620  19.668  0.00  0.00    +0.000 C 
ATOM      4  N   UNL     1       1.990   6.437  20.510  0.00  0.00    +0.000 N 
ATOM      5  C   UNL     1       1.138   7.500  20.810  0.00  0.00    +0.000 C 
ATOM      6  O   UNL     1       0.117   7.346  21.497  0.00  0.00    +0.000 OA
ATOM      7  C   UNL     1       1.391   5.090  20.538  0.00  0.00    +0.000 C 
ATOM      8  C   UNL     1       2.402   3.938  20.478  0.00  0.00    +0.000 C 
ENDROOT
BRANCH   1   9
ATOM      9  S   UNL     1       2.966   3.739  17.827  0.00  0.00    +0.000 S 
ATOM     10  O   UNL     1       1.817   4.549  17.495  0.00  0.00    +0.000 OA
ATOM     11  O   UNL     1       2.940   2.303  17.700  0.00  0.00    +0.000 OA
BRANCH   9  15
ATOM     12  C   UNL     1       6.432   5.174  15.161  0.00  0.00    +0.000 A 
ATOM     13  C   UNL     1       6.298   3.818  15.482  0.00  0.00    +0.000 A 
ATOM     14  C   UNL     1       5.250   3.376  16.304  0.00  0.00    +0.000 A 
ATOM     15  C   UNL     1       4.344   4.305  16.829  0.00  0.00    +0.000 A 
ATOM     16  C   UNL     1       4.468   5.659  16.504  0.00  0.00    +0.000 A 
ATOM     17  C   UNL     1       5.513   6.090  15.673  0.00  0.00    +0.000 A 
BRANCH  12  19
ATOM     18  C   UNL     1       7.522   4.907  13.065  0.00  0.00    +0.000 C 
ATOM     19  O   UNL     1       7.505   5.483  14.367  0.00  0.00    +0.000 OA
ENDBRANCH  12  19
ENDBRANCH   9  15
ENDBRANCH   1   9
BRANCH   5  20
ATOM     20  C   UNL     1       1.543   8.912  20.350  0.00  0.00    +0.000 C 
BRANCH  20  21
ATOM     21  N   UNL     1       0.613   9.446  19.375  0.00  0.00    +0.000 N 
ATOM     22  C   UNL     1      -0.414  10.283  19.755  0.00  0.00    +0.000 C 
ATOM     23  O   UNL     1      -0.636  10.596  20.919  0.00  0.00    +0.000 OA
ATOM     24  H   UNL     1       0.732   9.158  18.412  0.00  0.00    +0.000 HD
BRANCH  22  25
ATOM     25  C   UNL     1      -1.352  10.689  18.678  0.00  0.00    +0.000 A 
ATOM     26  C   UNL     1      -1.337  10.072  17.406  0.00  0.00    +0.000 A 
ATOM     27  C   UNL     1      -2.419  10.225  16.535  0.00  0.00    +0.000 A 
ATOM     28  C   UNL     1      -3.483  10.974  16.986  0.00  0.00    +0.000 A 
ATOM     29  C   UNL     1      -3.440  11.667  18.179  0.00  0.00    +0.000 A 
ATOM     30  C   UNL     1      -2.372  11.579  19.035  0.00  0.00    +0.000 A 
ATOM     31  O   UNL     1      -4.626  12.277  18.458  0.00  0.00    +0.000 OA
ATOM     32  C   UNL     1      -5.466  11.538  17.550  0.00  0.00    +0.000 C 
ATOM     33  O   UNL     1      -4.722  11.031  16.421  0.00  0.00    +0.000 OA
ENDBRANCH  22  25
ENDBRANCH  20  21
ENDBRANCH   5  20
TORSDOF 6
ENDMDL
MODEL 6
REMARK VINA RESULT:      -7.9      1.543      2.257
REMARK  Name = 
REMARK  7 active torsions:
REMARK  status: ('A' for Active; 'I' for Inactive)
REMARK    1  A    between atoms: C_1  and  O_2
REMARK    2  A    between atoms: O_2  and  C_3
REMARK    3  A    between atoms: C_6  and  S_7
REMARK    4  A    between atoms: S_7  and  N_10
REMARK    5  A    between atoms: C_14  and  C_16
REMARK    6  A    between atoms: C_16  and  N_17
REMARK    7  A    between atoms: C_18  and  C_20
REMARK                            x       y       z     vdW  Elec       q    Type
REMARK                         _______ _______ _______ _____ _____    ______ ____
ROOT
ATOM      1  N   UNL     1       1.940   3.273  18.835  0.00  0.00    +0.000 NA
ATOM      2  C   UNL     1       1.118   3.738  19.986  0.00  0.00    +0.000 C 
ATOM      3  C   UNL     1       1.529   5.137  20.475  0.00  0.00    +0.000 C 
ATOM      4  N   UNL     1       1.709   6.140  19.419  0.00  0.00    +0.000 N 
ATOM      5  C   UNL     1       1.872   7.493  19.719  0.00  0.00    +0.000 C 
ATOM      6  O   UNL     1       2.053   8.341  18.832  0.00  0.00    +0.000 OA
ATOM      7  C   UNL     1       2.293   5.675  18.148  0.00  0.00    +0.000 C 
ATOM      8  C   UNL     1       1.863   4.266  17.721  0.00  0.00    +0.000 C 
ENDROOT
BRANCH   1   9
ATOM      9  S   UNL     1       3.491   2.648  19.174  0.00  0.00    +0.000 S 
ATOM     10  O   UNL     1       3.616   1.379  18.494  0.00  0.00    +0.000 OA
ATOM     11  O   UNL     1       3.732   2.772  20.591  0.00  0.00    +0.000 OA
BRANCH   9  15
ATOM     12  C   UNL     1       6.429   5.559  17.155  0.00  0.00    +0.000 A 
ATOM     13  C   UNL     1       6.095   5.710  18.506  0.00  0.00    +0.000 A 
ATOM     14  C   UNL     1       5.192   4.832  19.124  0.00  0.00    +0.000 A 
ATOM     15  C   UNL     1       4.597   3.811  18.375  0.00  0.00    +0.000 A 
ATOM     16  C   UNL     1       4.934   3.650  17.027  0.00  0.00    +0.000 A 
ATOM     17  C   UNL     1       5.847   4.525  16.420  0.00  0.00    +0.000 A 
BRANCH  12  19
ATOM     18  C   UNL     1       7.697   7.531  17.550  0.00  0.00    +0.000 C 
ATOM     19  O   UNL     1       7.306   6.488  16.662  0.00  0.00    +0.000 OA
ENDBRANCH  12  19
ENDBRANCH   9  15
ENDBRANCH   1   9
BRANCH   5  20
ATOM     20  C   UNL     1       1.725   7.938  21.184  0.00  0.00    +0.000 C 
BRANCH  20  21
ATOM     21  N   UNL     1       0.536   8.742  21.384  0.00  0.00    +0.000 N 
ATOM     22  C   UNL     1       0.611  10.115  21.472  0.00  0.00    +0.000 C 
ATOM     23  O   UNL     1       1.664  10.739  21.429  0.00  0.00    +0.000 OA
ATOM     24  H   UNL     1      -0.345   8.253  21.485  0.00  0.00    +0.000 HD
BRANCH  22  25
ATOM     25  C   UNL     1      -0.663  10.817  21.770  0.00  0.00    +0.000 A 
ATOM     26  C   UNL     1      -1.213  10.841  23.072  0.00  0.00    +0.000 A 
ATOM     27  C   UNL     1      -2.210  11.764  23.399  0.00  0.00    +0.000 A 
ATOM     28  C   UNL     1      -2.599  12.641  22.412  0.00  0.00    +0.000 A 
ATOM     29  C   UNL     1      -2.142  12.534  21.114  0.00  0.00    +0.000 A 
ATOM     30  C   UNL     1      -1.200  11.607  20.746  0.00  0.00    +0.000 A 
ATOM     31  O   UNL     1      -2.599  13.548  20.326  0.00  0.00    +0.000 OA
ATOM     32  C   UNL     1      -3.005  14.460  21.365  0.00  0.00    +0.000 C 
ATOM     33  O   UNL     1      -3.346  13.768  22.586  0.00  0.00    +0.000 OA
ENDBRANCH  22  25
ENDBRANCH  20  21
ENDBRANCH   5  20
TORSDOF 6
ENDMDL
MODEL 7
REMARK VINA RESULT:      -7.9      1.894      2.519
REMARK  Name = 
REMARK  7 active torsions:
REMARK  status: ('A' for Active; 'I' for Inactive)
REMARK    1  A    between atoms: C_1  and  O_2
REMARK    2  A    between atoms: O_2  and  C_3
REMARK    3  A    between atoms: C_6  and  S_7
REMARK    4  A    between atoms: S_7  and  N_10
REMARK    5  A    between atoms: C_14  and  C_16
REMARK    6  A    between atoms: C_16  and  N_17
REMARK    7  A    between atoms: C_18  and  C_20
REMARK                            x       y       z     vdW  Elec       q    Type
REMARK                         _______ _______ _______ _____ _____    ______ ____
ROOT
ATOM      1  N   UNL     1       1.993   3.136  18.787  0.00  0.00    +0.000 NA
ATOM      2  C   UNL     1       1.162   3.598  19.933  0.00  0.00    +0.000 C 
ATOM      3  C   UNL     1       1.592   4.980  20.452  0.00  0.00    +0.000 C 
ATOM      4  N   UNL     1       1.810   5.997  19.416  0.00  0.00    +0.000 N 
ATOM      5  C   UNL     1       1.995   7.341  19.740  0.00  0.00    +0.000 C 
ATOM      6  O   UNL     1       2.208   8.200  18.872  0.00  0.00    +0.000 OA
ATOM      7  C   UNL     1       2.406   5.541  18.147  0.00  0.00    +0.000 C 
ATOM      8  C   UNL     1       1.955   4.148  17.689  0.00  0.00    +0.000 C 
ENDROOT
BRANCH   1   9
ATOM      9  S   UNL     1       3.526   2.474  19.142  0.00  0.00    +0.000 S 
ATOM     10  O   UNL     1       3.662   1.247  18.391  0.00  0.00    +0.000 OA
ATOM     11  O   UNL     1       3.717   2.509  20.571  0.00  0.00    +0.000 OA
BRANCH   9  15
ATOM     12  C   UNL     1       6.365   5.625  17.356  0.00  0.00    +0.000 A 
ATOM     13  C   UNL     1       5.750   4.675  16.533  0.00  0.00    +0.000 A 
ATOM     14  C   UNL     1       4.892   3.705  17.073  0.00  0.00    +0.000 A 
ATOM     15  C   UNL     1       4.670   3.670  18.454  0.00  0.00    +0.000 A 
ATOM     16  C   UNL     1       5.274   4.622  19.281  0.00  0.00    +0.000 A 
ATOM     17  C   UNL     1       6.121   5.595  18.731  0.00  0.00    +0.000 A 
BRANCH  12  19
ATOM     18  C   UNL     1       7.573   7.670  17.443  0.00  0.00    +0.000 C 
ATOM     19  O   UNL     1       7.194   6.507  16.715  0.00  0.00    +0.000 OA
ENDBRANCH  12  19
ENDBRANCH   9  15
ENDBRANCH   1   9
BRANCH   5  20
ATOM     20  C   UNL     1       1.833   7.765  21.210  0.00  0.00    +0.000 C 
BRANCH  20  21
ATOM     21  N   UNL     1       1.192   9.060  21.328  0.00  0.00    +0.000 N 
ATOM     22  C   UNL     1      -0.105   9.174  21.780  0.00  0.00    +0.000 C 
ATOM     23  O   UNL     1      -0.808   8.213  22.069  0.00  0.00    +0.000 OA
ATOM     24  H   UNL     1       1.725   9.870  21.039  0.00  0.00    +0.000 HD
BRANCH  22  25
ATOM     25  C   UNL     1      -0.677  10.544  21.767  0.00  0.00    +0.000 A 
ATOM     26  C   UNL     1      -1.099  11.185  22.955  0.00  0.00    +0.000 A 
ATOM     27  C   UNL     1      -1.316  12.566  22.972  0.00  0.00    +0.000 A 
ATOM     28  C   UNL     1      -1.082  13.250  21.800  0.00  0.00    +0.000 A 
ATOM     29  C   UNL     1      -0.784  12.602  20.618  0.00  0.00    +0.000 A 
ATOM     30  C   UNL     1      -0.612  11.242  20.556  0.00  0.00    +0.000 A 
ATOM     31  O   UNL     1      -0.519  13.478  19.609  0.00  0.00    +0.000 OA
ATOM     32  C   UNL     1      -0.279  14.655  20.403  0.00  0.00    +0.000 C 
ATOM     33  O   UNL     1      -0.977  14.603  21.667  0.00  0.00    +0.000 OA
ENDBRANCH  22  25
ENDBRANCH  20  21
ENDBRANCH   5  20
TORSDOF 6
ENDMDL
MODEL 8
REMARK VINA RESULT:      -7.9      1.509      1.878
REMARK  Name = 
REMARK  7 active torsions:
REMARK  status: ('A' for Active; 'I' for Inactive)
REMARK    1  A    between atoms: C_1  and  O_2
REMARK    2  A    between atoms: O_2  and  C_3
REMARK    3  A    between atoms: C_6  and  S_7
REMARK    4  A    between atoms: S_7  and  N_10
REMARK    5  A    between atoms: C_14  and  C_16
REMARK    6  A    between atoms: C_16  and  N_17
REMARK    7  A    between atoms: C_18  and  C_20
REMARK                            x       y       z     vdW  Elec       q    Type
REMARK                         _______ _______ _______ _____ _____    ______ ____
ROOT
ATOM      1  N   UNL     1       1.907   3.005  18.920  0.00  0.00    +0.000 NA
ATOM      2  C   UNL     1       1.136   3.601  20.046  0.00  0.00    +0.000 C 
ATOM      3  C   UNL     1       1.579   5.039  20.364  0.00  0.00    +0.000 C 
ATOM      4  N   UNL     1       1.725   5.921  19.199  0.00  0.00    +0.000 N 
ATOM      5  C   UNL     1       1.912   7.295  19.344  0.00  0.00    +0.000 C 
ATOM      6  O   UNL     1       2.065   8.041  18.365  0.00  0.00    +0.000 OA
ATOM      7  C   UNL     1       2.254   5.313  17.964  0.00  0.00    +0.000 C 
ATOM      8  C   UNL     1       1.794   3.873  17.709  0.00  0.00    +0.000 C 
ENDROOT
BRANCH   1   9
ATOM      9  S   UNL     1       3.465   2.399  19.264  0.00  0.00    +0.000 S 
ATOM     10  O   UNL     1       3.634   1.167  18.529  0.00  0.00    +0.000 OA
ATOM     11  O   UNL     1       3.672   2.461  20.690  0.00  0.00    +0.000 OA
BRANCH   9  15
ATOM     12  C   UNL     1       6.174   5.612  17.388  0.00  0.00    +0.000 A 
ATOM     13  C   UNL     1       5.678   4.559  16.611  0.00  0.00    +0.000 A 
ATOM     14  C   UNL     1       4.862   3.570  17.180  0.00  0.00    +0.000 A 
ATOM     15  C   UNL     1       4.560   3.623  18.545  0.00  0.00    +0.000 A 
ATOM     16  C   UNL     1       5.044   4.679  19.325  0.00  0.00    +0.000 A 
ATOM     17  C   UNL     1       5.851   5.669  18.745  0.00  0.00    +0.000 A 
BRANCH  12  19
ATOM     18  C   UNL     1       7.600   7.510  17.514  0.00  0.00    +0.000 C 
ATOM     19  O   UNL     1       6.974   6.503  16.724  0.00  0.00    +0.000 OA
ENDBRANCH  12  19
ENDBRANCH   9  15
ENDBRANCH   1   9
BRANCH   5  20
ATOM     20  C   UNL     1       1.828   7.898  20.757  0.00  0.00    +0.000 C 
BRANCH  20  21
ATOM     21  N   UNL     1       1.030   9.108  20.779  0.00  0.00    +0.000 N 
ATOM     22  C   UNL     1       0.772   9.769  21.959  0.00  0.00    +0.000 C 
ATOM     23  O   UNL     1       1.152   9.373  23.054  0.00  0.00    +0.000 OA
ATOM     24  H   UNL     1       0.649   9.429  19.898  0.00  0.00    +0.000 HD
BRANCH  22  25
ATOM     25  C   UNL     1      -0.133  10.943  21.860  0.00  0.00    +0.000 A 
ATOM     26  C   UNL     1      -0.280  11.670  20.656  0.00  0.00    +0.000 A 
ATOM     27  C   UNL     1      -1.360  12.541  20.487  0.00  0.00    +0.000 A 
ATOM     28  C   UNL     1      -2.260  12.631  21.526  0.00  0.00    +0.000 A 
ATOM     29  C   UNL     1      -2.046  12.009  22.739  0.00  0.00    +0.000 A 
ATOM     30  C   UNL     1      -0.970  11.186  22.956  0.00  0.00    +0.000 A 
ATOM     31  O   UNL     1      -3.097  12.173  23.590  0.00  0.00    +0.000 OA
ATOM     32  C   UNL     1      -4.091  12.575  22.628  0.00  0.00    +0.000 C 
ATOM     33  O   UNL     1      -3.496  13.203  21.470  0.00  0.00    +0.000 OA
ENDBRANCH  22  25
ENDBRANCH  20  21
ENDBRANCH   5  20
TORSDOF 6
ENDMDL
MODEL 9
REMARK VINA RESULT:      -7.6      4.052     10.098
REMARK  Name = 
REMARK  7 active torsions:
REMARK  status: ('A' for Active; 'I' for Inactive)
REMARK    1  A    between atoms: C_1  and  O_2
REMARK    2  A    between atoms: O_2  and  C_3
REMARK    3  A    between atoms: C_6  and  S_7
REMARK    4  A    between atoms: S_7  and  N_10
REMARK    5  A    between atoms: C_14  and  C_16
REMARK    6  A    between atoms: C_16  and  N_17
REMARK    7  A    between atoms: C_18  and  C_20
REMARK                            x       y       z     vdW  Elec       q    Type
REMARK                         _______ _______ _______ _____ _____    ______ ____
ROOT
ATOM      1  N   UNL     1      -0.611  13.182  19.619  0.00  0.00    +0.000 NA
ATOM      2  C   UNL     1       0.561  12.387  19.159  0.00  0.00    +0.000 C 
ATOM      3  C   UNL     1       0.997  11.333  20.190  0.00  0.00    +0.000 C 
ATOM      4  N   UNL     1      -0.090  10.529  20.761  0.00  0.00    +0.000 N 
ATOM      5  C   UNL     1       0.168   9.403  21.542  0.00  0.00    +0.000 C 
ATOM      6  O   UNL     1      -0.746   8.736  22.051  0.00  0.00    +0.000 OA
ATOM      7  C   UNL     1      -1.372  11.216  21.004  0.00  0.00    +0.000 C 
ATOM      8  C   UNL     1      -1.745  12.269  19.954  0.00  0.00    +0.000 C 
ENDROOT
BRANCH   1   9
ATOM      9  S   UNL     1      -0.319  14.450  20.723  0.00  0.00    +0.000 S 
ATOM     10  O   UNL     1       0.104  13.861  21.973  0.00  0.00    +0.000 OA
ATOM     11  O   UNL     1      -1.425  15.373  20.659  0.00  0.00    +0.000 OA
BRANCH   9  15
ATOM     12  C   UNL     1       3.320  16.545  18.837  0.00  0.00    +0.000 A 
ATOM     13  C   UNL     1       3.463  15.788  20.006  0.00  0.00    +0.000 A 
ATOM     14  C   UNL     1       2.355  15.157  20.592  0.00  0.00    +0.000 A 
ATOM     15  C   UNL     1       1.089  15.306  20.016  0.00  0.00    +0.000 A 
ATOM     16  C   UNL     1       0.942  16.053  18.842  0.00  0.00    +0.000 A 
ATOM     17  C   UNL     1       2.056  16.672  18.257  0.00  0.00    +0.000 A 
BRANCH  12  19
ATOM     18  C   UNL     1       5.595  17.098  19.244  0.00  0.00    +0.000 C 
ATOM     19  O   UNL     1       4.470  17.127  18.373  0.00  0.00    +0.000 OA
ENDBRANCH  12  19
ENDBRANCH   9  15
ENDBRANCH   1   9
BRANCH   5  20
ATOM     20  C   UNL     1       1.627   8.934  21.686  0.00  0.00    +0.000 C 
BRANCH  20  21
ATOM     21  N   UNL     1       1.814   7.594  21.167  0.00  0.00    +0.000 N 
ATOM     22  C   UNL     1       2.122   7.380  19.841  0.00  0.00    +0.000 C 
ATOM     23  O   UNL     1       2.218   8.280  19.015  0.00  0.00    +0.000 OA
ATOM     24  H   UNL     1       1.682   6.823  21.810  0.00  0.00    +0.000 HD
BRANCH  22  25
ATOM     25  C   UNL     1       2.198   5.960  19.413  0.00  0.00    +0.000 A 
ATOM     26  C   UNL     1       2.240   5.595  18.048  0.00  0.00    +0.000 A 
ATOM     27  C   UNL     1       2.641   4.310  17.674  0.00  0.00    +0.000 A 
ATOM     28  C   UNL     1       3.005   3.449  18.685  0.00  0.00    +0.000 A 
ATOM     29  C   UNL     1       2.849   3.775  20.018  0.00  0.00    +0.000 A 
ATOM     30  C   UNL     1       2.411   5.010  20.420  0.00  0.00    +0.000 A 
ATOM     31  O   UNL     1       3.342   2.806  20.841  0.00  0.00    +0.000 OA
ATOM     32  C   UNL     1       4.159   2.106  19.883  0.00  0.00    +0.000 C 
ATOM     33  O   UNL     1       3.664   2.265  18.535  0.00  0.00    +0.000 OA
ENDBRANCH  22  25
ENDBRANCH  20  21
ENDBRANCH   5  20
TORSDOF 6
ENDMDL
