MODEL 1
REMARK VINA RESULT:      -9.0      0.000      0.000
REMARK  Name = 
REMARK  7 active torsions:
REMARK  status: ('A' for Active; 'I' for Inactive)
REMARK    1  A    between atoms: C_1  and  C_2
REMARK    2  A    between atoms: C_2  and  N_3
REMARK    3  A    between atoms: C_2  and  C_25
REMARK    4  A    between atoms: C_4  and  C_6
REMARK    5  A    between atoms: C_11  and  N_12
REMARK    6  A    between atoms: C_13  and  C_14
REMARK    7  A    between atoms: C_15  and  O_16
REMARK                            x       y       z     vdW  Elec       q    Type
REMARK                         _______ _______ _______ _____ _____    ______ ____
ROOT
ATOM      1  C   UNL     1       3.296   3.918  19.578  0.00  0.00    +0.000 A 
ATOM      2  C   UNL     1       3.720   2.707  20.163  0.00  0.00    +0.000 A 
ATOM      3  C   UNL     1       3.003   2.126  21.205  0.00  0.00    +0.000 A 
ATOM      4  C   UNL     1       1.848   2.745  21.666  0.00  0.00    +0.000 A 
ATOM      5  C   UNL     1       1.446   3.970  21.120  0.00  0.00    +0.000 A 
ATOM      6  C   UNL     1       2.178   4.600  20.100  0.00  0.00    +0.000 A 
ENDROOT
BRANCH   1   8
ATOM      7  N   UNL     1       5.346   3.843  18.249  0.00  0.00    +0.000 N 
ATOM      8  C   UNL     1       4.089   4.377  18.401  0.00  0.00    +0.000 C 
ATOM      9  O   UNL     1       3.591   5.217  17.661  0.00  0.00    +0.000 OA
ATOM     10  H   UNL     1       5.680   3.240  18.991  0.00  0.00    +0.000 HD
BRANCH   7  12
ATOM     11  C   UNL     1       5.839   4.250  15.805  0.00  0.00    +0.000 C 
ATOM     12  C   UNL     1       6.329   4.259  17.260  0.00  0.00    +0.000 C 
BRANCH  12  13
ATOM     13  C   UNL     1       6.983   5.580  17.622  0.00  0.00    +0.000 A 
ATOM     14  C   UNL     1       7.758   5.681  18.790  0.00  0.00    +0.000 A 
ATOM     15  C   UNL     1       8.383   6.883  19.133  0.00  0.00    +0.000 A 
ATOM     16  C   UNL     1       8.242   7.998  18.309  0.00  0.00    +0.000 A 
ATOM     17  C   UNL     1       7.485   7.911  17.144  0.00  0.00    +0.000 A 
ATOM     18  C   UNL     1       6.863   6.709  16.798  0.00  0.00    +0.000 A 
ENDBRANCH  12  13
ENDBRANCH   7  12
ENDBRANCH   1   8
BRANCH   6  19
ATOM     19  N   UNL     1       1.683   5.849  19.654  0.00  0.00    +0.000 NA
ATOM     20  C   UNL     1       1.970   6.924  20.334  0.00  0.00    +0.000 C 
BRANCH  20  21
ATOM     21  C   UNL     1       1.529   8.264  19.856  0.00  0.00    +0.000 A 
ATOM     22  C   UNL     1       1.935   8.699  18.583  0.00  0.00    +0.000 A 
ATOM     23  C   UNL     1       1.741  10.014  18.185  0.00  0.00    +0.000 A 
ATOM     24  C   UNL     1       1.180  10.925  19.074  0.00  0.00    +0.000 A 
ATOM     25  C   UNL     1       0.690  10.505  20.318  0.00  0.00    +0.000 A 
ATOM     26  C   UNL     1       0.072  11.440  21.164  0.00  0.00    +0.000 A 
ATOM     27  C   UNL     1      -0.550  11.037  22.342  0.00  0.00    +0.000 A 
ATOM     28  C   UNL     1      -0.543   9.696  22.696  0.00  0.00    +0.000 A 
ATOM     29  C   UNL     1       0.144   8.767  21.909  0.00  0.00    +0.000 A 
ATOM     30  C   UNL     1       0.796   9.142  20.707  0.00  0.00    +0.000 A 
BRANCH  22  31
ATOM     31  O   UNL     1       2.524   7.875  17.660  0.00  0.00    +0.000 OA
ATOM     32  H   UNL     1       3.422   8.232  17.484  0.00  0.00    +0.000 HD
ENDBRANCH  22  31
ENDBRANCH  20  21
ENDBRANCH   6  19
TORSDOF 6
ENDMDL
MODEL 2
REMARK VINA RESULT:      -8.7      1.212      2.408
REMARK  Name = 
REMARK  7 active torsions:
REMARK  status: ('A' for Active; 'I' for Inactive)
REMARK    1  A    between atoms: C_1  and  C_2
REMARK    2  A    between atoms: C_2  and  N_3
REMARK    3  A    between atoms: C_2  and  C_25
REMARK    4  A    between atoms: C_4  and  C_6
REMARK    5  A    between atoms: C_11  and  N_12
REMARK    6  A    between atoms: C_13  and  C_14
REMARK    7  A    between atoms: C_15  and  O_16
REMARK                            x       y       z     vdW  Elec       q    Type
REMARK                         _______ _______ _______ _____ _____    ______ ____
ROOT
ATOM      1  C   UNL     1       3.979   4.239  19.536  0.00  0.00    +0.000 A 
ATOM      2  C   UNL     1       4.324   2.985  20.082  0.00  0.00    +0.000 A 
ATOM      3  C   UNL     1       3.383   2.218  20.762  0.00  0.00    +0.000 A 
ATOM      4  C   UNL     1       2.085   2.692  20.895  0.00  0.00    +0.000 A 
ATOM      5  C   UNL     1       1.746   3.955  20.395  0.00  0.00    +0.000 A 
ATOM      6  C   UNL     1       2.689   4.769  19.746  0.00  0.00    +0.000 A 
ENDROOT
BRANCH   1   8
ATOM      7  N   UNL     1       4.637   5.815  17.788  0.00  0.00    +0.000 N 
ATOM      8  C   UNL     1       5.046   4.910  18.738  0.00  0.00    +0.000 C 
ATOM      9  O   UNL     1       6.211   4.598  18.953  0.00  0.00    +0.000 OA
ATOM     10  H   UNL     1       3.639   5.900  17.636  0.00  0.00    +0.000 HD
BRANCH   7  12
ATOM     11  C   UNL     1       6.771   7.105  17.387  0.00  0.00    +0.000 C 
ATOM     12  C   UNL     1       5.499   6.466  16.813  0.00  0.00    +0.000 C 
BRANCH  12  13
ATOM     13  C   UNL     1       5.808   5.568  15.630  0.00  0.00    +0.000 A 
ATOM     14  C   UNL     1       7.083   5.602  15.038  0.00  0.00    +0.000 A 
ATOM     15  C   UNL     1       7.394   4.772  13.959  0.00  0.00    +0.000 A 
ATOM     16  C   UNL     1       6.434   3.894  13.459  0.00  0.00    +0.000 A 
ATOM     17  C   UNL     1       5.169   3.843  14.039  0.00  0.00    +0.000 A 
ATOM     18  C   UNL     1       4.859   4.670  15.121  0.00  0.00    +0.000 A 
ENDBRANCH  12  13
ENDBRANCH   7  12
ENDBRANCH   1   8
BRANCH   6  19
ATOM     19  N   UNL     1       2.230   6.036  19.312  0.00  0.00    +0.000 NA
ATOM     20  C   UNL     1       1.966   6.952  20.201  0.00  0.00    +0.000 C 
BRANCH  20  21
ATOM     21  C   UNL     1       1.551   8.320  19.780  0.00  0.00    +0.000 A 
ATOM     22  C   UNL     1       1.975   8.804  18.530  0.00  0.00    +0.000 A 
ATOM     23  C   UNL     1       1.806  10.139  18.190  0.00  0.00    +0.000 A 
ATOM     24  C   UNL     1       1.253  11.018  19.115  0.00  0.00    +0.000 A 
ATOM     25  C   UNL     1       0.746  10.551  20.335  0.00  0.00    +0.000 A 
ATOM     26  C   UNL     1       0.136  11.458  21.218  0.00  0.00    +0.000 A 
ATOM     27  C   UNL     1      -0.502  11.013  22.372  0.00  0.00    +0.000 A 
ATOM     28  C   UNL     1      -0.520   9.657  22.666  0.00  0.00    +0.000 A 
ATOM     29  C   UNL     1       0.158   8.753  21.843  0.00  0.00    +0.000 A 
ATOM     30  C   UNL     1       0.826   9.171  20.664  0.00  0.00    +0.000 A 
BRANCH  22  31
ATOM     31  O   UNL     1       2.558   8.012  17.576  0.00  0.00    +0.000 OA
ATOM     32  H   UNL     1       2.685   7.124  17.976  0.00  0.00    +0.000 HD
ENDBRANCH  22  31
ENDBRANCH  20  21
ENDBRANCH   6  19
TORSDOF 6
ENDMDL
MODEL 3
REMARK VINA RESULT:      -8.6      1.205      2.299
REMARK  Name = 
REMARK  7 active torsions:
REMARK  status: ('A' for Active; 'I' for Inactive)
REMARK    1  A    between atoms: C_1  and  C_2
REMARK    2  A    between atoms: C_2  and  N_3
REMARK    3  A    between atoms: C_2  and  C_25
REMARK    4  A    between atoms: C_4  and  C_6
REMARK    5  A    between atoms: C_11  and  N_12
REMARK    6  A    between atoms: C_13  and  C_14
REMARK    7  A    between atoms: C_15  and  O_16
REMARK                            x       y       z     vdW  Elec       q    Type
REMARK                         _______ _______ _______ _____ _____    ______ ____
ROOT
ATOM      1  C   UNL     1       3.325   4.524  19.597  0.00  0.00    +0.000 A 
ATOM      2  C   UNL     1       3.738   3.267  20.085  0.00  0.00    +0.000 A 
ATOM      3  C   UNL     1       2.893   2.493  20.875  0.00  0.00    +0.000 A 
ATOM      4  C   UNL     1       1.622   2.963  21.176  0.00  0.00    +0.000 A 
ATOM      5  C   UNL     1       1.220   4.229  20.733  0.00  0.00    +0.000 A 
ATOM      6  C   UNL     1       2.072   5.050  19.974  0.00  0.00    +0.000 A 
ENDROOT
BRANCH   1   8
ATOM      7  N   UNL     1       5.393   4.493  18.295  0.00  0.00    +0.000 N 
ATOM      8  C   UNL     1       4.280   5.204  18.675  0.00  0.00    +0.000 C 
ATOM      9  O   UNL     1       4.036   6.356  18.337  0.00  0.00    +0.000 OA
ATOM     10  H   UNL     1       5.531   3.590  18.733  0.00  0.00    +0.000 HD
BRANCH   7  12
ATOM     11  C   UNL     1       7.902   4.659  18.065  0.00  0.00    +0.000 C 
ATOM     12  C   UNL     1       6.510   5.016  17.525  0.00  0.00    +0.000 C 
BRANCH  12  13
ATOM     13  C   UNL     1       6.386   4.702  16.046  0.00  0.00    +0.000 A 
ATOM     14  C   UNL     1       7.410   5.080  15.160  0.00  0.00    +0.000 A 
ATOM     15  C   UNL     1       7.323   4.785  13.798  0.00  0.00    +0.000 A 
ATOM     16  C   UNL     1       6.212   4.104  13.304  0.00  0.00    +0.000 A 
ATOM     17  C   UNL     1       5.193   3.716  14.170  0.00  0.00    +0.000 A 
ATOM     18  C   UNL     1       5.281   4.007  15.533  0.00  0.00    +0.000 A 
ENDBRANCH  12  13
ENDBRANCH   7  12
ENDBRANCH   1   8
BRANCH   6  19
ATOM     19  N   UNL     1       1.559   6.318  19.613  0.00  0.00    +0.000 NA
ATOM     20  C   UNL     1       1.661   7.306  20.456  0.00  0.00    +0.000 C 
BRANCH  20  21
ATOM     21  C   UNL     1       1.199   8.674  20.083  0.00  0.00    +0.000 A 
ATOM     22  C   UNL     1       1.557   9.192  18.827  0.00  0.00    +0.000 A 
ATOM     23  C   UNL     1       1.346  10.529  18.522  0.00  0.00    +0.000 A 
ATOM     24  C   UNL     1       0.816  11.378  19.489  0.00  0.00    +0.000 A 
ATOM     25  C   UNL     1       0.373  10.875  20.720  0.00  0.00    +0.000 A 
ATOM     26  C   UNL     1      -0.215  11.751  21.648  0.00  0.00    +0.000 A 
ATOM     27  C   UNL     1      -0.793  11.269  22.818  0.00  0.00    +0.000 A 
ATOM     28  C   UNL     1      -0.770   9.907  23.084  0.00  0.00    +0.000 A 
ATOM     29  C   UNL     1      -0.110   9.035  22.214  0.00  0.00    +0.000 A 
ATOM     30  C   UNL     1       0.496   9.491  21.016  0.00  0.00    +0.000 A 
BRANCH  22  31
ATOM     31  O   UNL     1       2.114   8.432  17.832  0.00  0.00    +0.000 OA
ATOM     32  H   UNL     1       1.762   8.770  16.979  0.00  0.00    +0.000 HD
ENDBRANCH  22  31
ENDBRANCH  20  21
ENDBRANCH   6  19
TORSDOF 6
ENDMDL
MODEL 4
REMARK VINA RESULT:      -8.6      1.658      2.935
REMARK  Name = 
REMARK  7 active torsions:
REMARK  status: ('A' for Active; 'I' for Inactive)
REMARK    1  A    between atoms: C_1  and  C_2
REMARK    2  A    between atoms: C_2  and  N_3
REMARK    3  A    between atoms: C_2  and  C_25
REMARK    4  A    between atoms: C_4  and  C_6
REMARK    5  A    between atoms: C_11  and  N_12
REMARK    6  A    between atoms: C_13  and  C_14
REMARK    7  A    between atoms: C_15  and  O_16
REMARK                            x       y       z     vdW  Elec       q    Type
REMARK                         _______ _______ _______ _____ _____    ______ ____
ROOT
ATOM      1  C   UNL     1       3.507   4.611  18.392  0.00  0.00    +0.000 A 
ATOM      2  C   UNL     1       3.958   3.297  18.633  0.00  0.00    +0.000 A 
ATOM      3  C   UNL     1       3.150   2.372  19.290  0.00  0.00    +0.000 A 
ATOM      4  C   UNL     1       1.879   2.749  19.703  0.00  0.00    +0.000 A 
ATOM      5  C   UNL     1       1.442   4.065  19.507  0.00  0.00    +0.000 A 
ATOM      6  C   UNL     1       2.255   5.029  18.889  0.00  0.00    +0.000 A 
ENDROOT
BRANCH   1   8
ATOM      7  N   UNL     1       5.112   4.858  16.566  0.00  0.00    +0.000 N 
ATOM      8  C   UNL     1       4.421   5.469  17.585  0.00  0.00    +0.000 C 
ATOM      9  O   UNL     1       4.527   6.650  17.892  0.00  0.00    +0.000 OA
ATOM     10  H   UNL     1       5.017   3.852  16.487  0.00  0.00    +0.000 HD
BRANCH   7  12
ATOM     11  C   UNL     1       7.505   5.658  16.464  0.00  0.00    +0.000 C 
ATOM     12  C   UNL     1       6.154   5.475  15.759  0.00  0.00    +0.000 C 
BRANCH  12  13
ATOM     13  C   UNL     1       6.313   4.798  14.411  0.00  0.00    +0.000 A 
ATOM     14  C   UNL     1       5.328   3.905  13.955  0.00  0.00    +0.000 A 
ATOM     15  C   UNL     1       5.447   3.284  12.709  0.00  0.00    +0.000 A 
ATOM     16  C   UNL     1       6.551   3.550  11.903  0.00  0.00    +0.000 A 
ATOM     17  C   UNL     1       7.531   4.439  12.337  0.00  0.00    +0.000 A 
ATOM     18  C   UNL     1       7.411   5.064  13.580  0.00  0.00    +0.000 A 
ENDBRANCH  12  13
ENDBRANCH   7  12
ENDBRANCH   1   8
BRANCH   6  19
ATOM     19  N   UNL     1       1.708   6.330  18.777  0.00  0.00    +0.000 NA
ATOM     20  C   UNL     1       1.965   7.207  19.705  0.00  0.00    +0.000 C 
BRANCH  20  21
ATOM     21  C   UNL     1       1.468   8.607  19.585  0.00  0.00    +0.000 A 
ATOM     22  C   UNL     1       1.810   9.354  18.444  0.00  0.00    +0.000 A 
ATOM     23  C   UNL     1       1.565  10.718  18.386  0.00  0.00    +0.000 A 
ATOM     24  C   UNL     1       1.015  11.364  19.489  0.00  0.00    +0.000 A 
ATOM     25  C   UNL     1       0.587  10.636  20.608  0.00  0.00    +0.000 A 
ATOM     26  C   UNL     1      -0.022  11.313  21.677  0.00  0.00    +0.000 A 
ATOM     27  C   UNL     1      -0.585  10.613  22.739  0.00  0.00    +0.000 A 
ATOM     28  C   UNL     1      -0.527   9.227  22.754  0.00  0.00    +0.000 A 
ATOM     29  C   UNL     1       0.154   8.544  21.741  0.00  0.00    +0.000 A 
ATOM     30  C   UNL     1       0.746   9.224  20.648  0.00  0.00    +0.000 A 
BRANCH  22  31
ATOM     31  O   UNL     1       2.384   8.802  17.329  0.00  0.00    +0.000 OA
ATOM     32  H   UNL     1       1.657   8.428  16.784  0.00  0.00    +0.000 HD
ENDBRANCH  22  31
ENDBRANCH  20  21
ENDBRANCH   6  19
TORSDOF 6
ENDMDL
MODEL 5
REMARK VINA RESULT:      -8.5      6.756     10.518
REMARK  Name = 
REMARK  7 active torsions:
REMARK  status: ('A' for Active; 'I' for Inactive)
REMARK    1  A    between atoms: C_1  and  C_2
REMARK    2  A    between atoms: C_2  and  N_3
REMARK    3  A    between atoms: C_2  and  C_25
REMARK    4  A    between atoms: C_4  and  C_6
REMARK    5  A    between atoms: C_11  and  N_12
REMARK    6  A    between atoms: C_13  and  C_14
REMARK    7  A    between atoms: C_15  and  O_16
REMARK                            x       y       z     vdW  Elec       q    Type
REMARK                         _______ _______ _______ _____ _____    ______ ____
ROOT
ATOM      1  C   UNL     1      -6.481  12.833  21.606  0.00  0.00    +0.000 A 
ATOM      2  C   UNL     1      -7.664  12.976  22.361  0.00  0.00    +0.000 A 
ATOM      3  C   UNL     1      -7.677  13.723  23.535  0.00  0.00    +0.000 A 
ATOM      4  C   UNL     1      -6.511  14.343  23.961  0.00  0.00    +0.000 A 
ATOM      5  C   UNL     1      -5.322  14.169  23.242  0.00  0.00    +0.000 A 
ATOM      6  C   UNL     1      -5.272  13.382  22.080  0.00  0.00    +0.000 A 
ENDROOT
BRANCH   1   8
ATOM      7  N   UNL     1      -5.735  12.417  19.316  0.00  0.00    +0.000 N 
ATOM      8  C   UNL     1      -6.625  12.101  20.315  0.00  0.00    +0.000 C 
ATOM      9  O   UNL     1      -7.536  11.289  20.209  0.00  0.00    +0.000 OA
ATOM     10  H   UNL     1      -5.099  13.185  19.496  0.00  0.00    +0.000 HD
BRANCH   7  12
ATOM     11  C   UNL     1      -6.287  12.948  16.910  0.00  0.00    +0.000 C 
ATOM     12  C   UNL     1      -5.791  11.930  17.946  0.00  0.00    +0.000 C 
BRANCH  12  13
ATOM     13  C   UNL     1      -4.489  11.281  17.515  0.00  0.00    +0.000 A 
ATOM     14  C   UNL     1      -4.284  10.953  16.164  0.00  0.00    +0.000 A 
ATOM     15  C   UNL     1      -3.086  10.370  15.743  0.00  0.00    +0.000 A 
ATOM     16  C   UNL     1      -2.077  10.111  16.668  0.00  0.00    +0.000 A 
ATOM     17  C   UNL     1      -2.262  10.438  18.008  0.00  0.00    +0.000 A 
ATOM     18  C   UNL     1      -3.458  11.024  18.430  0.00  0.00    +0.000 A 
ENDBRANCH  12  13
ENDBRANCH   7  12
ENDBRANCH   1   8
BRANCH   6  19
ATOM     19  N   UNL     1      -4.004  13.261  21.460  0.00  0.00    +0.000 NA
ATOM     20  C   UNL     1      -3.030  12.696  22.116  0.00  0.00    +0.000 C 
BRANCH  20  21
ATOM     21  C   UNL     1      -1.704  12.484  21.471  0.00  0.00    +0.000 A 
ATOM     22  C   UNL     1      -1.324  13.322  20.407  0.00  0.00    +0.000 A 
ATOM     23  C   UNL     1      -0.210  13.029  19.634  0.00  0.00    +0.000 A 
ATOM     24  C   UNL     1       0.514  11.868  19.885  0.00  0.00    +0.000 A 
ATOM     25  C   UNL     1       0.211  11.057  20.987  0.00  0.00    +0.000 A 
ATOM     26  C   UNL     1       1.003   9.927  21.247  0.00  0.00    +0.000 A 
ATOM     27  C   UNL     1       0.823   9.178  22.406  0.00  0.00    +0.000 A 
ATOM     28  C   UNL     1      -0.166   9.541  23.309  0.00  0.00    +0.000 A 
ATOM     29  C   UNL     1      -1.019  10.610  23.021  0.00  0.00    +0.000 A 
ATOM     30  C   UNL     1      -0.871  11.390  21.846  0.00  0.00    +0.000 A 
BRANCH  22  31
ATOM     31  O   UNL     1      -2.000  14.466  20.074  0.00  0.00    +0.000 OA
ATOM     32  H   UNL     1      -1.451  14.945  19.415  0.00  0.00    +0.000 HD
ENDBRANCH  22  31
ENDBRANCH  20  21
ENDBRANCH   6  19
TORSDOF 6
ENDMDL
MODEL 6
REMARK VINA RESULT:      -8.3      1.965      3.419
REMARK  Name = 
REMARK  7 active torsions:
REMARK  status: ('A' for Active; 'I' for Inactive)
REMARK    1  A    between atoms: C_1  and  C_2
REMARK    2  A    between atoms: C_2  and  N_3
REMARK    3  A    between atoms: C_2  and  C_25
REMARK    4  A    between atoms: C_4  and  C_6
REMARK    5  A    between atoms: C_11  and  N_12
REMARK    6  A    between atoms: C_13  and  C_14
REMARK    7  A    between atoms: C_15  and  O_16
REMARK                            x       y       z     vdW  Elec       q    Type
REMARK                         _______ _______ _______ _____ _____    ______ ____
ROOT
ATOM      1  C   UNL     1       3.737   4.391  18.004  0.00  0.00    +0.000 A 
ATOM      2  C   UNL     1       4.216   3.096  18.289  0.00  0.00    +0.000 A 
ATOM      3  C   UNL     1       3.529   2.254  19.158  0.00  0.00    +0.000 A 
ATOM      4  C   UNL     1       2.349   2.694  19.743  0.00  0.00    +0.000 A 
ATOM      5  C   UNL     1       1.891   3.995  19.500  0.00  0.00    +0.000 A 
ATOM      6  C   UNL     1       2.591   4.881  18.664  0.00  0.00    +0.000 A 
ENDROOT
BRANCH   1   8
ATOM      7  N   UNL     1       5.000   4.435  15.912  0.00  0.00    +0.000 N 
ATOM      8  C   UNL     1       4.505   5.151  16.975  0.00  0.00    +0.000 C 
ATOM      9  O   UNL     1       4.673   6.352  17.150  0.00  0.00    +0.000 OA
ATOM     10  H   UNL     1       4.883   3.429  15.943  0.00  0.00    +0.000 HD
BRANCH   7  12
ATOM     11  C   UNL     1       7.349   5.147  15.319  0.00  0.00    +0.000 C 
ATOM     12  C   UNL     1       5.890   4.952  14.884  0.00  0.00    +0.000 C 
BRANCH  12  13
ATOM     13  C   UNL     1       5.792   4.164  13.591  0.00  0.00    +0.000 A 
ATOM     14  C   UNL     1       6.962   3.719  12.951  0.00  0.00    +0.000 A 
ATOM     15  C   UNL     1       6.894   2.978  11.769  0.00  0.00    +0.000 A 
ATOM     16  C   UNL     1       5.654   2.670  11.213  0.00  0.00    +0.000 A 
ATOM     17  C   UNL     1       4.486   3.097  11.839  0.00  0.00    +0.000 A 
ATOM     18  C   UNL     1       4.553   3.835  13.023  0.00  0.00    +0.000 A 
ENDBRANCH  12  13
ENDBRANCH   7  12
ENDBRANCH   1   8
BRANCH   6  19
ATOM     19  N   UNL     1       2.039   6.176  18.523  0.00  0.00    +0.000 NA
ATOM     20  C   UNL     1       2.186   7.036  19.491  0.00  0.00    +0.000 C 
BRANCH  20  21
ATOM     21  C   UNL     1       1.684   8.432  19.350  0.00  0.00    +0.000 A 
ATOM     22  C   UNL     1       2.034   9.167  18.204  0.00  0.00    +0.000 A 
ATOM     23  C   UNL     1       1.782  10.530  18.128  0.00  0.00    +0.000 A 
ATOM     24  C   UNL     1       1.217  11.185  19.218  0.00  0.00    +0.000 A 
ATOM     25  C   UNL     1       0.782  10.467  20.340  0.00  0.00    +0.000 A 
ATOM     26  C   UNL     1       0.158  11.154  21.395  0.00  0.00    +0.000 A 
ATOM     27  C   UNL     1      -0.413  10.463  22.459  0.00  0.00    +0.000 A 
ATOM     28  C   UNL     1      -0.348   9.077  22.490  0.00  0.00    +0.000 A 
ATOM     29  C   UNL     1       0.347   8.386  21.493  0.00  0.00    +0.000 A 
ATOM     30  C   UNL     1       0.947   9.057  20.398  0.00  0.00    +0.000 A 
BRANCH  22  31
ATOM     31  O   UNL     1       2.622   8.605  17.102  0.00  0.00    +0.000 OA
ATOM     32  H   UNL     1       2.237   7.708  16.994  0.00  0.00    +0.000 HD
ENDBRANCH  22  31
ENDBRANCH  20  21
ENDBRANCH   6  19
TORSDOF 6
ENDMDL
MODEL 7
REMARK VINA RESULT:      -8.2      1.656      2.808
REMARK  Name = 
REMARK  7 active torsions:
REMARK  status: ('A' for Active; 'I' for Inactive)
REMARK    1  A    between atoms: C_1  and  C_2
REMARK    2  A    between atoms: C_2  and  N_3
REMARK    3  A    between atoms: C_2  and  C_25
REMARK    4  A    between atoms: C_4  and  C_6
REMARK    5  A    between atoms: C_11  and  N_12
REMARK    6  A    between atoms: C_13  and  C_14
REMARK    7  A    between atoms: C_15  and  O_16
REMARK                            x       y       z     vdW  Elec       q    Type
REMARK                         _______ _______ _______ _____ _____    ______ ____
ROOT
ATOM      1  C   UNL     1       3.658   3.947  18.546  0.00  0.00    +0.000 A 
ATOM      2  C   UNL     1       3.965   2.603  18.843  0.00  0.00    +0.000 A 
ATOM      3  C   UNL     1       2.970   1.712  19.233  0.00  0.00    +0.000 A 
ATOM      4  C   UNL     1       1.657   2.152  19.321  0.00  0.00    +0.000 A 
ATOM      5  C   UNL     1       1.351   3.495  19.072  0.00  0.00    +0.000 A 
ATOM      6  C   UNL     1       2.343   4.426  18.722  0.00  0.00    +0.000 A 
ENDROOT
BRANCH   1   8
ATOM      7  N   UNL     1       4.729   5.173  16.723  0.00  0.00    +0.000 N 
ATOM      8  C   UNL     1       4.793   4.770  18.036  0.00  0.00    +0.000 C 
ATOM      9  O   UNL     1       5.720   5.013  18.799  0.00  0.00    +0.000 OA
ATOM     10  H   UNL     1       3.960   4.813  16.170  0.00  0.00    +0.000 HD
BRANCH   7  12
ATOM     11  C   UNL     1       7.043   6.180  16.815  0.00  0.00    +0.000 C 
ATOM     12  C   UNL     1       5.788   5.853  15.994  0.00  0.00    +0.000 C 
BRANCH  12  13
ATOM     13  C   UNL     1       6.137   5.147  14.697  0.00  0.00    +0.000 A 
ATOM     14  C   UNL     1       7.335   5.456  14.031  0.00  0.00    +0.000 A 
ATOM     15  C   UNL     1       7.683   4.805  12.845  0.00  0.00    +0.000 A 
ATOM     16  C   UNL     1       6.837   3.836  12.311  0.00  0.00    +0.000 A 
ATOM     17  C   UNL     1       5.650   3.513  12.963  0.00  0.00    +0.000 A 
ATOM     18  C   UNL     1       5.303   4.160  14.151  0.00  0.00    +0.000 A 
ENDBRANCH  12  13
ENDBRANCH   7  12
ENDBRANCH   1   8
BRANCH   6  19
ATOM     19  N   UNL     1       1.910   5.759  18.524  0.00  0.00    +0.000 NA
ATOM     20  C   UNL     1       2.201   6.659  19.421  0.00  0.00    +0.000 C 
BRANCH  20  21
ATOM     21  C   UNL     1       1.826   8.086  19.213  0.00  0.00    +0.000 A 
ATOM     22  C   UNL     1       2.301   8.754  18.071  0.00  0.00    +0.000 A 
ATOM     23  C   UNL     1       2.169  10.129  17.944  0.00  0.00    +0.000 A 
ATOM     24  C   UNL     1       1.601  10.862  18.981  0.00  0.00    +0.000 A 
ATOM     25  C   UNL     1       1.044  10.218  20.095  0.00  0.00    +0.000 A 
ATOM     26  C   UNL     1       0.422  10.986  21.092  0.00  0.00    +0.000 A 
ATOM     27  C   UNL     1      -0.264  10.378  22.139  0.00  0.00    +0.000 A 
ATOM     28  C   UNL     1      -0.317   8.994  22.211  0.00  0.00    +0.000 A 
ATOM     29  C   UNL     1       0.372   8.217  21.275  0.00  0.00    +0.000 A 
ATOM     30  C   UNL     1       1.087   8.802  20.199  0.00  0.00    +0.000 A 
BRANCH  22  31
ATOM     31  O   UNL     1       2.901   8.111  17.020  0.00  0.00    +0.000 OA
ATOM     32  H   UNL     1       3.459   8.773  16.556  0.00  0.00    +0.000 HD
ENDBRANCH  22  31
ENDBRANCH  20  21
ENDBRANCH   6  19
TORSDOF 6
ENDMDL
MODEL 8
REMARK VINA RESULT:      -8.2      1.114      2.187
REMARK  Name = 
REMARK  7 active torsions:
REMARK  status: ('A' for Active; 'I' for Inactive)
REMARK    1  A    between atoms: C_1  and  C_2
REMARK    2  A    between atoms: C_2  and  N_3
REMARK    3  A    between atoms: C_2  and  C_25
REMARK    4  A    between atoms: C_4  and  C_6
REMARK    5  A    between atoms: C_11  and  N_12
REMARK    6  A    between atoms: C_13  and  C_14
REMARK    7  A    between atoms: C_15  and  O_16
REMARK                            x       y       z     vdW  Elec       q    Type
REMARK                         _______ _______ _______ _____ _____    ______ ____
ROOT
ATOM      1  C   UNL     1       3.542   3.852  20.096  0.00  0.00    +0.000 A 
ATOM      2  C   UNL     1       3.606   2.642  20.818  0.00  0.00    +0.000 A 
ATOM      3  C   UNL     1       2.485   2.142  21.476  0.00  0.00    +0.000 A 
ATOM      4  C   UNL     1       1.287   2.840  21.408  0.00  0.00    +0.000 A 
ATOM      5  C   UNL     1       1.228   4.064  20.731  0.00  0.00    +0.000 A 
ATOM      6  C   UNL     1       2.356   4.614  20.100  0.00  0.00    +0.000 A 
ENDROOT
BRANCH   1   8
ATOM      7  N   UNL     1       5.037   5.564  19.196  0.00  0.00    +0.000 N 
ATOM      8  C   UNL     1       4.779   4.222  19.349  0.00  0.00    +0.000 C 
ATOM      9  O   UNL     1       5.470   3.320  18.893  0.00  0.00    +0.000 OA
ATOM     10  H   UNL     1       4.328   6.207  19.527  0.00  0.00    +0.000 HD
BRANCH   7  12
ATOM     11  C   UNL     1       7.499   6.096  19.017  0.00  0.00    +0.000 C 
ATOM     12  C   UNL     1       6.101   6.135  18.385  0.00  0.00    +0.000 C 
BRANCH  12  13
ATOM     13  C   UNL     1       6.109   5.576  16.974  0.00  0.00    +0.000 A 
ATOM     14  C   UNL     1       5.108   5.956  16.064  0.00  0.00    +0.000 A 
ATOM     15  C   UNL     1       5.107   5.467  14.755  0.00  0.00    +0.000 A 
ATOM     16  C   UNL     1       6.110   4.593  14.340  0.00  0.00    +0.000 A 
ATOM     17  C   UNL     1       7.114   4.214  15.227  0.00  0.00    +0.000 A 
ATOM     18  C   UNL     1       7.118   4.706  16.534  0.00  0.00    +0.000 A 
ENDBRANCH  12  13
ENDBRANCH   7  12
ENDBRANCH   1   8
BRANCH   6  19
ATOM     19  N   UNL     1       2.172   5.871  19.474  0.00  0.00    +0.000 NA
ATOM     20  C   UNL     1       1.730   6.872  20.182  0.00  0.00    +0.000 C 
BRANCH  20  21
ATOM     21  C   UNL     1       1.594   8.227  19.577  0.00  0.00    +0.000 A 
ATOM     22  C   UNL     1       2.227   8.490  18.350  0.00  0.00    +0.000 A 
ATOM     23  C   UNL     1       2.317   9.785  17.860  0.00  0.00    +0.000 A 
ATOM     24  C   UNL     1       1.817  10.841  18.613  0.00  0.00    +0.000 A 
ATOM     25  C   UNL     1       1.108  10.604  19.800  0.00  0.00    +0.000 A 
ATOM     26  C   UNL     1       0.562  11.691  20.502  0.00  0.00    +0.000 A 
ATOM     27  C   UNL     1      -0.265  11.487  21.603  0.00  0.00    +0.000 A 
ATOM     28  C   UNL     1      -0.537  10.194  22.026  0.00  0.00    +0.000 A 
ATOM     29  C   UNL     1       0.071   9.107  21.391  0.00  0.00    +0.000 A 
ATOM     30  C   UNL     1       0.924   9.276  20.272  0.00  0.00    +0.000 A 
BRANCH  22  31
ATOM     31  O   UNL     1       2.774   7.512  17.562  0.00  0.00    +0.000 OA
ATOM     32  H   UNL     1       2.057   7.172  16.983  0.00  0.00    +0.000 HD
ENDBRANCH  22  31
ENDBRANCH  20  21
ENDBRANCH   6  19
TORSDOF 6
ENDMDL
MODEL 9
REMARK VINA RESULT:      -8.1      6.382     10.273
REMARK  Name = 
REMARK  7 active torsions:
REMARK  status: ('A' for Active; 'I' for Inactive)
REMARK    1  A    between atoms: C_1  and  C_2
REMARK    2  A    between atoms: C_2  and  N_3
REMARK    3  A    between atoms: C_2  and  C_25
REMARK    4  A    between atoms: C_4  and  C_6
REMARK    5  A    between atoms: C_11  and  N_12
REMARK    6  A    between atoms: C_13  and  C_14
REMARK    7  A    between atoms: C_15  and  O_16
REMARK                            x       y       z     vdW  Elec       q    Type
REMARK                         _______ _______ _______ _____ _____    ______ ____
ROOT
ATOM      1  C   UNL     1      -5.623  13.056  21.944  0.00  0.00    +0.000 A 
ATOM      2  C   UNL     1      -6.656  13.781  22.573  0.00  0.00    +0.000 A 
ATOM      3  C   UNL     1      -6.371  14.747  23.533  0.00  0.00    +0.000 A 
ATOM      4  C   UNL     1      -5.048  15.006  23.866  0.00  0.00    +0.000 A 
ATOM      5  C   UNL     1      -4.019  14.260  23.279  0.00  0.00    +0.000 A 
ATOM      6  C   UNL     1      -4.284  13.247  22.343  0.00  0.00    +0.000 A 
ENDROOT
BRANCH   1   8
ATOM      7  N   UNL     1      -5.400  12.234  19.653  0.00  0.00    +0.000 N 
ATOM      8  C   UNL     1      -6.054  12.129  20.858  0.00  0.00    +0.000 C 
ATOM      9  O   UNL     1      -6.976  11.356  21.089  0.00  0.00    +0.000 OA
ATOM     10  H   UNL     1      -4.731  12.988  19.560  0.00  0.00    +0.000 HD
BRANCH   7  12
ATOM     11  C   UNL     1      -6.785  12.248  17.541  0.00  0.00    +0.000 C 
ATOM     12  C   UNL     1      -5.759  11.531  18.431  0.00  0.00    +0.000 C 
BRANCH  12  13
ATOM     13  C   UNL     1      -4.540  11.096  17.640  0.00  0.00    +0.000 A 
ATOM     14  C   UNL     1      -3.465  10.472  18.296  0.00  0.00    +0.000 A 
ATOM     15  C   UNL     1      -2.341  10.048  17.584  0.00  0.00    +0.000 A 
ATOM     16  C   UNL     1      -2.279  10.240  16.205  0.00  0.00    +0.000 A 
ATOM     17  C   UNL     1      -3.339  10.849  15.539  0.00  0.00    +0.000 A 
ATOM     18  C   UNL     1      -4.466  11.270  16.250  0.00  0.00    +0.000 A 
ENDBRANCH  12  13
ENDBRANCH   7  12
ENDBRANCH   1   8
BRANCH   6  19
ATOM     19  N   UNL     1      -3.160  12.546  21.845  0.00  0.00    +0.000 NA
ATOM     20  C   UNL     1      -2.332  13.161  21.048  0.00  0.00    +0.000 C 
BRANCH  20  21
ATOM     21  C   UNL     1      -1.098  12.480  20.562  0.00  0.00    +0.000 A 
ATOM     22  C   UNL     1      -0.528  12.894  19.346  0.00  0.00    +0.000 A 
ATOM     23  C   UNL     1       0.479  12.154  18.744  0.00  0.00    +0.000 A 
ATOM     24  C   UNL     1       0.898  10.963  19.328  0.00  0.00    +0.000 A 
ATOM     25  C   UNL     1       0.408  10.566  20.580  0.00  0.00    +0.000 A 
ATOM     26  C   UNL     1       0.901   9.390  21.168  0.00  0.00    +0.000 A 
ATOM     27  C   UNL     1       0.546   9.037  22.467  0.00  0.00    +0.000 A 
ATOM     28  C   UNL     1      -0.322   9.848  23.184  0.00  0.00    +0.000 A 
ATOM     29  C   UNL     1      -0.889  10.974  22.580  0.00  0.00    +0.000 A 
ATOM     30  C   UNL     1      -0.558  11.359  21.256  0.00  0.00    +0.000 A 
BRANCH  22  31
ATOM     31  O   UNL     1      -0.905  14.036  18.690  0.00  0.00    +0.000 OA
ATOM     32  H   UNL     1      -0.262  14.178  17.961  0.00  0.00    +0.000 HD
ENDBRANCH  22  31
ENDBRANCH  20  21
ENDBRANCH   6  19
TORSDOF 6
ENDMDL
