MODEL 1
REMARK VINA RESULT:      -8.6      0.000      0.000
REMARK  Name = 
REMARK  8 active torsions:
REMARK  status: ('A' for Active; 'I' for Inactive)
REMARK    1  A    between atoms: C_1  and  C_2
REMARK    2  A    between atoms: C_2  and  O_3
REMARK    3  A    between atoms: O_3  and  C_4
REMARK    4  A    between atoms: C_4  and  C_6
REMARK    5  A    between atoms: C_9  and  N_10
REMARK    6  A    between atoms: N_10  and  S_11
REMARK    7  A    between atoms: S_11  and  C_14
REMARK    8  A    between atoms: C_24  and  C_25
REMARK                            x       y       z     vdW  Elec       q    Type
REMARK                         _______ _______ _______ _____ _____    ______ ____
ROOT
ATOM      1  S   UNL     1       2.665   5.704  19.309  0.00  0.00    +0.000 S 
ATOM      2  O   UNL     1       2.062   5.223  18.084  0.00  0.00    +0.000 OA
ATOM      3  O   UNL     1       2.555   4.975  20.552  0.00  0.00    +0.000 OA
ENDROOT
BRANCH   1   4
ATOM      4  C   UNL     1       2.093   7.364  19.559  0.00  0.00    +0.000 A 
ATOM      5  C   UNL     1       1.970   8.318  18.556  0.00  0.00    +0.000 A 
ATOM      6  C   UNL     1       1.324   9.542  18.854  0.00  0.00    +0.000 A 
ATOM      7  C   UNL     1       0.808   9.826  20.140  0.00  0.00    +0.000 A 
ATOM      8  C   UNL     1       1.057   8.867  21.135  0.00  0.00    +0.000 A 
ATOM      9  C   UNL     1       1.680   7.655  20.845  0.00  0.00    +0.000 A 
ATOM     10  C   UNL     1       0.738   9.079  22.591  0.00  0.00    +0.000 C 
ATOM     11  C   UNL     1      -0.472   9.942  22.743  0.00  0.00    +0.000 C 
ATOM     12  C   UNL     1      -0.398  11.174  21.868  0.00  0.00    +0.000 C 
ATOM     13  N   UNL     1       0.032  11.004  20.473  0.00  0.00    +0.000 N 
ATOM     14  C   UNL     1      -0.255  12.036  19.554  0.00  0.00    +0.000 C 
ATOM     15  C   UNL     1      -1.079  13.202  20.089  0.00  0.00    +0.000 C 
ATOM     16  O   UNL     1       0.103  12.078  18.374  0.00  0.00    +0.000 OA
ENDBRANCH   1   4
BRANCH   1  17
ATOM     17  N   UNL     1       4.293   5.992  18.962  0.00  0.00    +0.000 N 
ATOM     18  H   UNL     1       4.821   6.555  19.623  0.00  0.00    +0.000 HD
BRANCH  17  22
ATOM     19  C   UNL     1       5.983   5.031  15.237  0.00  0.00    +0.000 A 
ATOM     20  C   UNL     1       5.953   4.088  16.273  0.00  0.00    +0.000 A 
ATOM     21  C   UNL     1       5.368   4.406  17.500  0.00  0.00    +0.000 A 
ATOM     22  C   UNL     1       4.814   5.668  17.693  0.00  0.00    +0.000 A 
ATOM     23  C   UNL     1       4.787   6.596  16.653  0.00  0.00    +0.000 A 
ATOM     24  C   UNL     1       5.377   6.282  15.424  0.00  0.00    +0.000 A 
BRANCH  19  25
ATOM     25  C   UNL     1       6.696   4.664  13.985  0.00  0.00    +0.000 C 
ATOM     26  O   UNL     1       7.469   5.415  13.411  0.00  0.00    +0.000 OA
BRANCH  25  27
ATOM     27  O   UNL     1       6.327   3.428  13.570  0.00  0.00    +0.000 OA
BRANCH  27  29
ATOM     28  C   UNL     1       4.640   3.378  11.834  0.00  0.00    +0.000 C 
ATOM     29  C   UNL     1       6.122   3.289  12.157  0.00  0.00    +0.000 C 
ENDBRANCH  27  29
ENDBRANCH  25  27
ENDBRANCH  19  25
ENDBRANCH  17  22
ENDBRANCH   1  17
TORSDOF 6
ENDMDL
MODEL 2
REMARK VINA RESULT:      -8.4      0.929      1.297
REMARK  Name = 
REMARK  8 active torsions:
REMARK  status: ('A' for Active; 'I' for Inactive)
REMARK    1  A    between atoms: C_1  and  C_2
REMARK    2  A    between atoms: C_2  and  O_3
REMARK    3  A    between atoms: O_3  and  C_4
REMARK    4  A    between atoms: C_4  and  C_6
REMARK    5  A    between atoms: C_9  and  N_10
REMARK    6  A    between atoms: N_10  and  S_11
REMARK    7  A    between atoms: S_11  and  C_14
REMARK    8  A    between atoms: C_24  and  C_25
REMARK                            x       y       z     vdW  Elec       q    Type
REMARK                         _______ _______ _______ _____ _____    ______ ____
ROOT
ATOM      1  S   UNL     1       2.437   5.768  19.809  0.00  0.00    +0.000 S 
ATOM      2  O   UNL     1       1.408   4.941  20.403  0.00  0.00    +0.000 OA
ATOM      3  O   UNL     1       3.823   5.668  20.208  0.00  0.00    +0.000 OA
ENDROOT
BRANCH   1   4
ATOM      4  C   UNL     1       1.910   7.454  19.966  0.00  0.00    +0.000 A 
ATOM      5  C   UNL     1       1.870   8.371  18.922  0.00  0.00    +0.000 A 
ATOM      6  C   UNL     1       1.252   9.627  19.140  0.00  0.00    +0.000 A 
ATOM      7  C   UNL     1       0.683   9.978  20.386  0.00  0.00    +0.000 A 
ATOM      8  C   UNL     1       0.849   9.052  21.428  0.00  0.00    +0.000 A 
ATOM      9  C   UNL     1       1.443   7.809  21.217  0.00  0.00    +0.000 A 
ATOM     10  C   UNL     1       0.465   9.332  22.857  0.00  0.00    +0.000 C 
ATOM     11  C   UNL     1      -0.721  10.239  22.913  0.00  0.00    +0.000 C 
ATOM     12  C   UNL     1      -0.561  11.432  21.997  0.00  0.00    +0.000 C 
ATOM     13  N   UNL     1      -0.068  11.193  20.633  0.00  0.00    +0.000 N 
ATOM     14  C   UNL     1      -0.273  12.196  19.662  0.00  0.00    +0.000 C 
ATOM     15  C   UNL     1      -1.082  13.409  20.109  0.00  0.00    +0.000 C 
ATOM     16  O   UNL     1       0.145  12.180  18.501  0.00  0.00    +0.000 OA
ENDBRANCH   1   4
BRANCH   1  17
ATOM     17  N   UNL     1       2.312   5.563  18.137  0.00  0.00    +0.000 N 
ATOM     18  H   UNL     1       1.380   5.447  17.748  0.00  0.00    +0.000 HD
BRANCH  17  22
ATOM     19  C   UNL     1       5.679   4.888  15.717  0.00  0.00    +0.000 A 
ATOM     20  C   UNL     1       5.286   6.192  16.047  0.00  0.00    +0.000 A 
ATOM     21  C   UNL     1       4.181   6.408  16.871  0.00  0.00    +0.000 A 
ATOM     22  C   UNL     1       3.466   5.321  17.365  0.00  0.00    +0.000 A 
ATOM     23  C   UNL     1       3.879   4.018  17.091  0.00  0.00    +0.000 A 
ATOM     24  C   UNL     1       4.983   3.798  16.262  0.00  0.00    +0.000 A 
BRANCH  19  25
ATOM     25  C   UNL     1       6.809   4.723  14.765  0.00  0.00    +0.000 C 
ATOM     26  O   UNL     1       7.748   5.500  14.700  0.00  0.00    +0.000 OA
BRANCH  25  27
ATOM     27  O   UNL     1       6.613   3.639  13.975  0.00  0.00    +0.000 OA
BRANCH  27  29
ATOM     28  C   UNL     1       5.591   2.886  11.913  0.00  0.00    +0.000 C 
ATOM     29  C   UNL     1       6.495   3.914  12.572  0.00  0.00    +0.000 C 
ENDBRANCH  27  29
ENDBRANCH  25  27
ENDBRANCH  19  25
ENDBRANCH  17  22
ENDBRANCH   1  17
TORSDOF 6
ENDMDL
MODEL 3
REMARK VINA RESULT:      -8.1      3.798      5.631
REMARK  Name = 
REMARK  8 active torsions:
REMARK  status: ('A' for Active; 'I' for Inactive)
REMARK    1  A    between atoms: C_1  and  C_2
REMARK    2  A    between atoms: C_2  and  O_3
REMARK    3  A    between atoms: O_3  and  C_4
REMARK    4  A    between atoms: C_4  and  C_6
REMARK    5  A    between atoms: C_9  and  N_10
REMARK    6  A    between atoms: N_10  and  S_11
REMARK    7  A    between atoms: S_11  and  C_14
REMARK    8  A    between atoms: C_24  and  C_25
REMARK                            x       y       z     vdW  Elec       q    Type
REMARK                         _______ _______ _______ _____ _____    ______ ____
ROOT
ATOM      1  S   UNL     1       6.920   6.490  17.203  0.00  0.00    +0.000 S 
ATOM      2  O   UNL     1       7.881   6.898  18.206  0.00  0.00    +0.000 OA
ATOM      3  O   UNL     1       6.317   7.438  16.293  0.00  0.00    +0.000 OA
ENDROOT
BRANCH   1   4
ATOM      4  C   UNL     1       5.638   5.595  18.039  0.00  0.00    +0.000 A 
ATOM      5  C   UNL     1       5.764   4.298  18.522  0.00  0.00    +0.000 A 
ATOM      6  C   UNL     1       4.732   3.769  19.334  0.00  0.00    +0.000 A 
ATOM      7  C   UNL     1       3.575   4.515  19.661  0.00  0.00    +0.000 A 
ATOM      8  C   UNL     1       3.458   5.776  19.055  0.00  0.00    +0.000 A 
ATOM      9  C   UNL     1       4.477   6.308  18.268  0.00  0.00    +0.000 A 
ATOM     10  C   UNL     1       2.221   6.629  19.148  0.00  0.00    +0.000 C 
ATOM     11  C   UNL     1       1.535   6.419  20.458  0.00  0.00    +0.000 C 
ATOM     12  C   UNL     1       1.383   4.950  20.785  0.00  0.00    +0.000 C 
ATOM     13  N   UNL     1       2.547   4.075  20.583  0.00  0.00    +0.000 N 
ATOM     14  C   UNL     1       2.559   2.818  21.225  0.00  0.00    +0.000 C 
ATOM     15  C   UNL     1       1.386   2.528  22.156  0.00  0.00    +0.000 C 
ATOM     16  O   UNL     1       3.420   1.945  21.097  0.00  0.00    +0.000 OA
ENDBRANCH   1   4
BRANCH   1  17
ATOM     17  N   UNL     1       7.643   5.242  16.326  0.00  0.00    +0.000 N 
ATOM     18  H   UNL     1       8.593   4.980  16.579  0.00  0.00    +0.000 HD
BRANCH  17  22
ATOM     19  C   UNL     1       5.884   3.681  12.844  0.00  0.00    +0.000 A 
ATOM     20  C   UNL     1       5.290   3.480  14.097  0.00  0.00    +0.000 A 
ATOM     21  C   UNL     1       5.867   4.021  15.246  0.00  0.00    +0.000 A 
ATOM     22  C   UNL     1       7.039   4.764  15.145  0.00  0.00    +0.000 A 
ATOM     23  C   UNL     1       7.610   5.020  13.899  0.00  0.00    +0.000 A 
ATOM     24  C   UNL     1       7.037   4.474  12.746  0.00  0.00    +0.000 A 
BRANCH  19  25
ATOM     25  C   UNL     1       5.272   3.007  11.668  0.00  0.00    +0.000 C 
ATOM     26  O   UNL     1       5.455   1.830  11.402  0.00  0.00    +0.000 OA
BRANCH  25  27
ATOM     27  O   UNL     1       4.546   3.889  10.937  0.00  0.00    +0.000 OA
BRANCH  27  29
ATOM     28  C   UNL     1       2.728   4.309   9.395  0.00  0.00    +0.000 C 
ATOM     29  C   UNL     1       3.263   3.418  10.503  0.00  0.00    +0.000 C 
ENDBRANCH  27  29
ENDBRANCH  25  27
ENDBRANCH  19  25
ENDBRANCH  17  22
ENDBRANCH   1  17
TORSDOF 6
ENDMDL
MODEL 4
REMARK VINA RESULT:      -8.1      1.209      2.066
REMARK  Name = 
REMARK  8 active torsions:
REMARK  status: ('A' for Active; 'I' for Inactive)
REMARK    1  A    between atoms: C_1  and  C_2
REMARK    2  A    between atoms: C_2  and  O_3
REMARK    3  A    between atoms: O_3  and  C_4
REMARK    4  A    between atoms: C_4  and  C_6
REMARK    5  A    between atoms: C_9  and  N_10
REMARK    6  A    between atoms: N_10  and  S_11
REMARK    7  A    between atoms: S_11  and  C_14
REMARK    8  A    between atoms: C_24  and  C_25
REMARK                            x       y       z     vdW  Elec       q    Type
REMARK                         _______ _______ _______ _____ _____    ______ ____
ROOT
ATOM      1  S   UNL     1       2.580   5.324  19.759  0.00  0.00    +0.000 S 
ATOM      2  O   UNL     1       2.024   4.798  18.531  0.00  0.00    +0.000 OA
ATOM      3  O   UNL     1       2.572   4.564  20.989  0.00  0.00    +0.000 OA
ENDROOT
BRANCH   1   4
ATOM      4  C   UNL     1       1.818   6.899  20.047  0.00  0.00    +0.000 A 
ATOM      5  C   UNL     1       1.179   7.265  21.226  0.00  0.00    +0.000 A 
ATOM      6  C   UNL     1       0.779   8.613  21.396  0.00  0.00    +0.000 A 
ATOM      7  C   UNL     1       1.002   9.593  20.402  0.00  0.00    +0.000 A 
ATOM      8  C   UNL     1       1.554   9.139  19.194  0.00  0.00    +0.000 A 
ATOM      9  C   UNL     1       1.963   7.818  19.026  0.00  0.00    +0.000 A 
ATOM     10  C   UNL     1       1.698  10.004  17.970  0.00  0.00    +0.000 C 
ATOM     11  C   UNL     1       1.945  11.426  18.357  0.00  0.00    +0.000 C 
ATOM     12  C   UNL     1       0.977  11.895  19.422  0.00  0.00    +0.000 C 
ATOM     13  N   UNL     1       0.728  11.007  20.566  0.00  0.00    +0.000 N 
ATOM     14  C   UNL     1       0.154  11.562  21.731  0.00  0.00    +0.000 C 
ATOM     15  C   UNL     1      -0.068  13.070  21.717  0.00  0.00    +0.000 C 
ATOM     16  O   UNL     1      -0.184  10.940  22.741  0.00  0.00    +0.000 OA
ENDBRANCH   1   4
BRANCH   1  17
ATOM     17  N   UNL     1       4.158   5.810  19.402  0.00  0.00    +0.000 N 
ATOM     18  H   UNL     1       4.625   6.415  20.073  0.00  0.00    +0.000 HD
BRANCH  17  22
ATOM     19  C   UNL     1       5.898   5.142  15.637  0.00  0.00    +0.000 A 
ATOM     20  C   UNL     1       5.956   4.161  16.635  0.00  0.00    +0.000 A 
ATOM     21  C   UNL     1       5.355   4.380  17.875  0.00  0.00    +0.000 A 
ATOM     22  C   UNL     1       4.696   5.581  18.120  0.00  0.00    +0.000 A 
ATOM     23  C   UNL     1       4.582   6.543  17.117  0.00  0.00    +0.000 A 
ATOM     24  C   UNL     1       5.188   6.329  15.875  0.00  0.00    +0.000 A 
BRANCH  19  25
ATOM     25  C   UNL     1       6.631   4.888  14.368  0.00  0.00    +0.000 C 
ATOM     26  O   UNL     1       7.770   5.278  14.163  0.00  0.00    +0.000 OA
BRANCH  25  27
ATOM     27  O   UNL     1       5.844   4.222  13.488  0.00  0.00    +0.000 OA
BRANCH  27  29
ATOM     28  C   UNL     1       5.662   2.546  11.750  0.00  0.00    +0.000 C 
ATOM     29  C   UNL     1       6.531   3.620  12.382  0.00  0.00    +0.000 C 
ENDBRANCH  27  29
ENDBRANCH  25  27
ENDBRANCH  19  25
ENDBRANCH  17  22
ENDBRANCH   1  17
TORSDOF 6
ENDMDL
MODEL 5
REMARK VINA RESULT:      -8.0      2.128      8.115
REMARK  Name = 
REMARK  8 active torsions:
REMARK  status: ('A' for Active; 'I' for Inactive)
REMARK    1  A    between atoms: C_1  and  C_2
REMARK    2  A    between atoms: C_2  and  O_3
REMARK    3  A    between atoms: O_3  and  C_4
REMARK    4  A    between atoms: C_4  and  C_6
REMARK    5  A    between atoms: C_9  and  N_10
REMARK    6  A    between atoms: N_10  and  S_11
REMARK    7  A    between atoms: S_11  and  C_14
REMARK    8  A    between atoms: C_24  and  C_25
REMARK                            x       y       z     vdW  Elec       q    Type
REMARK                         _______ _______ _______ _____ _____    ______ ____
ROOT
ATOM      1  S   UNL     1       1.981   4.453  20.562  0.00  0.00    +0.000 S 
ATOM      2  O   UNL     1       2.368   3.495  21.575  0.00  0.00    +0.000 OA
ATOM      3  O   UNL     1       0.653   4.466  19.990  0.00  0.00    +0.000 OA
ENDROOT
BRANCH   1   4
ATOM      4  C   UNL     1       3.174   4.344  19.254  0.00  0.00    +0.000 A 
ATOM      5  C   UNL     1       2.907   3.863  17.978  0.00  0.00    +0.000 A 
ATOM      6  C   UNL     1       3.896   4.006  16.974  0.00  0.00    +0.000 A 
ATOM      7  C   UNL     1       5.146   4.614  17.233  0.00  0.00    +0.000 A 
ATOM      8  C   UNL     1       5.395   4.982  18.564  0.00  0.00    +0.000 A 
ATOM      9  C   UNL     1       4.421   4.858  19.553  0.00  0.00    +0.000 A 
ATOM     10  C   UNL     1       6.729   5.480  19.052  0.00  0.00    +0.000 C 
ATOM     11  C   UNL     1       7.432   6.241  17.976  0.00  0.00    +0.000 C 
ATOM     12  C   UNL     1       7.415   5.499  16.658  0.00  0.00    +0.000 C 
ATOM     13  N   UNL     1       6.146   4.898  16.222  0.00  0.00    +0.000 N 
ATOM     14  C   UNL     1       6.003   4.549  14.862  0.00  0.00    +0.000 C 
ATOM     15  C   UNL     1       7.165   4.922  13.947  0.00  0.00    +0.000 C 
ATOM     16  O   UNL     1       5.037   3.971  14.358  0.00  0.00    +0.000 OA
ENDBRANCH   1   4
BRANCH   1  17
ATOM     17  N   UNL     1       2.346   5.981  21.182  0.00  0.00    +0.000 N 
ATOM     18  H   UNL     1       2.828   6.020  22.077  0.00  0.00    +0.000 HD
BRANCH  17  22
ATOM     19  C   UNL     1       0.807   9.488  19.455  0.00  0.00    +0.000 A 
ATOM     20  C   UNL     1       1.690   8.666  18.740  0.00  0.00    +0.000 A 
ATOM     21  C   UNL     1       2.178   7.491  19.311  0.00  0.00    +0.000 A 
ATOM     22  C   UNL     1       1.786   7.135  20.598  0.00  0.00    +0.000 A 
ATOM     23  C   UNL     1       0.865   7.913  21.299  0.00  0.00    +0.000 A 
ATOM     24  C   UNL     1       0.378   9.094  20.731  0.00  0.00    +0.000 A 
BRANCH  19  25
ATOM     25  C   UNL     1       0.390  10.770  18.829  0.00  0.00    +0.000 C 
ATOM     26  O   UNL     1       1.174  11.661  18.541  0.00  0.00    +0.000 OA
BRANCH  25  27
ATOM     27  O   UNL     1      -0.957  10.813  18.680  0.00  0.00    +0.000 OA
BRANCH  27  29
ATOM     28  C   UNL     1      -2.892   9.756  17.680  0.00  0.00    +0.000 C 
ATOM     29  C   UNL     1      -1.462  10.225  17.473  0.00  0.00    +0.000 C 
ENDBRANCH  27  29
ENDBRANCH  25  27
ENDBRANCH  19  25
ENDBRANCH  17  22
ENDBRANCH   1  17
TORSDOF 6
ENDMDL
MODEL 6
REMARK VINA RESULT:      -8.0      1.499      1.705
REMARK  Name = 
REMARK  8 active torsions:
REMARK  status: ('A' for Active; 'I' for Inactive)
REMARK    1  A    between atoms: C_1  and  C_2
REMARK    2  A    between atoms: C_2  and  O_3
REMARK    3  A    between atoms: O_3  and  C_4
REMARK    4  A    between atoms: C_4  and  C_6
REMARK    5  A    between atoms: C_9  and  N_10
REMARK    6  A    between atoms: N_10  and  S_11
REMARK    7  A    between atoms: S_11  and  C_14
REMARK    8  A    between atoms: C_24  and  C_25
REMARK                            x       y       z     vdW  Elec       q    Type
REMARK                         _______ _______ _______ _____ _____    ______ ____
ROOT
ATOM      1  S   UNL     1       2.020   4.268  19.895  0.00  0.00    +0.000 S 
ATOM      2  O   UNL     1       1.489   3.749  18.652  0.00  0.00    +0.000 OA
ATOM      3  O   UNL     1       1.462   3.900  21.177  0.00  0.00    +0.000 OA
ENDROOT
BRANCH   1   4
ATOM      4  C   UNL     1       2.040   6.036  19.759  0.00  0.00    +0.000 A 
ATOM      5  C   UNL     1       2.426   6.738  18.623  0.00  0.00    +0.000 A 
ATOM      6  C   UNL     1       2.217   8.138  18.582  0.00  0.00    +0.000 A 
ATOM      7  C   UNL     1       1.635   8.843  19.661  0.00  0.00    +0.000 A 
ATOM      8  C   UNL     1       1.365   8.095  20.818  0.00  0.00    +0.000 A 
ATOM      9  C   UNL     1       1.555   6.715  20.860  0.00  0.00    +0.000 A 
ATOM     10  C   UNL     1       0.912   8.708  22.116  0.00  0.00    +0.000 C 
ATOM     11  C   UNL     1       0.078   9.922  21.861  0.00  0.00    +0.000 C 
ATOM     12  C   UNL     1       0.723  10.846  20.852  0.00  0.00    +0.000 C 
ATOM     13  N   UNL     1       1.284  10.249  19.631  0.00  0.00    +0.000 N 
ATOM     14  C   UNL     1       1.533  11.093  18.527  0.00  0.00    +0.000 C 
ATOM     15  C   UNL     1       1.100  12.547  18.682  0.00  0.00    +0.000 C 
ATOM     16  O   UNL     1       2.068  10.762  17.466  0.00  0.00    +0.000 OA
ENDBRANCH   1   4
BRANCH   1  17
ATOM     17  N   UNL     1       3.677   3.942  19.882  0.00  0.00    +0.000 N 
ATOM     18  H   UNL     1       4.122   3.741  20.775  0.00  0.00    +0.000 HD
BRANCH  17  22
ATOM     19  C   UNL     1       5.992   4.522  16.425  0.00  0.00    +0.000 A 
ATOM     20  C   UNL     1       4.821   3.753  16.380  0.00  0.00    +0.000 A 
ATOM     21  C   UNL     1       4.044   3.585  17.527  0.00  0.00    +0.000 A 
ATOM     22  C   UNL     1       4.437   4.183  18.720  0.00  0.00    +0.000 A 
ATOM     23  C   UNL     1       5.569   4.996  18.766  0.00  0.00    +0.000 A 
ATOM     24  C   UNL     1       6.353   5.163  17.619  0.00  0.00    +0.000 A 
BRANCH  19  25
ATOM     25  C   UNL     1       6.823   4.592  15.194  0.00  0.00    +0.000 C 
ATOM     26  O   UNL     1       7.716   5.409  15.035  0.00  0.00    +0.000 OA
BRANCH  25  27
ATOM     27  O   UNL     1       6.413   3.671  14.287  0.00  0.00    +0.000 OA
BRANCH  27  29
ATOM     28  C   UNL     1       5.844   3.074  12.011  0.00  0.00    +0.000 C 
ATOM     29  C   UNL     1       6.598   4.036  12.912  0.00  0.00    +0.000 C 
ENDBRANCH  27  29
ENDBRANCH  25  27
ENDBRANCH  19  25
ENDBRANCH  17  22
ENDBRANCH   1  17
TORSDOF 6
ENDMDL
MODEL 7
REMARK VINA RESULT:      -7.8      1.394      2.400
REMARK  Name = 
REMARK  8 active torsions:
REMARK  status: ('A' for Active; 'I' for Inactive)
REMARK    1  A    between atoms: C_1  and  C_2
REMARK    2  A    between atoms: C_2  and  O_3
REMARK    3  A    between atoms: O_3  and  C_4
REMARK    4  A    between atoms: C_4  and  C_6
REMARK    5  A    between atoms: C_9  and  N_10
REMARK    6  A    between atoms: N_10  and  S_11
REMARK    7  A    between atoms: S_11  and  C_14
REMARK    8  A    between atoms: C_24  and  C_25
REMARK                            x       y       z     vdW  Elec       q    Type
REMARK                         _______ _______ _______ _____ _____    ______ ____
ROOT
ATOM      1  S   UNL     1       3.303   5.213  19.666  0.00  0.00    +0.000 S 
ATOM      2  O   UNL     1       2.693   4.123  20.397  0.00  0.00    +0.000 OA
ATOM      3  O   UNL     1       4.694   5.567  19.842  0.00  0.00    +0.000 OA
ENDROOT
BRANCH   1   4
ATOM      4  C   UNL     1       2.301   6.650  19.934  0.00  0.00    +0.000 A 
ATOM      5  C   UNL     1       1.568   6.899  21.088  0.00  0.00    +0.000 A 
ATOM      6  C   UNL     1       0.962   8.169  21.251  0.00  0.00    +0.000 A 
ATOM      7  C   UNL     1       1.074   9.186  20.275  0.00  0.00    +0.000 A 
ATOM      8  C   UNL     1       1.737   8.837  19.088  0.00  0.00    +0.000 A 
ATOM      9  C   UNL     1       2.347   7.595  18.927  0.00  0.00    +0.000 A 
ATOM     10  C   UNL     1       1.797   9.731  17.877  0.00  0.00    +0.000 C 
ATOM     11  C   UNL     1       1.810  11.168  18.285  0.00  0.00    +0.000 C 
ATOM     12  C   UNL     1       0.741  11.471  19.312  0.00  0.00    +0.000 C 
ATOM     13  N   UNL     1       0.583  10.540  20.439  0.00  0.00    +0.000 N 
ATOM     14  C   UNL     1      -0.114  10.986  21.582  0.00  0.00    +0.000 C 
ATOM     15  C   UNL     1      -0.560  12.444  21.571  0.00  0.00    +0.000 C 
ATOM     16  O   UNL     1      -0.394  10.306  22.572  0.00  0.00    +0.000 OA
ENDBRANCH   1   4
BRANCH   1  17
ATOM     17  N   UNL     1       2.994   4.926  18.030  0.00  0.00    +0.000 N 
ATOM     18  H   UNL     1       2.055   4.630  17.775  0.00  0.00    +0.000 HD
BRANCH  17  22
ATOM     19  C   UNL     1       6.071   4.764  15.174  0.00  0.00    +0.000 A 
ATOM     20  C   UNL     1       5.456   5.982  15.494  0.00  0.00    +0.000 A 
ATOM     21  C   UNL     1       4.452   6.032  16.461  0.00  0.00    +0.000 A 
ATOM     22  C   UNL     1       4.059   4.864  17.109  0.00  0.00    +0.000 A 
ATOM     23  C   UNL     1       4.701   3.656  16.841  0.00  0.00    +0.000 A 
ATOM     24  C   UNL     1       5.704   3.602  15.868  0.00  0.00    +0.000 A 
BRANCH  19  25
ATOM     25  C   UNL     1       7.072   4.760  14.074  0.00  0.00    +0.000 C 
ATOM     26  O   UNL     1       8.032   5.513  14.040  0.00  0.00    +0.000 OA
BRANCH  25  27
ATOM     27  O   UNL     1       6.733   3.853  13.124  0.00  0.00    +0.000 OA
BRANCH  27  29
ATOM     28  C   UNL     1       5.114   2.855  11.627  0.00  0.00    +0.000 C 
ATOM     29  C   UNL     1       5.339   3.804  12.791  0.00  0.00    +0.000 C 
ENDBRANCH  27  29
ENDBRANCH  25  27
ENDBRANCH  19  25
ENDBRANCH  17  22
ENDBRANCH   1  17
TORSDOF 6
ENDMDL
MODEL 8
REMARK VINA RESULT:      -7.8      1.899      2.425
REMARK  Name = 
REMARK  8 active torsions:
REMARK  status: ('A' for Active; 'I' for Inactive)
REMARK    1  A    between atoms: C_1  and  C_2
REMARK    2  A    between atoms: C_2  and  O_3
REMARK    3  A    between atoms: O_3  and  C_4
REMARK    4  A    between atoms: C_4  and  C_6
REMARK    5  A    between atoms: C_9  and  N_10
REMARK    6  A    between atoms: N_10  and  S_11
REMARK    7  A    between atoms: S_11  and  C_14
REMARK    8  A    between atoms: C_24  and  C_25
REMARK                            x       y       z     vdW  Elec       q    Type
REMARK                         _______ _______ _______ _____ _____    ______ ____
ROOT
ATOM      1  S   UNL     1       1.800   3.636  19.775  0.00  0.00    +0.000 S 
ATOM      2  O   UNL     1       1.373   3.123  18.490  0.00  0.00    +0.000 OA
ATOM      3  O   UNL     1       1.097   3.317  20.997  0.00  0.00    +0.000 OA
ENDROOT
BRANCH   1   4
ATOM      4  C   UNL     1       1.923   5.398  19.621  0.00  0.00    +0.000 A 
ATOM      5  C   UNL     1       2.318   6.066  18.468  0.00  0.00    +0.000 A 
ATOM      6  C   UNL     1       2.193   7.476  18.419  0.00  0.00    +0.000 A 
ATOM      7  C   UNL     1       1.686   8.223  19.508  0.00  0.00    +0.000 A 
ATOM      8  C   UNL     1       1.405   7.502  20.679  0.00  0.00    +0.000 A 
ATOM      9  C   UNL     1       1.512   6.114  20.729  0.00  0.00    +0.000 A 
ATOM     10  C   UNL     1       1.027   8.153  21.983  0.00  0.00    +0.000 C 
ATOM     11  C   UNL     1       0.261   9.412  21.740  0.00  0.00    +0.000 C 
ATOM     12  C   UNL     1       0.932  10.287  20.703  0.00  0.00    +0.000 C 
ATOM     13  N   UNL     1       1.420   9.647  19.473  0.00  0.00    +0.000 N 
ATOM     14  C   UNL     1       1.688  10.466  18.355  0.00  0.00    +0.000 C 
ATOM     15  C   UNL     1       1.349  11.945  18.508  0.00  0.00    +0.000 C 
ATOM     16  O   UNL     1       2.171  10.095  17.282  0.00  0.00    +0.000 OA
ENDBRANCH   1   4
BRANCH   1  17
ATOM     17  N   UNL     1       3.431   3.229  19.936  0.00  0.00    +0.000 N 
ATOM     18  H   UNL     1       3.714   2.753  20.789  0.00  0.00    +0.000 HD
BRANCH  17  22
ATOM     19  C   UNL     1       6.203   4.908  17.262  0.00  0.00    +0.000 A 
ATOM     20  C   UNL     1       6.257   5.208  18.630  0.00  0.00    +0.000 A 
ATOM     21  C   UNL     1       5.348   4.628  19.515  0.00  0.00    +0.000 A 
ATOM     22  C   UNL     1       4.383   3.748  19.035  0.00  0.00    +0.000 A 
ATOM     23  C   UNL     1       4.353   3.397  17.686  0.00  0.00    +0.000 A 
ATOM     24  C   UNL     1       5.259   3.981  16.795  0.00  0.00    +0.000 A 
BRANCH  19  25
ATOM     25  C   UNL     1       7.140   5.624  16.356  0.00  0.00    +0.000 C 
ATOM     26  O   UNL     1       7.370   6.820  16.440  0.00  0.00    +0.000 OA
BRANCH  25  27
ATOM     27  O   UNL     1       7.642   4.777  15.424  0.00  0.00    +0.000 OA
BRANCH  27  29
ATOM     28  C   UNL     1       6.283   3.914  13.616  0.00  0.00    +0.000 C 
ATOM     29  C   UNL     1       7.214   5.022  14.076  0.00  0.00    +0.000 C 
ENDBRANCH  27  29
ENDBRANCH  25  27
ENDBRANCH  19  25
ENDBRANCH  17  22
ENDBRANCH   1  17
TORSDOF 6
ENDMDL
MODEL 9
REMARK VINA RESULT:      -7.7      3.191      8.586
REMARK  Name = 
REMARK  8 active torsions:
REMARK  status: ('A' for Active; 'I' for Inactive)
REMARK    1  A    between atoms: C_1  and  C_2
REMARK    2  A    between atoms: C_2  and  O_3
REMARK    3  A    between atoms: O_3  and  C_4
REMARK    4  A    between atoms: C_4  and  C_6
REMARK    5  A    between atoms: C_9  and  N_10
REMARK    6  A    between atoms: N_10  and  S_11
REMARK    7  A    between atoms: S_11  and  C_14
REMARK    8  A    between atoms: C_24  and  C_25
REMARK                            x       y       z     vdW  Elec       q    Type
REMARK                         _______ _______ _______ _____ _____    ______ ____
ROOT
ATOM      1  S   UNL     1       0.811   9.105  21.638  0.00  0.00    +0.000 S 
ATOM      2  O   UNL     1       1.824   9.360  22.641  0.00  0.00    +0.000 OA
ATOM      3  O   UNL     1      -0.540   8.733  21.995  0.00  0.00    +0.000 OA
ENDROOT
BRANCH   1   4
ATOM      4  C   UNL     1       1.470   7.895  20.522  0.00  0.00    +0.000 A 
ATOM      5  C   UNL     1       2.132   8.190  19.337  0.00  0.00    +0.000 A 
ATOM      6  C   UNL     1       2.773   7.140  18.634  0.00  0.00    +0.000 A 
ATOM      7  C   UNL     1       2.753   5.804  19.097  0.00  0.00    +0.000 A 
ATOM      8  C   UNL     1       1.979   5.554  20.241  0.00  0.00    +0.000 A 
ATOM      9  C   UNL     1       1.358   6.584  20.945  0.00  0.00    +0.000 A 
ATOM     10  C   UNL     1       1.701   4.173  20.770  0.00  0.00    +0.000 C 
ATOM     11  C   UNL     1       2.856   3.264  20.499  0.00  0.00    +0.000 C 
ATOM     12  C   UNL     1       3.331   3.370  19.066  0.00  0.00    +0.000 C 
ATOM     13  N   UNL     1       3.489   4.713  18.490  0.00  0.00    +0.000 N 
ATOM     14  C   UNL     1       4.277   4.853  17.327  0.00  0.00    +0.000 C 
ATOM     15  C   UNL     1       4.973   3.591  16.831  0.00  0.00    +0.000 C 
ATOM     16  O   UNL     1       4.445   5.893  16.684  0.00  0.00    +0.000 OA
ENDBRANCH   1   4
BRANCH   1  17
ATOM     17  N   UNL     1       0.779  10.462  20.634  0.00  0.00    +0.000 N 
ATOM     18  H   UNL     1       1.526  11.144  20.743  0.00  0.00    +0.000 HD
BRANCH  17  22
ATOM     19  C   UNL     1      -2.714  11.239  18.432  0.00  0.00    +0.000 A 
ATOM     20  C   UNL     1      -2.416  11.978  19.584  0.00  0.00    +0.000 A 
ATOM     21  C   UNL     1      -1.243  11.731  20.297  0.00  0.00    +0.000 A 
ATOM     22  C   UNL     1      -0.365  10.743  19.860  0.00  0.00    +0.000 A 
ATOM     23  C   UNL     1      -0.621  10.040  18.683  0.00  0.00    +0.000 A 
ATOM     24  C   UNL     1      -1.799  10.281  17.970  0.00  0.00    +0.000 A 
BRANCH  19  25
ATOM     25  C   UNL     1      -4.020  11.487  17.765  0.00  0.00    +0.000 C 
ATOM     26  O   UNL     1      -4.862  12.252  18.207  0.00  0.00    +0.000 OA
BRANCH  25  27
ATOM     27  O   UNL     1      -4.143  10.717  16.655  0.00  0.00    +0.000 OA
BRANCH  27  29
ATOM     28  C   UNL     1      -3.086  10.040  14.585  0.00  0.00    +0.000 C 
ATOM     29  C   UNL     1      -3.455  11.201  15.492  0.00  0.00    +0.000 C 
ENDBRANCH  27  29
ENDBRANCH  25  27
ENDBRANCH  19  25
ENDBRANCH  17  22
ENDBRANCH   1  17
TORSDOF 6
ENDMDL
