MODEL 1
REMARK VINA RESULT:      -7.4      0.000      0.000
REMARK  Name = 
REMARK  7 active torsions:
REMARK  status: ('A' for Active; 'I' for Inactive)
REMARK    1  A    between atoms: C_1  and  C_2
REMARK    2  A    between atoms: C_2  and  O_3
REMARK    3  A    between atoms: O_3  and  C_4
REMARK    4  A    between atoms: C_4  and  C_6
REMARK    5  A    between atoms: C_6  and  O_7
REMARK    6  A    between atoms: O_7  and  C_8
REMARK    7  A    between atoms: C_20  and  O_21
REMARK                            x       y       z     vdW  Elec       q    Type
REMARK                         _______ _______ _______ _____ _____    ______ ____
ROOT
ATOM      1  C   UNL     1       5.807   5.889  16.428  0.00  0.00    +0.000 A 
ATOM      2  C   UNL     1       6.535   5.250  15.414  0.00  0.00    +0.000 A 
ATOM      3  C   UNL     1       6.310   3.914  15.126  0.00  0.00    +0.000 A 
ATOM      4  C   UNL     1       5.366   3.208  15.857  0.00  0.00    +0.000 A 
ATOM      5  C   UNL     1       4.604   3.817  16.880  0.00  0.00    +0.000 A 
ATOM      6  C   UNL     1       4.798   5.186  17.169  0.00  0.00    +0.000 A 
ATOM      7  N   UNL     1       3.974   5.781  18.164  0.00  0.00    +0.000 N 
ATOM      8  O   UNL     1       4.025   7.041  18.405  0.00  0.00    +0.000 OA
ATOM      9  C   UNL     1       3.037   5.004  18.893  0.00  0.00    +0.000 A 
ATOM     10  C   UNL     1       2.247   5.609  19.903  0.00  0.00    +0.000 A 
ATOM     11  C   UNL     1       1.313   4.888  20.643  0.00  0.00    +0.000 A 
ATOM     12  C   UNL     1       1.140   3.537  20.386  0.00  0.00    +0.000 A 
ATOM     13  C   UNL     1       1.903   2.919  19.394  0.00  0.00    +0.000 A 
ATOM     14  C   UNL     1       2.867   3.628  18.622  0.00  0.00    +0.000 A 
ATOM     15  N   UNL     1       3.656   3.043  17.595  0.00  0.00    +0.000 N 
ATOM     16  O   UNL     1       3.539   1.803  17.282  0.00  0.00    +0.000 OA
ENDROOT
BRANCH  13  17
ATOM     17  O   UNL     1       1.691   1.583  19.178  0.00  0.00    +0.000 OA
ATOM     18  H   UNL     1       0.841   1.428  18.738  0.00  0.00    +0.000 HD
ENDBRANCH  13  17
BRANCH   1  19
ATOM     19  O   UNL     1       6.106   7.169  16.815  0.00  0.00    +0.000 OA
BRANCH  19  20
ATOM     20  C   UNL     1       7.476   7.539  16.924  0.00  0.00    +0.000 C 
BRANCH  20  21
ATOM     21  C   UNL     1       7.969   7.203  18.320  0.00  0.00    +0.000 C 
ATOM     22  O   UNL     1       7.799   6.141  18.902  0.00  0.00    +0.000 OA
BRANCH  21  23
ATOM     23  O   UNL     1       8.636   8.278  18.837  0.00  0.00    +0.000 OA
BRANCH  23  25
ATOM     24  C   UNL     1       9.323  10.561  18.744  0.00  0.00    +0.000 C 
ATOM     25  C   UNL     1       8.405   9.512  18.144  0.00  0.00    +0.000 C 
ENDBRANCH  23  25
ENDBRANCH  21  23
ENDBRANCH  20  21
ENDBRANCH  19  20
ENDBRANCH   1  19
TORSDOF 6
ENDMDL
MODEL 2
REMARK VINA RESULT:      -7.2      2.788      4.349
REMARK  Name = 
REMARK  7 active torsions:
REMARK  status: ('A' for Active; 'I' for Inactive)
REMARK    1  A    between atoms: C_1  and  C_2
REMARK    2  A    between atoms: C_2  and  O_3
REMARK    3  A    between atoms: O_3  and  C_4
REMARK    4  A    between atoms: C_4  and  C_6
REMARK    5  A    between atoms: C_6  and  O_7
REMARK    6  A    between atoms: O_7  and  C_8
REMARK    7  A    between atoms: C_20  and  O_21
REMARK                            x       y       z     vdW  Elec       q    Type
REMARK                         _______ _______ _______ _____ _____    ______ ____
ROOT
ATOM      1  C   UNL     1       4.164   5.085  17.656  0.00  0.00    +0.000 A 
ATOM      2  C   UNL     1       4.288   3.804  18.213  0.00  0.00    +0.000 A 
ATOM      3  C   UNL     1       3.629   3.485  19.389  0.00  0.00    +0.000 A 
ATOM      4  C   UNL     1       2.854   4.446  20.020  0.00  0.00    +0.000 A 
ATOM      5  C   UNL     1       2.695   5.746  19.486  0.00  0.00    +0.000 A 
ATOM      6  C   UNL     1       3.336   6.082  18.273  0.00  0.00    +0.000 A 
ATOM      7  N   UNL     1       3.108   7.379  17.735  0.00  0.00    +0.000 N 
ATOM      8  O   UNL     1       3.573   7.715  16.587  0.00  0.00    +0.000 OA
ATOM      9  C   UNL     1       2.320   8.328  18.435  0.00  0.00    +0.000 A 
ATOM     10  C   UNL     1       2.129   9.627  17.897  0.00  0.00    +0.000 A 
ATOM     11  C   UNL     1       1.363  10.591  18.546  0.00  0.00    +0.000 A 
ATOM     12  C   UNL     1       0.757  10.278  19.754  0.00  0.00    +0.000 A 
ATOM     13  C   UNL     1       0.926   9.006  20.301  0.00  0.00    +0.000 A 
ATOM     14  C   UNL     1       1.705   7.999  19.663  0.00  0.00    +0.000 A 
ATOM     15  N   UNL     1       1.892   6.688  20.178  0.00  0.00    +0.000 N 
ATOM     16  O   UNL     1       1.347   6.314  21.279  0.00  0.00    +0.000 OA
ENDROOT
BRANCH  13  17
ATOM     17  O   UNL     1       0.304   8.747  21.494  0.00  0.00    +0.000 OA
ATOM     18  H   UNL     1       0.946   8.679  22.218  0.00  0.00    +0.000 HD
ENDBRANCH  13  17
BRANCH   1  19
ATOM     19  O   UNL     1       4.910   5.459  16.569  0.00  0.00    +0.000 OA
BRANCH  19  20
ATOM     20  C   UNL     1       5.879   4.546  16.068  0.00  0.00    +0.000 C 
BRANCH  20  21
ATOM     21  C   UNL     1       7.249   4.946  16.582  0.00  0.00    +0.000 C 
ATOM     22  O   UNL     1       8.119   4.180  16.975  0.00  0.00    +0.000 OA
BRANCH  21  23
ATOM     23  O   UNL     1       7.369   6.307  16.545  0.00  0.00    +0.000 OA
BRANCH  23  25
ATOM     24  C   UNL     1       7.799   8.406  17.596  0.00  0.00    +0.000 C 
ATOM     25  C   UNL     1       7.578   6.922  17.824  0.00  0.00    +0.000 C 
ENDBRANCH  23  25
ENDBRANCH  21  23
ENDBRANCH  20  21
ENDBRANCH  19  20
ENDBRANCH   1  19
TORSDOF 6
ENDMDL
MODEL 3
REMARK VINA RESULT:      -7.2      3.982      7.201
REMARK  Name = 
REMARK  7 active torsions:
REMARK  status: ('A' for Active; 'I' for Inactive)
REMARK    1  A    between atoms: C_1  and  C_2
REMARK    2  A    between atoms: C_2  and  O_3
REMARK    3  A    between atoms: O_3  and  C_4
REMARK    4  A    between atoms: C_4  and  C_6
REMARK    5  A    between atoms: C_6  and  O_7
REMARK    6  A    between atoms: O_7  and  C_8
REMARK    7  A    between atoms: C_20  and  O_21
REMARK                            x       y       z     vdW  Elec       q    Type
REMARK                         _______ _______ _______ _____ _____    ______ ____
ROOT
ATOM      1  C   UNL     1       2.462   6.228  19.803  0.00  0.00    +0.000 A 
ATOM      2  C   UNL     1       3.324   5.696  18.834  0.00  0.00    +0.000 A 
ATOM      3  C   UNL     1       3.694   6.453  17.734  0.00  0.00    +0.000 A 
ATOM      4  C   UNL     1       3.194   7.739  17.591  0.00  0.00    +0.000 A 
ATOM      5  C   UNL     1       2.331   8.316  18.551  0.00  0.00    +0.000 A 
ATOM      6  C   UNL     1       1.966   7.570  19.693  0.00  0.00    +0.000 A 
ATOM      7  N   UNL     1       1.142   8.201  20.667  0.00  0.00    +0.000 N 
ATOM      8  O   UNL     1       0.857   7.621  21.775  0.00  0.00    +0.000 OA
ATOM      9  C   UNL     1       0.645   9.514  20.459  0.00  0.00    +0.000 A 
ATOM     10  C   UNL     1      -0.200  10.114  21.427  0.00  0.00    +0.000 A 
ATOM     11  C   UNL     1      -0.710  11.400  21.267  0.00  0.00    +0.000 A 
ATOM     12  C   UNL     1      -0.381  12.126  20.132  0.00  0.00    +0.000 A 
ATOM     13  C   UNL     1       0.452  11.558  19.167  0.00  0.00    +0.000 A 
ATOM     14  C   UNL     1       0.988  10.246  19.300  0.00  0.00    +0.000 A 
ATOM     15  N   UNL     1       1.850   9.634  18.349  0.00  0.00    +0.000 N 
ATOM     16  O   UNL     1       2.218  10.249  17.284  0.00  0.00    +0.000 OA
ENDROOT
BRANCH  13  17
ATOM     17  O   UNL     1       0.749  12.318  18.067  0.00  0.00    +0.000 OA
ATOM     18  H   UNL     1       0.289  13.172  18.095  0.00  0.00    +0.000 HD
ENDBRANCH  13  17
BRANCH   1  19
ATOM     19  O   UNL     1       1.982   5.451  20.825  0.00  0.00    +0.000 OA
BRANCH  19  20
ATOM     20  C   UNL     1       1.134   4.356  20.501  0.00  0.00    +0.000 C 
BRANCH  20  21
ATOM     21  C   UNL     1       1.723   3.085  21.085  0.00  0.00    +0.000 C 
ATOM     22  O   UNL     1       1.948   2.879  22.270  0.00  0.00    +0.000 OA
BRANCH  21  23
ATOM     23  O   UNL     1       1.972   2.195  20.078  0.00  0.00    +0.000 OA
BRANCH  23  25
ATOM     24  C   UNL     1       2.376   2.300  17.729  0.00  0.00    +0.000 C 
ATOM     25  C   UNL     1       1.353   2.523  18.827  0.00  0.00    +0.000 C 
ENDBRANCH  23  25
ENDBRANCH  21  23
ENDBRANCH  20  21
ENDBRANCH  19  20
ENDBRANCH   1  19
TORSDOF 6
ENDMDL
MODEL 4
REMARK VINA RESULT:      -7.1      3.094      5.089
REMARK  Name = 
REMARK  7 active torsions:
REMARK  status: ('A' for Active; 'I' for Inactive)
REMARK    1  A    between atoms: C_1  and  C_2
REMARK    2  A    between atoms: C_2  and  O_3
REMARK    3  A    between atoms: O_3  and  C_4
REMARK    4  A    between atoms: C_4  and  C_6
REMARK    5  A    between atoms: C_6  and  O_7
REMARK    6  A    between atoms: O_7  and  C_8
REMARK    7  A    between atoms: C_20  and  O_21
REMARK                            x       y       z     vdW  Elec       q    Type
REMARK                         _______ _______ _______ _____ _____    ______ ____
ROOT
ATOM      1  C   UNL     1       4.692   4.943  17.472  0.00  0.00    +0.000 A 
ATOM      2  C   UNL     1       4.900   3.666  18.011  0.00  0.00    +0.000 A 
ATOM      3  C   UNL     1       4.250   3.281  19.172  0.00  0.00    +0.000 A 
ATOM      4  C   UNL     1       3.398   4.174  19.805  0.00  0.00    +0.000 A 
ATOM      5  C   UNL     1       3.153   5.467  19.289  0.00  0.00    +0.000 A 
ATOM      6  C   UNL     1       3.785   5.867  18.091  0.00  0.00    +0.000 A 
ATOM      7  N   UNL     1       3.471   7.153  17.569  0.00  0.00    +0.000 N 
ATOM      8  O   UNL     1       3.927   7.540  16.434  0.00  0.00    +0.000 OA
ATOM      9  C   UNL     1       2.606   8.032  18.270  0.00  0.00    +0.000 A 
ATOM     10  C   UNL     1       2.330   9.322  17.749  0.00  0.00    +0.000 A 
ATOM     11  C   UNL     1       1.486  10.218  18.401  0.00  0.00    +0.000 A 
ATOM     12  C   UNL     1       0.888   9.842  19.594  0.00  0.00    +0.000 A 
ATOM     13  C   UNL     1       1.141   8.577  20.125  0.00  0.00    +0.000 A 
ATOM     14  C   UNL     1       2.000   7.640  19.484  0.00  0.00    +0.000 A 
ATOM     15  N   UNL     1       2.274   6.337  19.982  0.00  0.00    +0.000 N 
ATOM     16  O   UNL     1       1.742   5.907  21.069  0.00  0.00    +0.000 OA
ENDROOT
BRANCH  13  17
ATOM     17  O   UNL     1       0.522   8.255  21.304  0.00  0.00    +0.000 OA
ATOM     18  H   UNL     1       1.113   8.392  22.061  0.00  0.00    +0.000 HD
ENDBRANCH  13  17
BRANCH   1  19
ATOM     19  O   UNL     1       5.424   5.388  16.402  0.00  0.00    +0.000 OA
BRANCH  19  20
ATOM     20  C   UNL     1       6.696   4.796  16.161  0.00  0.00    +0.000 C 
BRANCH  20  21
ATOM     21  C   UNL     1       6.957   4.776  14.666  0.00  0.00    +0.000 C 
ATOM     22  O   UNL     1       7.736   5.504  14.066  0.00  0.00    +0.000 OA
BRANCH  21  23
ATOM     23  O   UNL     1       6.180   3.816  14.081  0.00  0.00    +0.000 OA
BRANCH  23  25
ATOM     24  C   UNL     1       5.060   3.303  12.038  0.00  0.00    +0.000 C 
ATOM     25  C   UNL     1       6.393   3.653  12.673  0.00  0.00    +0.000 C 
ENDBRANCH  23  25
ENDBRANCH  21  23
ENDBRANCH  20  21
ENDBRANCH  19  20
ENDBRANCH   1  19
TORSDOF 6
ENDMDL
MODEL 5
REMARK VINA RESULT:      -7.0      2.700      4.811
REMARK  Name = 
REMARK  7 active torsions:
REMARK  status: ('A' for Active; 'I' for Inactive)
REMARK    1  A    between atoms: C_1  and  C_2
REMARK    2  A    between atoms: C_2  and  O_3
REMARK    3  A    between atoms: O_3  and  C_4
REMARK    4  A    between atoms: C_4  and  C_6
REMARK    5  A    between atoms: C_6  and  O_7
REMARK    6  A    between atoms: O_7  and  C_8
REMARK    7  A    between atoms: C_20  and  O_21
REMARK                            x       y       z     vdW  Elec       q    Type
REMARK                         _______ _______ _______ _____ _____    ______ ____
ROOT
ATOM      1  C   UNL     1       4.391   4.232  18.326  0.00  0.00    +0.000 A 
ATOM      2  C   UNL     1       4.343   3.050  19.078  0.00  0.00    +0.000 A 
ATOM      3  C   UNL     1       3.518   2.959  20.188  0.00  0.00    +0.000 A 
ATOM      4  C   UNL     1       2.749   4.052  20.557  0.00  0.00    +0.000 A 
ATOM      5  C   UNL     1       2.761   5.258  19.820  0.00  0.00    +0.000 A 
ATOM      6  C   UNL     1       3.574   5.360  18.670  0.00  0.00    +0.000 A 
ATOM      7  N   UNL     1       3.519   6.568  17.919  0.00  0.00    +0.000 N 
ATOM      8  O   UNL     1       4.150   6.691  16.808  0.00  0.00    +0.000 OA
ATOM      9  C   UNL     1       2.726   7.660  18.356  0.00  0.00    +0.000 A 
ATOM     10  C   UNL     1       2.708   8.867  17.611  0.00  0.00    +0.000 A 
ATOM     11  C   UNL     1       1.945   9.965  18.000  0.00  0.00    +0.000 A 
ATOM     12  C   UNL     1       1.170   9.882  19.146  0.00  0.00    +0.000 A 
ATOM     13  C   UNL     1       1.167   8.704  19.894  0.00  0.00    +0.000 A 
ATOM     14  C   UNL     1       1.938   7.566  19.525  0.00  0.00    +0.000 A 
ATOM     15  N   UNL     1       1.955   6.342  20.249  0.00  0.00    +0.000 N 
ATOM     16  O   UNL     1       1.249   6.180  21.308  0.00  0.00    +0.000 OA
ENDROOT
BRANCH  13  17
ATOM     17  O   UNL     1       0.382   8.674  21.016  0.00  0.00    +0.000 OA
ATOM     18  H   UNL     1      -0.108   7.840  21.080  0.00  0.00    +0.000 HD
ENDBRANCH  13  17
BRANCH   1  19
ATOM     19  O   UNL     1       5.295   4.385  17.307  0.00  0.00    +0.000 OA
BRANCH  19  20
ATOM     20  C   UNL     1       6.663   4.593  17.642  0.00  0.00    +0.000 C 
BRANCH  20  21
ATOM     21  C   UNL     1       7.319   5.422  16.553  0.00  0.00    +0.000 C 
ATOM     22  O   UNL     1       7.521   6.628  16.596  0.00  0.00    +0.000 OA
BRANCH  21  23
ATOM     23  O   UNL     1       7.651   4.612  15.504  0.00  0.00    +0.000 OA
BRANCH  23  25
ATOM     24  C   UNL     1       6.010   3.949  13.903  0.00  0.00    +0.000 C 
ATOM     25  C   UNL     1       7.060   4.988  14.252  0.00  0.00    +0.000 C 
ENDBRANCH  23  25
ENDBRANCH  21  23
ENDBRANCH  20  21
ENDBRANCH  19  20
ENDBRANCH   1  19
TORSDOF 6
ENDMDL
MODEL 6
REMARK VINA RESULT:      -7.0      2.583      4.270
REMARK  Name = 
REMARK  7 active torsions:
REMARK  status: ('A' for Active; 'I' for Inactive)
REMARK    1  A    between atoms: C_1  and  C_2
REMARK    2  A    between atoms: C_2  and  O_3
REMARK    3  A    between atoms: O_3  and  C_4
REMARK    4  A    between atoms: C_4  and  C_6
REMARK    5  A    between atoms: C_6  and  O_7
REMARK    6  A    between atoms: O_7  and  C_8
REMARK    7  A    between atoms: C_20  and  O_21
REMARK                            x       y       z     vdW  Elec       q    Type
REMARK                         _______ _______ _______ _____ _____    ______ ____
ROOT
ATOM      1  C   UNL     1       4.187   4.397  17.337  0.00  0.00    +0.000 A 
ATOM      2  C   UNL     1       4.267   3.095  17.849  0.00  0.00    +0.000 A 
ATOM      3  C   UNL     1       3.655   2.775  19.050  0.00  0.00    +0.000 A 
ATOM      4  C   UNL     1       2.971   3.757  19.750  0.00  0.00    +0.000 A 
ATOM      5  C   UNL     1       2.858   5.080  19.264  0.00  0.00    +0.000 A 
ATOM      6  C   UNL     1       3.451   5.418  18.027  0.00  0.00    +0.000 A 
ATOM      7  N   UNL     1       3.268   6.742  17.539  0.00  0.00    +0.000 N 
ATOM      8  O   UNL     1       3.690   7.088  16.378  0.00  0.00    +0.000 OA
ATOM      9  C   UNL     1       2.574   7.711  18.309  0.00  0.00    +0.000 A 
ATOM     10  C   UNL     1       2.429   9.034  17.819  0.00  0.00    +0.000 A 
ATOM     11  C   UNL     1       1.755  10.019  18.538  0.00  0.00    +0.000 A 
ATOM     12  C   UNL     1       1.198   9.702  19.767  0.00  0.00    +0.000 A 
ATOM     13  C   UNL     1       1.323   8.405  20.268  0.00  0.00    +0.000 A 
ATOM     14  C   UNL     1       2.008   7.378  19.559  0.00  0.00    +0.000 A 
ATOM     15  N   UNL     1       2.149   6.042  20.026  0.00  0.00    +0.000 N 
ATOM     16  O   UNL     1       1.643   5.665  21.143  0.00  0.00    +0.000 OA
ENDROOT
BRANCH  13  17
ATOM     17  O   UNL     1       0.753   8.144  21.485  0.00  0.00    +0.000 OA
ATOM     18  H   UNL     1       0.217   7.336  21.457  0.00  0.00    +0.000 HD
ENDBRANCH  13  17
BRANCH   1  19
ATOM     19  O   UNL     1       4.893   4.763  16.221  0.00  0.00    +0.000 OA
BRANCH  19  20
ATOM     20  C   UNL     1       6.018   3.977  15.845  0.00  0.00    +0.000 C 
BRANCH  20  21
ATOM     21  C   UNL     1       7.270   4.830  15.932  0.00  0.00    +0.000 C 
ATOM     22  O   UNL     1       7.754   5.486  15.019  0.00  0.00    +0.000 OA
BRANCH  21  23
ATOM     23  O   UNL     1       7.786   4.753  17.195  0.00  0.00    +0.000 OA
BRANCH  23  25
ATOM     24  C   UNL     1       6.928   5.485  19.298  0.00  0.00    +0.000 C 
ATOM     25  C   UNL     1       7.574   5.923  17.996  0.00  0.00    +0.000 C 
ENDBRANCH  23  25
ENDBRANCH  21  23
ENDBRANCH  20  21
ENDBRANCH  19  20
ENDBRANCH   1  19
TORSDOF 6
ENDMDL
MODEL 7
REMARK VINA RESULT:      -7.0      2.647      4.233
REMARK  Name = 
REMARK  7 active torsions:
REMARK  status: ('A' for Active; 'I' for Inactive)
REMARK    1  A    between atoms: C_1  and  C_2
REMARK    2  A    between atoms: C_2  and  O_3
REMARK    3  A    between atoms: O_3  and  C_4
REMARK    4  A    between atoms: C_4  and  C_6
REMARK    5  A    between atoms: C_6  and  O_7
REMARK    6  A    between atoms: O_7  and  C_8
REMARK    7  A    between atoms: C_20  and  O_21
REMARK                            x       y       z     vdW  Elec       q    Type
REMARK                         _______ _______ _______ _____ _____    ______ ____
ROOT
ATOM      1  C   UNL     1       4.418   4.302  18.307  0.00  0.00    +0.000 A 
ATOM      2  C   UNL     1       4.387   3.122  19.063  0.00  0.00    +0.000 A 
ATOM      3  C   UNL     1       3.572   3.027  20.179  0.00  0.00    +0.000 A 
ATOM      4  C   UNL     1       2.793   4.113  20.550  0.00  0.00    +0.000 A 
ATOM      5  C   UNL     1       2.788   5.317  19.809  0.00  0.00    +0.000 A 
ATOM      6  C   UNL     1       3.591   5.423  18.652  0.00  0.00    +0.000 A 
ATOM      7  N   UNL     1       3.518   6.627  17.897  0.00  0.00    +0.000 N 
ATOM      8  O   UNL     1       4.140   6.753  16.782  0.00  0.00    +0.000 OA
ATOM      9  C   UNL     1       2.717   7.713  18.337  0.00  0.00    +0.000 A 
ATOM     10  C   UNL     1       2.681   8.917  17.587  0.00  0.00    +0.000 A 
ATOM     11  C   UNL     1       1.909  10.008  17.978  0.00  0.00    +0.000 A 
ATOM     12  C   UNL     1       1.143   9.921  19.130  0.00  0.00    +0.000 A 
ATOM     13  C   UNL     1       1.158   8.745  19.882  0.00  0.00    +0.000 A 
ATOM     14  C   UNL     1       1.938   7.614  19.511  0.00  0.00    +0.000 A 
ATOM     15  N   UNL     1       1.973   6.394  20.240  0.00  0.00    +0.000 N 
ATOM     16  O   UNL     1       1.276   6.227  21.304  0.00  0.00    +0.000 OA
ENDROOT
BRANCH  13  17
ATOM     17  O   UNL     1       0.381   8.711  21.010  0.00  0.00    +0.000 OA
ATOM     18  H   UNL     1       0.372   7.825  21.404  0.00  0.00    +0.000 HD
ENDBRANCH  13  17
BRANCH   1  19
ATOM     19  O   UNL     1       5.313   4.462  17.281  0.00  0.00    +0.000 OA
BRANCH  19  20
ATOM     20  C   UNL     1       6.699   4.528  17.597  0.00  0.00    +0.000 C 
BRANCH  20  21
ATOM     21  C   UNL     1       7.291   5.776  16.968  0.00  0.00    +0.000 C 
ATOM     22  O   UNL     1       7.558   5.922  15.783  0.00  0.00    +0.000 OA
BRANCH  21  23
ATOM     23  O   UNL     1       7.487   6.723  17.935  0.00  0.00    +0.000 OA
BRANCH  23  25
ATOM     24  C   UNL     1       8.405   8.913  18.161  0.00  0.00    +0.000 C 
ATOM     25  C   UNL     1       7.338   8.075  17.482  0.00  0.00    +0.000 C 
ENDBRANCH  23  25
ENDBRANCH  21  23
ENDBRANCH  20  21
ENDBRANCH  19  20
ENDBRANCH   1  19
TORSDOF 6
ENDMDL
MODEL 8
REMARK VINA RESULT:      -6.9      2.761      6.071
REMARK  Name = 
REMARK  7 active torsions:
REMARK  status: ('A' for Active; 'I' for Inactive)
REMARK    1  A    between atoms: C_1  and  C_2
REMARK    2  A    between atoms: C_2  and  O_3
REMARK    3  A    between atoms: O_3  and  C_4
REMARK    4  A    between atoms: C_4  and  C_6
REMARK    5  A    between atoms: C_6  and  O_7
REMARK    6  A    between atoms: O_7  and  C_8
REMARK    7  A    between atoms: C_20  and  O_21
REMARK                            x       y       z     vdW  Elec       q    Type
REMARK                         _______ _______ _______ _____ _____    ______ ____
ROOT
ATOM      1  C   UNL     1       2.145   6.114  20.036  0.00  0.00    +0.000 A 
ATOM      2  C   UNL     1       1.559   5.278  20.997  0.00  0.00    +0.000 A 
ATOM      3  C   UNL     1       1.772   3.910  20.959  0.00  0.00    +0.000 A 
ATOM      4  C   UNL     1       2.562   3.370  19.955  0.00  0.00    +0.000 A 
ATOM      5  C   UNL     1       3.180   4.179  18.973  0.00  0.00    +0.000 A 
ATOM      6  C   UNL     1       2.997   5.578  19.012  0.00  0.00    +0.000 A 
ATOM      7  N   UNL     1       3.679   6.367  18.044  0.00  0.00    +0.000 N 
ATOM      8  O   UNL     1       3.642   7.649  18.084  0.00  0.00    +0.000 OA
ATOM      9  C   UNL     1       4.460   5.757  17.028  0.00  0.00    +0.000 A 
ATOM     10  C   UNL     1       5.107   6.559  16.054  0.00  0.00    +0.000 A 
ATOM     11  C   UNL     1       5.885   6.006  15.039  0.00  0.00    +0.000 A 
ATOM     12  C   UNL     1       6.041   4.630  14.977  0.00  0.00    +0.000 A 
ATOM     13  C   UNL     1       5.418   3.820  15.927  0.00  0.00    +0.000 A 
ATOM     14  C   UNL     1       4.615   4.354  16.974  0.00  0.00    +0.000 A 
ATOM     15  N   UNL     1       3.973   3.568  17.970  0.00  0.00    +0.000 N 
ATOM     16  O   UNL     1       4.088   2.290  17.993  0.00  0.00    +0.000 OA
ENDROOT
BRANCH  13  17
ATOM     17  O   UNL     1       5.608   2.467  15.822  0.00  0.00    +0.000 OA
ATOM     18  H   UNL     1       6.029   2.108  16.618  0.00  0.00    +0.000 HD
ENDBRANCH  13  17
BRANCH   1  19
ATOM     19  O   UNL     1       1.840   7.449  19.978  0.00  0.00    +0.000 OA
BRANCH  19  20
ATOM     20  C   UNL     1       1.292   8.067  21.137  0.00  0.00    +0.000 C 
BRANCH  20  21
ATOM     21  C   UNL     1       0.869   9.482  20.789  0.00  0.00    +0.000 C 
ATOM     22  O   UNL     1       0.585   9.890  19.670  0.00  0.00    +0.000 OA
BRANCH  21  23
ATOM     23  O   UNL     1       0.855  10.245  21.923  0.00  0.00    +0.000 OA
BRANCH  23  25
ATOM     24  C   UNL     1      -1.156  10.823  23.070  0.00  0.00    +0.000 C 
ATOM     25  C   UNL     1      -0.053   9.789  22.935  0.00  0.00    +0.000 C 
ENDBRANCH  23  25
ENDBRANCH  21  23
ENDBRANCH  20  21
ENDBRANCH  19  20
ENDBRANCH   1  19
TORSDOF 6
ENDMDL
MODEL 9
REMARK VINA RESULT:      -6.9      3.115      6.038
REMARK  Name = 
REMARK  7 active torsions:
REMARK  status: ('A' for Active; 'I' for Inactive)
REMARK    1  A    between atoms: C_1  and  C_2
REMARK    2  A    between atoms: C_2  and  O_3
REMARK    3  A    between atoms: O_3  and  C_4
REMARK    4  A    between atoms: C_4  and  C_6
REMARK    5  A    between atoms: C_6  and  O_7
REMARK    6  A    between atoms: O_7  and  C_8
REMARK    7  A    between atoms: C_20  and  O_21
REMARK                            x       y       z     vdW  Elec       q    Type
REMARK                         _______ _______ _______ _____ _____    ______ ____
ROOT
ATOM      1  C   UNL     1       4.228   5.178  18.386  0.00  0.00    +0.000 A 
ATOM      2  C   UNL     1       5.009   5.159  17.222  0.00  0.00    +0.000 A 
ATOM      3  C   UNL     1       4.972   6.224  16.336  0.00  0.00    +0.000 A 
ATOM      4  C   UNL     1       4.146   7.306  16.604  0.00  0.00    +0.000 A 
ATOM      5  C   UNL     1       3.351   7.368  17.772  0.00  0.00    +0.000 A 
ATOM      6  C   UNL     1       3.397   6.305  18.700  0.00  0.00    +0.000 A 
ATOM      7  N   UNL     1       2.628   6.425  19.892  0.00  0.00    +0.000 N 
ATOM      8  O   UNL     1       2.703   5.547  20.824  0.00  0.00    +0.000 OA
ATOM      9  C   UNL     1       1.787   7.548  20.103  0.00  0.00    +0.000 A 
ATOM     10  C   UNL     1       1.005   7.635  21.283  0.00  0.00    +0.000 A 
ATOM     11  C   UNL     1       0.166   8.718  21.535  0.00  0.00    +0.000 A 
ATOM     12  C   UNL     1       0.092   9.750  20.613  0.00  0.00    +0.000 A 
ATOM     13  C   UNL     1       0.855   9.689  19.446  0.00  0.00    +0.000 A 
ATOM     14  C   UNL     1       1.720   8.595  19.158  0.00  0.00    +0.000 A 
ATOM     15  N   UNL     1       2.524   8.498  17.990  0.00  0.00    +0.000 N 
ATOM     16  O   UNL     1       2.528   9.423  17.099  0.00  0.00    +0.000 OA
ENDROOT
BRANCH  13  17
ATOM     17  O   UNL     1       0.748  10.736  18.569  0.00  0.00    +0.000 OA
ATOM     18  H   UNL     1      -0.039  10.647  18.009  0.00  0.00    +0.000 HD
ENDBRANCH  13  17
BRANCH   1  19
ATOM     19  O   UNL     1       4.152   4.080  19.203  0.00  0.00    +0.000 OA
BRANCH  19  20
ATOM     20  C   UNL     1       4.098   2.792  18.602  0.00  0.00    +0.000 C 
BRANCH  20  21
ATOM     21  C   UNL     1       2.650   2.435  18.323  0.00  0.00    +0.000 C 
ATOM     22  O   UNL     1       2.061   2.609  17.264  0.00  0.00    +0.000 OA
BRANCH  21  23
ATOM     23  O   UNL     1       2.092   1.888  19.444  0.00  0.00    +0.000 OA
BRANCH  23  25
ATOM     24  C   UNL     1       1.312   2.642  21.569  0.00  0.00    +0.000 C 
ATOM     25  C   UNL     1       1.091   2.703  20.069  0.00  0.00    +0.000 C 
ENDBRANCH  23  25
ENDBRANCH  21  23
ENDBRANCH  20  21
ENDBRANCH  19  20
ENDBRANCH   1  19
TORSDOF 6
ENDMDL
