MODEL 1
REMARK VINA RESULT:      -6.5      0.000      0.000
REMARK  Name = 
REMARK  11 active torsions:
REMARK  status: ('A' for Active; 'I' for Inactive)
REMARK    1  A    between atoms: C_1  and  C_2
REMARK    2  A    between atoms: C_2  and  C_3
REMARK    3  A    between atoms: C_3  and  C_4
REMARK    4  A    between atoms: C_3  and  N_6
REMARK    5  A    between atoms: C_4  and  C_5
REMARK    6  A    between atoms: N_6  and  C_7
REMARK    7  A    between atoms: C_9  and  O_10
REMARK    8  A    between atoms: O_10  and  C_11
REMARK    9  A    between atoms: C_12  and  C_13
REMARK   10  A    between atoms: C_22  and  O_23
REMARK   11  A    between atoms: O_23  and  C_24
REMARK                            x       y       z     vdW  Elec       q    Type
REMARK                         _______ _______ _______ _____ _____    ______ ____
ROOT
ATOM      1  C   UNL     1       5.168   4.701  16.340  0.00  0.00    +0.000 A 
ATOM      2  N   UNL     1       3.982   4.113  16.601  0.00  0.00    +0.000 NA
ATOM      3  C   UNL     1       3.150   4.774  17.448  0.00  0.00    +0.000 A 
ATOM      4  C   UNL     1       3.451   6.028  18.015  0.00  0.00    +0.000 A 
ATOM      5  N   UNL     1       4.614   6.650  17.703  0.00  0.00    +0.000 NA
ATOM      6  C   UNL     1       5.458   5.972  16.885  0.00  0.00    +0.000 A 
ENDROOT
BRANCH   4   7
ATOM      7  C   UNL     1       2.583   6.724  18.998  0.00  0.00    +0.000 A 
ATOM      8  C   UNL     1       2.211   6.073  20.196  0.00  0.00    +0.000 A 
ATOM      9  C   UNL     1       1.483   6.720  21.199  0.00  0.00    +0.000 A 
ATOM     10  C   UNL     1       1.061   8.028  21.007  0.00  0.00    +0.000 A 
ATOM     11 CL   UNL     1       0.186   8.838  22.246  0.00  0.00    +0.000 Cl
ATOM     12  C   UNL     1       1.359   8.689  19.823  0.00  0.00    +0.000 A 
ATOM     13  C   UNL     1       2.122   8.051  18.832  0.00  0.00    +0.000 A 
ATOM     14 CL   UNL     1       2.500   9.030  17.449  0.00  0.00    +0.000 Cl
ENDBRANCH   4   7
BRANCH   1  15
ATOM     15  N   UNL     1       6.098   4.074  15.495  0.00  0.00    +0.000 N 
ATOM     16  H   UNL     1       6.057   3.066  15.644  0.00  0.00    +0.000 HD
BRANCH  15  17
ATOM     17  C   UNL     1       6.134   4.456  14.078  0.00  0.00    +0.000 C 
BRANCH  17  19
ATOM     18  C   UNL     1       7.834   5.371  12.359  0.00  0.00    +0.000 C 
ATOM     19  C   UNL     1       7.504   5.131  13.825  0.00  0.00    +0.000 C 
ENDBRANCH  17  19
BRANCH  17  20
ATOM     20  C   UNL     1       5.867   3.256  13.143  0.00  0.00    +0.000 C 
ATOM     21  C   UNL     1       4.838   3.504  12.048  0.00  0.00    +0.000 C 
ENDBRANCH  17  20
ENDBRANCH  15  17
ENDBRANCH   1  15
BRANCH   3  22
ATOM     22  O   UNL     1       1.942   4.185  17.772  0.00  0.00    +0.000 OA
ATOM     23  C   UNL     1       2.050   2.851  18.246  0.00  0.00    +0.000 C 
ENDBRANCH   3  22
BRANCH   6  24
ATOM     24  O   UNL     1       6.718   6.499  16.634  0.00  0.00    +0.000 OA
ATOM     25  C   UNL     1       7.495   6.670  17.814  0.00  0.00    +0.000 C 
ENDBRANCH   6  24
TORSDOF 7
ENDMDL
MODEL 2
REMARK VINA RESULT:      -6.5      1.223      2.021
REMARK  Name = 
REMARK  11 active torsions:
REMARK  status: ('A' for Active; 'I' for Inactive)
REMARK    1  A    between atoms: C_1  and  C_2
REMARK    2  A    between atoms: C_2  and  C_3
REMARK    3  A    between atoms: C_3  and  C_4
REMARK    4  A    between atoms: C_3  and  N_6
REMARK    5  A    between atoms: C_4  and  C_5
REMARK    6  A    between atoms: N_6  and  C_7
REMARK    7  A    between atoms: C_9  and  O_10
REMARK    8  A    between atoms: O_10  and  C_11
REMARK    9  A    between atoms: C_12  and  C_13
REMARK   10  A    between atoms: C_22  and  O_23
REMARK   11  A    between atoms: O_23  and  C_24
REMARK                            x       y       z     vdW  Elec       q    Type
REMARK                         _______ _______ _______ _____ _____    ______ ____
ROOT
ATOM      1  C   UNL     1       5.638   4.650  16.364  0.00  0.00    +0.000 A 
ATOM      2  N   UNL     1       4.389   4.173  16.550  0.00  0.00    +0.000 NA
ATOM      3  C   UNL     1       3.527   4.977  17.225  0.00  0.00    +0.000 A 
ATOM      4  C   UNL     1       3.862   6.265  17.688  0.00  0.00    +0.000 A 
ATOM      5  N   UNL     1       5.096   6.771  17.446  0.00  0.00    +0.000 NA
ATOM      6  C   UNL     1       5.966   5.952  16.803  0.00  0.00    +0.000 A 
ENDROOT
BRANCH   4   7
ATOM      7  C   UNL     1       2.952   7.121  18.490  0.00  0.00    +0.000 A 
ATOM      8  C   UNL     1       2.484   8.344  17.959  0.00  0.00    +0.000 A 
ATOM      9  C   UNL     1       1.545   9.135  18.628  0.00  0.00    +0.000 A 
ATOM     10  C   UNL     1       1.087   8.747  19.880  0.00  0.00    +0.000 A 
ATOM     11 CL   UNL     1      -0.084   9.703  20.699  0.00  0.00    +0.000 Cl
ATOM     12  C   UNL     1       1.562   7.580  20.463  0.00  0.00    +0.000 A 
ATOM     13  C   UNL     1       2.475   6.767  19.774  0.00  0.00    +0.000 A 
ATOM     14 CL   UNL     1       2.904   5.291  20.581  0.00  0.00    +0.000 Cl
ENDBRANCH   4   7
BRANCH   1  15
ATOM     15  N   UNL     1       6.601   3.873  15.699  0.00  0.00    +0.000 N 
ATOM     16  H   UNL     1       6.540   2.911  16.031  0.00  0.00    +0.000 HD
BRANCH  15  17
ATOM     17  C   UNL     1       6.711   3.984  14.239  0.00  0.00    +0.000 C 
BRANCH  17  19
ATOM     18  C   UNL     1       5.067   3.324  12.356  0.00  0.00    +0.000 C 
ATOM     19  C   UNL     1       5.269   4.047  13.680  0.00  0.00    +0.000 C 
ENDBRANCH  17  19
BRANCH  17  20
ATOM     20  C   UNL     1       7.582   5.186  13.809  0.00  0.00    +0.000 C 
ATOM     21  C   UNL     1       7.816   5.312  12.310  0.00  0.00    +0.000 C 
ENDBRANCH  17  20
ENDBRANCH  15  17
ENDBRANCH   1  15
BRANCH   3  22
ATOM     22  O   UNL     1       2.250   4.508  17.470  0.00  0.00    +0.000 OA
ATOM     23  C   UNL     1       2.178   3.113  17.725  0.00  0.00    +0.000 C 
ENDBRANCH   3  22
BRANCH   6  24
ATOM     24  O   UNL     1       7.282   6.365  16.642  0.00  0.00    +0.000 OA
ATOM     25  C   UNL     1       7.636   7.443  17.502  0.00  0.00    +0.000 C 
ENDBRANCH   6  24
TORSDOF 7
ENDMDL
MODEL 3
REMARK VINA RESULT:      -6.4      3.736      6.172
REMARK  Name = 
REMARK  11 active torsions:
REMARK  status: ('A' for Active; 'I' for Inactive)
REMARK    1  A    between atoms: C_1  and  C_2
REMARK    2  A    between atoms: C_2  and  C_3
REMARK    3  A    between atoms: C_3  and  C_4
REMARK    4  A    between atoms: C_3  and  N_6
REMARK    5  A    between atoms: C_4  and  C_5
REMARK    6  A    between atoms: N_6  and  C_7
REMARK    7  A    between atoms: C_9  and  O_10
REMARK    8  A    between atoms: O_10  and  C_11
REMARK    9  A    between atoms: C_12  and  C_13
REMARK   10  A    between atoms: C_22  and  O_23
REMARK   11  A    between atoms: O_23  and  C_24
REMARK                            x       y       z     vdW  Elec       q    Type
REMARK                         _______ _______ _______ _____ _____    ______ ____
ROOT
ATOM      1  C   UNL     1       2.195   7.004  19.837  0.00  0.00    +0.000 A 
ATOM      2  N   UNL     1       1.632   7.609  20.903  0.00  0.00    +0.000 NA
ATOM      3  C   UNL     1       1.169   8.872  20.710  0.00  0.00    +0.000 A 
ATOM      4  C   UNL     1       1.217   9.538  19.469  0.00  0.00    +0.000 A 
ATOM      5  N   UNL     1       1.723   8.907  18.382  0.00  0.00    +0.000 NA
ATOM      6  C   UNL     1       2.217   7.660  18.586  0.00  0.00    +0.000 A 
ENDROOT
BRANCH   4   7
ATOM      7  C   UNL     1       0.782  10.943  19.265  0.00  0.00    +0.000 A 
ATOM      8  C   UNL     1       1.679  12.004  19.527  0.00  0.00    +0.000 A 
ATOM      9  C   UNL     1       1.355  13.336  19.252  0.00  0.00    +0.000 A 
ATOM     10  C   UNL     1       0.098  13.649  18.754  0.00  0.00    +0.000 A 
ATOM     11 CL   UNL     1      -0.299  15.282  18.391  0.00  0.00    +0.000 Cl
ATOM     12  C   UNL     1      -0.833  12.643  18.532  0.00  0.00    +0.000 A 
ATOM     13  C   UNL     1      -0.494  11.302  18.772  0.00  0.00    +0.000 A 
ATOM     14 CL   UNL     1      -1.720  10.146  18.356  0.00  0.00    +0.000 Cl
ENDBRANCH   4   7
BRANCH   1  15
ATOM     15  N   UNL     1       2.722   5.707  19.955  0.00  0.00    +0.000 N 
ATOM     16  H   UNL     1       3.082   5.579  20.900  0.00  0.00    +0.000 HD
BRANCH  15  17
ATOM     17  C   UNL     1       1.923   4.574  19.473  0.00  0.00    +0.000 C 
BRANCH  17  19
ATOM     18  C   UNL     1       2.202   2.492  17.967  0.00  0.00    +0.000 C 
ATOM     19  C   UNL     1       2.884   3.637  18.703  0.00  0.00    +0.000 C 
ENDBRANCH  17  19
BRANCH  17  20
ATOM     20  C   UNL     1       1.169   3.862  20.620  0.00  0.00    +0.000 C 
ATOM     21  C   UNL     1       2.057   3.213  21.672  0.00  0.00    +0.000 C 
ENDBRANCH  17  20
ENDBRANCH  15  17
ENDBRANCH   1  15
BRANCH   3  22
ATOM     22  O   UNL     1       0.622   9.540  21.789  0.00  0.00    +0.000 OA
ATOM     23  C   UNL     1      -0.559   8.947  22.308  0.00  0.00    +0.000 C 
ENDBRANCH   3  22
BRANCH   6  24
ATOM     24  O   UNL     1       2.865   7.015  17.540  0.00  0.00    +0.000 OA
ATOM     25  C   UNL     1       4.248   7.342  17.458  0.00  0.00    +0.000 C 
ENDBRANCH   6  24
TORSDOF 7
ENDMDL
MODEL 4
REMARK VINA RESULT:      -6.3      1.213      1.584
REMARK  Name = 
REMARK  11 active torsions:
REMARK  status: ('A' for Active; 'I' for Inactive)
REMARK    1  A    between atoms: C_1  and  C_2
REMARK    2  A    between atoms: C_2  and  C_3
REMARK    3  A    between atoms: C_3  and  C_4
REMARK    4  A    between atoms: C_3  and  N_6
REMARK    5  A    between atoms: C_4  and  C_5
REMARK    6  A    between atoms: N_6  and  C_7
REMARK    7  A    between atoms: C_9  and  O_10
REMARK    8  A    between atoms: O_10  and  C_11
REMARK    9  A    between atoms: C_12  and  C_13
REMARK   10  A    between atoms: C_22  and  O_23
REMARK   11  A    between atoms: O_23  and  C_24
REMARK                            x       y       z     vdW  Elec       q    Type
REMARK                         _______ _______ _______ _____ _____    ______ ____
ROOT
ATOM      1  C   UNL     1       5.238   5.120  16.431  0.00  0.00    +0.000 A 
ATOM      2  N   UNL     1       4.047   4.567  16.740  0.00  0.00    +0.000 NA
ATOM      3  C   UNL     1       3.200   5.325  17.484  0.00  0.00    +0.000 A 
ATOM      4  C   UNL     1       3.491   6.640  17.899  0.00  0.00    +0.000 A 
ATOM      5  N   UNL     1       4.661   7.220  17.535  0.00  0.00    +0.000 NA
ATOM      6  C   UNL     1       5.519   6.448  16.823  0.00  0.00    +0.000 A 
ENDROOT
BRANCH   4   7
ATOM      7  C   UNL     1       2.606   7.449  18.774  0.00  0.00    +0.000 A 
ATOM      8  C   UNL     1       2.112   8.693  18.320  0.00  0.00    +0.000 A 
ATOM      9  C   UNL     1       1.194   9.444  19.060  0.00  0.00    +0.000 A 
ATOM     10  C   UNL     1       0.783   8.992  20.307  0.00  0.00    +0.000 A 
ATOM     11 CL   UNL     1      -0.363   9.898  21.213  0.00  0.00    +0.000 Cl
ATOM     12  C   UNL     1       1.285   7.801  20.815  0.00  0.00    +0.000 A 
ATOM     13  C   UNL     1       2.177   7.029  20.055  0.00  0.00    +0.000 A 
ATOM     14 CL   UNL     1       2.643   5.520  20.773  0.00  0.00    +0.000 Cl
ENDBRANCH   4   7
BRANCH   1  15
ATOM     15  N   UNL     1       6.184   4.396  15.687  0.00  0.00    +0.000 N 
ATOM     16  H   UNL     1       6.168   3.421  15.986  0.00  0.00    +0.000 HD
BRANCH  15  17
ATOM     17  C   UNL     1       6.210   4.561  14.228  0.00  0.00    +0.000 C 
BRANCH  17  19
ATOM     18  C   UNL     1       8.056   5.684  12.810  0.00  0.00    +0.000 C 
ATOM     19  C   UNL     1       7.698   4.587  13.802  0.00  0.00    +0.000 C 
ENDBRANCH  17  19
BRANCH  17  20
ATOM     20  C   UNL     1       5.389   3.472  13.503  0.00  0.00    +0.000 C 
ATOM     21  C   UNL     1       5.753   3.253  12.041  0.00  0.00    +0.000 C 
ENDBRANCH  17  20
ENDBRANCH  15  17
ENDBRANCH   1  15
BRANCH   3  22
ATOM     22  O   UNL     1       1.986   4.778  17.855  0.00  0.00    +0.000 OA
ATOM     23  C   UNL     1       1.936   3.361  17.785  0.00  0.00    +0.000 C 
ENDBRANCH   3  22
BRANCH   6  24
ATOM     24  O   UNL     1       6.784   6.943  16.533  0.00  0.00    +0.000 OA
ATOM     25  C   UNL     1       7.489   7.378  17.690  0.00  0.00    +0.000 C 
ENDBRANCH   6  24
TORSDOF 7
ENDMDL
MODEL 5
REMARK VINA RESULT:      -6.1      3.284      7.863
REMARK  Name = 
REMARK  11 active torsions:
REMARK  status: ('A' for Active; 'I' for Inactive)
REMARK    1  A    between atoms: C_1  and  C_2
REMARK    2  A    between atoms: C_2  and  C_3
REMARK    3  A    between atoms: C_3  and  C_4
REMARK    4  A    between atoms: C_3  and  N_6
REMARK    5  A    between atoms: C_4  and  C_5
REMARK    6  A    between atoms: N_6  and  C_7
REMARK    7  A    between atoms: C_9  and  O_10
REMARK    8  A    between atoms: O_10  and  C_11
REMARK    9  A    between atoms: C_12  and  C_13
REMARK   10  A    between atoms: C_22  and  O_23
REMARK   11  A    between atoms: O_23  and  C_24
REMARK                            x       y       z     vdW  Elec       q    Type
REMARK                         _______ _______ _______ _____ _____    ______ ____
ROOT
ATOM      1  C   UNL     1       1.134   8.658  19.841  0.00  0.00    +0.000 A 
ATOM      2  N   UNL     1       1.565   7.522  20.429  0.00  0.00    +0.000 NA
ATOM      3  C   UNL     1       2.455   6.774  19.726  0.00  0.00    +0.000 A 
ATOM      4  C   UNL     1       2.960   7.146  18.464  0.00  0.00    +0.000 A 
ATOM      5  N   UNL     1       2.576   8.318  17.900  0.00  0.00    +0.000 NA
ATOM      6  C   UNL     1       1.660   9.045  18.588  0.00  0.00    +0.000 A 
ENDROOT
BRANCH   4   7
ATOM      7  C   UNL     1       3.874   6.302  17.655  0.00  0.00    +0.000 A 
ATOM      8  C   UNL     1       5.174   6.763  17.348  0.00  0.00    +0.000 A 
ATOM      9  C   UNL     1       6.108   5.966  16.680  0.00  0.00    +0.000 A 
ATOM     10  C   UNL     1       5.747   4.696  16.252  0.00  0.00    +0.000 A 
ATOM     11 CL   UNL     1       6.897   3.701  15.450  0.00  0.00    +0.000 Cl
ATOM     12  C   UNL     1       4.462   4.223  16.485  0.00  0.00    +0.000 A 
ATOM     13  C   UNL     1       3.537   5.009  17.189  0.00  0.00    +0.000 A 
ATOM     14 CL   UNL     1       2.006   4.251  17.492  0.00  0.00    +0.000 Cl
ENDBRANCH   4   7
BRANCH   1  15
ATOM     15  N   UNL     1       0.193   9.477  20.487  0.00  0.00    +0.000 N 
ATOM     16  H   UNL     1      -0.648   8.933  20.676  0.00  0.00    +0.000 HD
BRANCH  15  17
ATOM     17  C   UNL     1       0.633  10.292  21.626  0.00  0.00    +0.000 C 
BRANCH  17  19
ATOM     18  C   UNL     1      -0.729  11.989  20.230  0.00  0.00    +0.000 C 
ATOM     19  C   UNL     1       0.383  11.772  21.247  0.00  0.00    +0.000 C 
ENDBRANCH  17  19
BRANCH  17  20
ATOM     20  C   UNL     1      -0.060   9.877  22.943  0.00  0.00    +0.000 C 
ATOM     21  C   UNL     1      -1.306  10.677  23.299  0.00  0.00    +0.000 C 
ENDBRANCH  17  20
ENDBRANCH  15  17
ENDBRANCH   1  15
BRANCH   3  22
ATOM     22  O   UNL     1       2.890   5.584  20.277  0.00  0.00    +0.000 OA
ATOM     23  C   UNL     1       1.883   4.852  20.960  0.00  0.00    +0.000 C 
ENDBRANCH   3  22
BRANCH   6  24
ATOM     24  O   UNL     1       1.134  10.188  18.003  0.00  0.00    +0.000 OA
ATOM     25  C   UNL     1       2.059  11.269  17.962  0.00  0.00    +0.000 C 
ENDBRANCH   6  24
TORSDOF 7
ENDMDL
MODEL 6
REMARK VINA RESULT:      -6.1      0.598      1.396
REMARK  Name = 
REMARK  11 active torsions:
REMARK  status: ('A' for Active; 'I' for Inactive)
REMARK    1  A    between atoms: C_1  and  C_2
REMARK    2  A    between atoms: C_2  and  C_3
REMARK    3  A    between atoms: C_3  and  C_4
REMARK    4  A    between atoms: C_3  and  N_6
REMARK    5  A    between atoms: C_4  and  C_5
REMARK    6  A    between atoms: N_6  and  C_7
REMARK    7  A    between atoms: C_9  and  O_10
REMARK    8  A    between atoms: O_10  and  C_11
REMARK    9  A    between atoms: C_12  and  C_13
REMARK   10  A    between atoms: C_22  and  O_23
REMARK   11  A    between atoms: O_23  and  C_24
REMARK                            x       y       z     vdW  Elec       q    Type
REMARK                         _______ _______ _______ _____ _____    ______ ____
ROOT
ATOM      1  C   UNL     1       5.291   4.192  16.579  0.00  0.00    +0.000 A 
ATOM      2  N   UNL     1       3.985   3.850  16.576  0.00  0.00    +0.000 NA
ATOM      3  C   UNL     1       3.161   4.595  17.359  0.00  0.00    +0.000 A 
ATOM      4  C   UNL     1       3.596   5.699  18.119  0.00  0.00    +0.000 A 
ATOM      5  N   UNL     1       4.895   6.083  18.072  0.00  0.00    +0.000 NA
ATOM      6  C   UNL     1       5.722   5.316  17.318  0.00  0.00    +0.000 A 
ENDROOT
BRANCH   4   7
ATOM      7  C   UNL     1       2.720   6.473  19.034  0.00  0.00    +0.000 A 
ATOM      8  C   UNL     1       2.316   5.911  20.267  0.00  0.00    +0.000 A 
ATOM      9  C   UNL     1       1.580   6.636  21.208  0.00  0.00    +0.000 A 
ATOM     10  C   UNL     1       1.179   7.932  20.917  0.00  0.00    +0.000 A 
ATOM     11 CL   UNL     1       0.292   8.838  22.079  0.00  0.00    +0.000 Cl
ATOM     12  C   UNL     1       1.507   8.505  19.695  0.00  0.00    +0.000 A 
ATOM     13  C   UNL     1       2.280   7.790  18.766  0.00  0.00    +0.000 A 
ATOM     14 CL   UNL     1       2.697   8.665  17.327  0.00  0.00    +0.000 Cl
ENDBRANCH   4   7
BRANCH   1  15
ATOM     15  N   UNL     1       6.217   3.459  15.817  0.00  0.00    +0.000 N 
ATOM     16  H   UNL     1       6.036   2.464  15.942  0.00  0.00    +0.000 HD
BRANCH  15  17
ATOM     17  C   UNL     1       6.441   3.844  14.419  0.00  0.00    +0.000 C 
BRANCH  17  19
ATOM     18  C   UNL     1       5.080   3.400  12.266  0.00  0.00    +0.000 C 
ATOM     19  C   UNL     1       5.059   3.845  13.722  0.00  0.00    +0.000 C 
ENDBRANCH  17  19
BRANCH  17  20
ATOM     20  C   UNL     1       7.183   5.194  14.297  0.00  0.00    +0.000 C 
ATOM     21  C   UNL     1       8.014   5.365  13.033  0.00  0.00    +0.000 C 
ENDBRANCH  17  20
ENDBRANCH  15  17
ENDBRANCH   1  15
BRANCH   3  22
ATOM     22  O   UNL     1       1.824   4.251  17.414  0.00  0.00    +0.000 OA
ATOM     23  C   UNL     1       1.554   3.064  18.144  0.00  0.00    +0.000 C 
ENDBRANCH   3  22
BRANCH   6  24
ATOM     24  O   UNL     1       7.085   5.582  17.334  0.00  0.00    +0.000 OA
ATOM     25  C   UNL     1       7.539   6.079  18.589  0.00  0.00    +0.000 C 
ENDBRANCH   6  24
TORSDOF 7
ENDMDL
MODEL 7
REMARK VINA RESULT:      -6.0      1.482      3.335
REMARK  Name = 
REMARK  11 active torsions:
REMARK  status: ('A' for Active; 'I' for Inactive)
REMARK    1  A    between atoms: C_1  and  C_2
REMARK    2  A    between atoms: C_2  and  C_3
REMARK    3  A    between atoms: C_3  and  C_4
REMARK    4  A    between atoms: C_3  and  N_6
REMARK    5  A    between atoms: C_4  and  C_5
REMARK    6  A    between atoms: N_6  and  C_7
REMARK    7  A    between atoms: C_9  and  O_10
REMARK    8  A    between atoms: O_10  and  C_11
REMARK    9  A    between atoms: C_12  and  C_13
REMARK   10  A    between atoms: C_22  and  O_23
REMARK   11  A    between atoms: O_23  and  C_24
REMARK                            x       y       z     vdW  Elec       q    Type
REMARK                         _______ _______ _______ _____ _____    ______ ____
ROOT
ATOM      1  C   UNL     1       5.075   4.356  16.426  0.00  0.00    +0.000 A 
ATOM      2  N   UNL     1       5.684   5.533  16.683  0.00  0.00    +0.000 NA
ATOM      3  C   UNL     1       4.953   6.459  17.358  0.00  0.00    +0.000 A 
ATOM      4  C   UNL     1       3.642   6.230  17.821  0.00  0.00    +0.000 A 
ATOM      5  N   UNL     1       3.054   5.026  17.620  0.00  0.00    +0.000 NA
ATOM      6  C   UNL     1       3.772   4.116  16.914  0.00  0.00    +0.000 A 
ENDROOT
BRANCH   4   7
ATOM      7  C   UNL     1       2.810   7.258  18.494  0.00  0.00    +0.000 A 
ATOM      8  C   UNL     1       2.489   8.459  17.821  0.00  0.00    +0.000 A 
ATOM      9  C   UNL     1       1.624   9.411  18.369  0.00  0.00    +0.000 A 
ATOM     10  C   UNL     1       1.096   9.210  19.636  0.00  0.00    +0.000 A 
ATOM     11 CL   UNL     1       0.013  10.366  20.307  0.00  0.00    +0.000 Cl
ATOM     12  C   UNL     1       1.427   8.070  20.356  0.00  0.00    +0.000 A 
ATOM     13  C   UNL     1       2.265   7.097  19.790  0.00  0.00    +0.000 A 
ATOM     14 CL   UNL     1       2.512   5.681  20.763  0.00  0.00    +0.000 Cl
ENDBRANCH   4   7
BRANCH   1  15
ATOM     15  N   UNL     1       5.749   3.352  15.709  0.00  0.00    +0.000 N 
ATOM     16  H   UNL     1       5.179   2.507  15.704  0.00  0.00    +0.000 HD
BRANCH  15  17
ATOM     17  C   UNL     1       6.319   3.684  14.398  0.00  0.00    +0.000 C 
BRANCH  17  19
ATOM     18  C   UNL     1       5.241   3.200  12.099  0.00  0.00    +0.000 C 
ATOM     19  C   UNL     1       5.130   3.920  13.435  0.00  0.00    +0.000 C 
ENDBRANCH  17  19
BRANCH  17  20
ATOM     20  C   UNL     1       7.290   4.883  14.470  0.00  0.00    +0.000 C 
ATOM     21  C   UNL     1       7.882   5.318  13.137  0.00  0.00    +0.000 C 
ENDBRANCH  17  20
ENDBRANCH  15  17
ENDBRANCH   1  15
BRANCH   3  22
ATOM     22  O   UNL     1       5.527   7.691  17.606  0.00  0.00    +0.000 OA
ATOM     23  C   UNL     1       6.941   7.714  17.483  0.00  0.00    +0.000 C 
ENDBRANCH   3  22
BRANCH   6  24
ATOM     24  O   UNL     1       3.173   2.913  16.565  0.00  0.00    +0.000 OA
ATOM     25  C   UNL     1       2.574   2.249  17.672  0.00  0.00    +0.000 C 
ENDBRANCH   6  24
TORSDOF 7
ENDMDL
MODEL 8
REMARK VINA RESULT:      -5.9      2.944      4.934
REMARK  Name = 
REMARK  11 active torsions:
REMARK  status: ('A' for Active; 'I' for Inactive)
REMARK    1  A    between atoms: C_1  and  C_2
REMARK    2  A    between atoms: C_2  and  C_3
REMARK    3  A    between atoms: C_3  and  C_4
REMARK    4  A    between atoms: C_3  and  N_6
REMARK    5  A    between atoms: C_4  and  C_5
REMARK    6  A    between atoms: N_6  and  C_7
REMARK    7  A    between atoms: C_9  and  O_10
REMARK    8  A    between atoms: O_10  and  C_11
REMARK    9  A    between atoms: C_12  and  C_13
REMARK   10  A    between atoms: C_22  and  O_23
REMARK   11  A    between atoms: O_23  and  C_24
REMARK                            x       y       z     vdW  Elec       q    Type
REMARK                         _______ _______ _______ _____ _____    ______ ____
ROOT
ATOM      1  C   UNL     1       3.087   7.182  18.315  0.00  0.00    +0.000 A 
ATOM      2  N   UNL     1       2.924   8.325  17.616  0.00  0.00    +0.000 NA
ATOM      3  C   UNL     1       2.068   9.241  18.140  0.00  0.00    +0.000 A 
ATOM      4  C   UNL     1       1.396   9.067  19.367  0.00  0.00    +0.000 A 
ATOM      5  N   UNL     1       1.609   7.948  20.101  0.00  0.00    +0.000 NA
ATOM      6  C   UNL     1       2.435   7.019  19.558  0.00  0.00    +0.000 A 
ENDROOT
BRANCH   4   7
ATOM      7  C   UNL     1       0.404  10.027  19.913  0.00  0.00    +0.000 A 
ATOM      8  C   UNL     1       0.633  10.644  21.164  0.00  0.00    +0.000 A 
ATOM      9  C   UNL     1      -0.216  11.631  21.672  0.00  0.00    +0.000 A 
ATOM     10  C   UNL     1      -1.353  11.991  20.963  0.00  0.00    +0.000 A 
ATOM     11 CL   UNL     1      -2.390  13.221  21.572  0.00  0.00    +0.000 Cl
ATOM     12  C   UNL     1      -1.646  11.372  19.756  0.00  0.00    +0.000 A 
ATOM     13  C   UNL     1      -0.773  10.409  19.227  0.00  0.00    +0.000 A 
ATOM     14 CL   UNL     1      -1.214   9.793  17.665  0.00  0.00    +0.000 Cl
ENDBRANCH   4   7
BRANCH   1  15
ATOM     15  N   UNL     1       3.933   6.171  17.832  0.00  0.00    +0.000 N 
ATOM     16  H   UNL     1       3.376   5.486  17.320  0.00  0.00    +0.000 HD
BRANCH  15  17
ATOM     17  C   UNL     1       5.169   6.556  17.140  0.00  0.00    +0.000 C 
BRANCH  17  19
ATOM     18  C   UNL     1       5.937   5.176  19.186  0.00  0.00    +0.000 C 
ATOM     19  C   UNL     1       6.348   6.012  17.981  0.00  0.00    +0.000 C 
ENDBRANCH  17  19
BRANCH  17  20
ATOM     20  C   UNL     1       5.193   6.069  15.673  0.00  0.00    +0.000 C 
ATOM     21  C   UNL     1       5.777   4.679  15.463  0.00  0.00    +0.000 C 
ENDBRANCH  17  20
ENDBRANCH  15  17
ENDBRANCH   1  15
BRANCH   3  22
ATOM     22  O   UNL     1       1.844  10.407  17.434  0.00  0.00    +0.000 OA
ATOM     23  C   UNL     1       2.545  11.537  17.932  0.00  0.00    +0.000 C 
ENDBRANCH   3  22
BRANCH   6  24
ATOM     24  O   UNL     1       2.589   5.799  20.202  0.00  0.00    +0.000 OA
ATOM     25  C   UNL     1       1.377   5.058  20.287  0.00  0.00    +0.000 C 
ENDBRANCH   6  24
TORSDOF 7
ENDMDL
MODEL 9
REMARK VINA RESULT:      -5.9      5.953     10.613
REMARK  Name = 
REMARK  11 active torsions:
REMARK  status: ('A' for Active; 'I' for Inactive)
REMARK    1  A    between atoms: C_1  and  C_2
REMARK    2  A    between atoms: C_2  and  C_3
REMARK    3  A    between atoms: C_3  and  C_4
REMARK    4  A    between atoms: C_3  and  N_6
REMARK    5  A    between atoms: C_4  and  C_5
REMARK    6  A    between atoms: N_6  and  C_7
REMARK    7  A    between atoms: C_9  and  O_10
REMARK    8  A    between atoms: O_10  and  C_11
REMARK    9  A    between atoms: C_12  and  C_13
REMARK   10  A    between atoms: C_22  and  O_23
REMARK   11  A    between atoms: O_23  and  C_24
REMARK                            x       y       z     vdW  Elec       q    Type
REMARK                         _______ _______ _______ _____ _____    ______ ____
ROOT
ATOM      1  C   UNL     1      -1.992  12.935  20.076  0.00  0.00    +0.000 A 
ATOM      2  N   UNL     1      -0.765  13.007  20.634  0.00  0.00    +0.000 NA
ATOM      3  C   UNL     1       0.085  11.982  20.364  0.00  0.00    +0.000 A 
ATOM      4  C   UNL     1      -0.240  10.902  19.519  0.00  0.00    +0.000 A 
ATOM      5  N   UNL     1      -1.449  10.862  18.907  0.00  0.00    +0.000 NA
ATOM      6  C   UNL     1      -2.309  11.868  19.207  0.00  0.00    +0.000 A 
ENDROOT
BRANCH   4   7
ATOM      7  C   UNL     1       0.652   9.741  19.275  0.00  0.00    +0.000 A 
ATOM      8  C   UNL     1       1.268   9.577  18.013  0.00  0.00    +0.000 A 
ATOM      9  C   UNL     1       2.196   8.562  17.766  0.00  0.00    +0.000 A 
ATOM     10  C   UNL     1       2.496   7.646  18.765  0.00  0.00    +0.000 A 
ATOM     11 CL   UNL     1       3.655   6.409  18.474  0.00  0.00    +0.000 Cl
ATOM     12  C   UNL     1       1.875   7.738  20.003  0.00  0.00    +0.000 A 
ATOM     13  C   UNL     1       0.971   8.780  20.263  0.00  0.00    +0.000 A 
ATOM     14 CL   UNL     1       0.347   8.827  21.882  0.00  0.00    +0.000 Cl
ENDBRANCH   4   7
BRANCH   1  15
ATOM     15  N   UNL     1      -2.943  13.940  20.325  0.00  0.00    +0.000 N 
ATOM     16  H   UNL     1      -3.452  14.136  19.464  0.00  0.00    +0.000 HD
BRANCH  15  17
ATOM     17  C   UNL     1      -3.808  13.815  21.504  0.00  0.00    +0.000 C 
BRANCH  17  19
ATOM     18  C   UNL     1      -6.040  12.542  21.221  0.00  0.00    +0.000 C 
ATOM     19  C   UNL     1      -5.270  13.836  20.996  0.00  0.00    +0.000 C 
ENDBRANCH  17  19
BRANCH  17  20
ATOM     20  C   UNL     1      -3.475  12.561  22.342  0.00  0.00    +0.000 C 
ATOM     21  C   UNL     1      -3.193  12.823  23.815  0.00  0.00    +0.000 C 
ENDBRANCH  17  20
ENDBRANCH  15  17
ENDBRANCH   1  15
BRANCH   3  22
ATOM     22  O   UNL     1       1.337  11.999  20.948  0.00  0.00    +0.000 OA
ATOM     23  C   UNL     1       2.131  13.122  20.598  0.00  0.00    +0.000 C 
ENDBRANCH   3  22
BRANCH   6  24
ATOM     24  O   UNL     1      -3.606  11.812  18.714  0.00  0.00    +0.000 OA
ATOM     25  C   UNL     1      -3.814  10.725  17.819  0.00  0.00    +0.000 C 
ENDBRANCH   6  24
TORSDOF 7
ENDMDL
