MODEL 1
REMARK VINA RESULT:      -7.6      0.000      0.000
REMARK  Name = 
REMARK  6 active torsions:
REMARK  status: ('A' for Active; 'I' for Inactive)
REMARK    1  A    between atoms: N_1  and  C_2
REMARK    2  A    between atoms: C_8  and  C_9
REMARK    3  A    between atoms: C_11  and  C_12
REMARK    4  A    between atoms: C_12  and  O_13
REMARK    5  A    between atoms: C_14  and  O_15
REMARK    6  A    between atoms: C_16  and  O_17
REMARK                            x       y       z     vdW  Elec       q    Type
REMARK                         _______ _______ _______ _____ _____    ______ ____
ROOT
ATOM      1  C   UNL     1       7.494   5.988  19.159  0.00  0.00    +0.000 A 
ATOM      2  N   UNL     1       8.283   6.806  18.436  0.00  0.00    +0.000 NA
ATOM      3  C   UNL     1       7.725   7.500  17.423  0.00  0.00    +0.000 A 
ATOM      4  N   UNL     1       6.445   7.482  17.007  0.00  0.00    +0.000 NA
ATOM      5  C   UNL     1       5.706   6.651  17.753  0.00  0.00    +0.000 A 
ATOM      6  N   UNL     1       4.367   6.432  17.587  0.00  0.00    +0.000 N 
ATOM      7  C   UNL     1       3.909   5.542  18.535  0.00  0.00    +0.000 A 
ATOM      8  C   UNL     1       5.007   5.167  19.295  0.00  0.00    +0.000 A 
ATOM      9  C   UNL     1       6.141   5.879  18.817  0.00  0.00    +0.000 A 
ATOM     10  H   UNL     1       3.813   6.898  16.879  0.00  0.00    +0.000 HD
ENDROOT
BRANCH   7  11
ATOM     11  C   UNL     1       2.461   5.173  18.629  0.00  0.00    +0.000 C 
ATOM     12  C   UNL     1       2.006   4.798  20.015  0.00  0.00    +0.000 C 
ATOM     13  C   UNL     1       1.773   3.482  20.143  0.00  0.00    +0.000 C 
ATOM     14  C   UNL     1       2.052   2.757  18.864  0.00  0.00    +0.000 C 
ATOM     15  C   UNL     1       2.106   3.900  17.824  0.00  0.00    +0.000 C 
BRANCH  14  16
ATOM     16  O   UNL     1       1.006   1.838  18.584  0.00  0.00    +0.000 OA
ATOM     17  H   UNL     1       1.004   1.195  19.321  0.00  0.00    +0.000 HD
ENDBRANCH  14  16
BRANCH  15  18
ATOM     18  O   UNL     1       0.810   4.043  17.201  0.00  0.00    +0.000 OA
ATOM     19  H   UNL     1       0.494   4.945  17.408  0.00  0.00    +0.000 HD
ENDBRANCH  15  18
BRANCH  13  20
ATOM     20  C   UNL     1       1.372   2.730  21.365  0.00  0.00    +0.000 C 
BRANCH  20  21
ATOM     21  O   UNL     1       2.431   2.735  22.313  0.00  0.00    +0.000 OA
ATOM     22  H   UNL     1       3.007   3.483  22.082  0.00  0.00    +0.000 HD
ENDBRANCH  20  21
ENDBRANCH  13  20
ENDBRANCH   7  11
BRANCH   1  23
ATOM     23  N   UNL     1       8.079   5.291  20.208  0.00  0.00    +0.000 N 
ATOM     24  H   UNL     1       7.675   4.367  20.297  0.00  0.00    +0.000 HD
ATOM     25  H   UNL     1       8.209   5.817  21.058  0.00  0.00    +0.000 HD
ENDBRANCH   1  23
TORSDOF 6
ENDMDL
MODEL 2
REMARK VINA RESULT:      -7.5      3.427      5.164
REMARK  Name = 
REMARK  6 active torsions:
REMARK  status: ('A' for Active; 'I' for Inactive)
REMARK    1  A    between atoms: N_1  and  C_2
REMARK    2  A    between atoms: C_8  and  C_9
REMARK    3  A    between atoms: C_11  and  C_12
REMARK    4  A    between atoms: C_12  and  O_13
REMARK    5  A    between atoms: C_14  and  O_15
REMARK    6  A    between atoms: C_16  and  O_17
REMARK                            x       y       z     vdW  Elec       q    Type
REMARK                         _______ _______ _______ _____ _____    ______ ____
ROOT
ATOM      1  C   UNL     1       1.225   9.521  18.877  0.00  0.00    +0.000 A 
ATOM      2  N   UNL     1       0.567   9.873  19.998  0.00  0.00    +0.000 NA
ATOM      3  C   UNL     1       0.663   9.067  21.075  0.00  0.00    +0.000 A 
ATOM      4  N   UNL     1       1.337   7.908  21.190  0.00  0.00    +0.000 NA
ATOM      5  C   UNL     1       1.966   7.599  20.050  0.00  0.00    +0.000 A 
ATOM      6  N   UNL     1       2.747   6.493  19.861  0.00  0.00    +0.000 N 
ATOM      7  C   UNL     1       3.267   6.489  18.585  0.00  0.00    +0.000 A 
ATOM      8  C   UNL     1       2.765   7.613  17.945  0.00  0.00    +0.000 A 
ATOM      9  C   UNL     1       1.959   8.328  18.872  0.00  0.00    +0.000 A 
ATOM     10  H   UNL     1       2.924   5.810  20.586  0.00  0.00    +0.000 HD
ENDROOT
BRANCH   7  11
ATOM     11  C   UNL     1       4.216   5.425  18.128  0.00  0.00    +0.000 C 
ATOM     12  C   UNL     1       3.550   4.226  17.506  0.00  0.00    +0.000 C 
ATOM     13  C   UNL     1       3.595   3.142  18.297  0.00  0.00    +0.000 C 
ATOM     14  C   UNL     1       4.286   3.445  19.589  0.00  0.00    +0.000 C 
ATOM     15  C   UNL     1       5.008   4.779  19.290  0.00  0.00    +0.000 C 
BRANCH  14  16
ATOM     16  O   UNL     1       5.203   2.409  19.908  0.00  0.00    +0.000 OA
ATOM     17  H   UNL     1       5.098   1.728  19.214  0.00  0.00    +0.000 HD
ENDBRANCH  14  16
BRANCH  15  18
ATOM     18  O   UNL     1       6.368   4.508  18.883  0.00  0.00    +0.000 OA
ATOM     19  H   UNL     1       6.663   5.273  18.352  0.00  0.00    +0.000 HD
ENDBRANCH  15  18
BRANCH  13  20
ATOM     20  C   UNL     1       2.999   1.798  18.056  0.00  0.00    +0.000 C 
BRANCH  20  21
ATOM     21  O   UNL     1       4.006   0.797  18.125  0.00  0.00    +0.000 OA
ATOM     22  H   UNL     1       4.458   0.915  18.977  0.00  0.00    +0.000 HD
ENDBRANCH  20  21
ENDBRANCH  13  20
ENDBRANCH   7  11
BRANCH   1  23
ATOM     23  N   UNL     1       1.130  10.367  17.781  0.00  0.00    +0.000 N 
ATOM     24  H   UNL     1       1.354   9.876  16.924  0.00  0.00    +0.000 HD
ATOM     25  H   UNL     1       1.539  11.281  17.903  0.00  0.00    +0.000 HD
ENDBRANCH   1  23
TORSDOF 6
ENDMDL
MODEL 3
REMARK VINA RESULT:      -7.4      3.928      6.352
REMARK  Name = 
REMARK  6 active torsions:
REMARK  status: ('A' for Active; 'I' for Inactive)
REMARK    1  A    between atoms: N_1  and  C_2
REMARK    2  A    between atoms: C_8  and  C_9
REMARK    3  A    between atoms: C_11  and  C_12
REMARK    4  A    between atoms: C_12  and  O_13
REMARK    5  A    between atoms: C_14  and  O_15
REMARK    6  A    between atoms: C_16  and  O_17
REMARK                            x       y       z     vdW  Elec       q    Type
REMARK                         _______ _______ _______ _____ _____    ______ ____
ROOT
ATOM      1  C   UNL     1       1.939   5.005  20.521  0.00  0.00    +0.000 A 
ATOM      2  N   UNL     1       1.051   4.014  20.726  0.00  0.00    +0.000 NA
ATOM      3  C   UNL     1       1.396   2.761  20.361  0.00  0.00    +0.000 A 
ATOM      4  N   UNL     1       2.541   2.347  19.789  0.00  0.00    +0.000 NA
ATOM      5  C   UNL     1       3.386   3.369  19.602  0.00  0.00    +0.000 A 
ATOM      6  N   UNL     1       4.636   3.261  19.058  0.00  0.00    +0.000 N 
ATOM      7  C   UNL     1       5.251   4.494  19.032  0.00  0.00    +0.000 A 
ATOM      8  C   UNL     1       4.341   5.407  19.545  0.00  0.00    +0.000 A 
ATOM      9  C   UNL     1       3.168   4.698  19.924  0.00  0.00    +0.000 A 
ATOM     10  H   UNL     1       5.035   2.381  18.757  0.00  0.00    +0.000 HD
ENDROOT
BRANCH   7  11
ATOM     11  C   UNL     1       6.659   4.658  18.549  0.00  0.00    +0.000 C 
ATOM     12  C   UNL     1       7.274   5.994  18.872  0.00  0.00    +0.000 C 
ATOM     13  C   UNL     1       7.404   6.778  17.790  0.00  0.00    +0.000 C 
ATOM     14  C   UNL     1       6.880   6.098  16.565  0.00  0.00    +0.000 C 
ATOM     15  C   UNL     1       6.779   4.619  17.007  0.00  0.00    +0.000 C 
BRANCH  14  16
ATOM     16  O   UNL     1       7.788   6.265  15.486  0.00  0.00    +0.000 OA
ATOM     17  H   UNL     1       8.014   5.364  15.178  0.00  0.00    +0.000 HD
ENDBRANCH  14  16
BRANCH  15  18
ATOM     18  O   UNL     1       7.979   3.918  16.612  0.00  0.00    +0.000 OA
ATOM     19  H   UNL     1       8.686   4.201  17.224  0.00  0.00    +0.000 HD
ENDBRANCH  15  18
BRANCH  13  20
ATOM     20  C   UNL     1       7.909   8.178  17.719  0.00  0.00    +0.000 C 
BRANCH  20  21
ATOM     21  O   UNL     1       8.714   8.465  18.855  0.00  0.00    +0.000 OA
ATOM     22  H   UNL     1       9.628   8.244  18.611  0.00  0.00    +0.000 HD
ENDBRANCH  20  21
ENDBRANCH  13  20
ENDBRANCH   7  11
BRANCH   1  23
ATOM     23  N   UNL     1       1.577   6.286  20.913  0.00  0.00    +0.000 N 
ATOM     24  H   UNL     1       2.157   6.981  20.460  0.00  0.00    +0.000 HD
ATOM     25  H   UNL     1       1.409   6.405  21.901  0.00  0.00    +0.000 HD
ENDBRANCH   1  23
TORSDOF 6
ENDMDL
MODEL 4
REMARK VINA RESULT:      -7.4      3.310      4.731
REMARK  Name = 
REMARK  6 active torsions:
REMARK  status: ('A' for Active; 'I' for Inactive)
REMARK    1  A    between atoms: N_1  and  C_2
REMARK    2  A    between atoms: C_8  and  C_9
REMARK    3  A    between atoms: C_11  and  C_12
REMARK    4  A    between atoms: C_12  and  O_13
REMARK    5  A    between atoms: C_14  and  O_15
REMARK    6  A    between atoms: C_16  and  O_17
REMARK                            x       y       z     vdW  Elec       q    Type
REMARK                         _______ _______ _______ _____ _____    ______ ____
ROOT
ATOM      1  C   UNL     1       1.218   8.638  20.067  0.00  0.00    +0.000 A 
ATOM      2  N   UNL     1       0.782   9.807  19.559  0.00  0.00    +0.000 NA
ATOM      3  C   UNL     1       1.224  10.178  18.340  0.00  0.00    +0.000 A 
ATOM      4  N   UNL     1       2.081   9.529  17.532  0.00  0.00    +0.000 NA
ATOM      5  C   UNL     1       2.490   8.379  18.084  0.00  0.00    +0.000 A 
ATOM      6  N   UNL     1       3.349   7.491  17.498  0.00  0.00    +0.000 N 
ATOM      7  C   UNL     1       3.540   6.401  18.320  0.00  0.00    +0.000 A 
ATOM      8  C   UNL     1       2.803   6.634  19.472  0.00  0.00    +0.000 A 
ATOM      9  C   UNL     1       2.123   7.873  19.319  0.00  0.00    +0.000 A 
ATOM     10  H   UNL     1       3.745   7.629  16.577  0.00  0.00    +0.000 HD
ENDROOT
BRANCH   7  11
ATOM     11  C   UNL     1       4.383   5.238  17.896  0.00  0.00    +0.000 C 
ATOM     12  C   UNL     1       3.599   4.052  17.402  0.00  0.00    +0.000 C 
ATOM     13  C   UNL     1       3.611   3.027  18.269  0.00  0.00    +0.000 C 
ATOM     14  C   UNL     1       4.393   3.368  19.497  0.00  0.00    +0.000 C 
ATOM     15  C   UNL     1       5.191   4.620  19.063  0.00  0.00    +0.000 C 
BRANCH  14  16
ATOM     16  O   UNL     1       5.250   2.292  19.847  0.00  0.00    +0.000 OA
ATOM     17  H   UNL     1       4.994   2.022  20.752  0.00  0.00    +0.000 HD
ENDBRANCH  14  16
BRANCH  15  18
ATOM     18  O   UNL     1       6.503   4.218  18.609  0.00  0.00    +0.000 OA
ATOM     19  H   UNL     1       6.434   4.062  17.647  0.00  0.00    +0.000 HD
ENDBRANCH  15  18
BRANCH  13  20
ATOM     20  C   UNL     1       2.908   1.718  18.161  0.00  0.00    +0.000 C 
BRANCH  20  21
ATOM     21  O   UNL     1       3.846   0.652  18.226  0.00  0.00    +0.000 OA
ATOM     22  H   UNL     1       3.658   0.166  19.047  0.00  0.00    +0.000 HD
ENDBRANCH  20  21
ENDBRANCH  13  20
ENDBRANCH   7  11
BRANCH   1  23
ATOM     23  N   UNL     1       0.745   8.261  21.316  0.00  0.00    +0.000 N 
ATOM     24  H   UNL     1       1.222   7.433  21.649  0.00  0.00    +0.000 HD
ATOM     25  H   UNL     1      -0.258   8.286  21.424  0.00  0.00    +0.000 HD
ENDBRANCH   1  23
TORSDOF 6
ENDMDL
MODEL 5
REMARK VINA RESULT:      -7.3      3.766      5.887
REMARK  Name = 
REMARK  6 active torsions:
REMARK  status: ('A' for Active; 'I' for Inactive)
REMARK    1  A    between atoms: N_1  and  C_2
REMARK    2  A    between atoms: C_8  and  C_9
REMARK    3  A    between atoms: C_11  and  C_12
REMARK    4  A    between atoms: C_12  and  O_13
REMARK    5  A    between atoms: C_14  and  O_15
REMARK    6  A    between atoms: C_16  and  O_17
REMARK                            x       y       z     vdW  Elec       q    Type
REMARK                         _______ _______ _______ _____ _____    ______ ____
ROOT
ATOM      1  C   UNL     1       1.241   9.510  18.840  0.00  0.00    +0.000 A 
ATOM      2  N   UNL     1       0.550   9.809  19.957  0.00  0.00    +0.000 NA
ATOM      3  C   UNL     1       0.633   8.962  21.005  0.00  0.00    +0.000 A 
ATOM      4  N   UNL     1       1.324   7.811  21.092  0.00  0.00    +0.000 NA
ATOM      5  C   UNL     1       1.986   7.557  19.957  0.00  0.00    +0.000 A 
ATOM      6  N   UNL     1       2.790   6.472  19.746  0.00  0.00    +0.000 N 
ATOM      7  C   UNL     1       3.342   6.526  18.484  0.00  0.00    +0.000 A 
ATOM      8  C   UNL     1       2.837   7.665  17.875  0.00  0.00    +0.000 A 
ATOM      9  C   UNL     1       1.995   8.330  18.808  0.00  0.00    +0.000 A 
ATOM     10  H   UNL     1       2.961   5.764  20.449  0.00  0.00    +0.000 HD
ENDROOT
BRANCH   7  11
ATOM     11  C   UNL     1       4.320   5.495  18.010  0.00  0.00    +0.000 C 
ATOM     12  C   UNL     1       5.485   5.275  18.937  0.00  0.00    +0.000 C 
ATOM     13  C   UNL     1       6.633   5.776  18.453  0.00  0.00    +0.000 C 
ATOM     14  C   UNL     1       6.418   6.432  17.126  0.00  0.00    +0.000 C 
ATOM     15  C   UNL     1       5.032   5.895  16.696  0.00  0.00    +0.000 C 
BRANCH  14  16
ATOM     16  O   UNL     1       7.438   6.045  16.217  0.00  0.00    +0.000 OA
ATOM     17  H   UNL     1       6.984   5.615  15.465  0.00  0.00    +0.000 HD
ENDBRANCH  14  16
BRANCH  15  18
ATOM     18  O   UNL     1       5.208   4.739  15.847  0.00  0.00    +0.000 OA
ATOM     19  H   UNL     1       5.193   3.955  16.430  0.00  0.00    +0.000 HD
ENDBRANCH  15  18
BRANCH  13  20
ATOM     20  C   UNL     1       7.974   5.805  19.101  0.00  0.00    +0.000 C 
BRANCH  20  21
ATOM     21  O   UNL     1       7.857   5.485  20.481  0.00  0.00    +0.000 OA
ATOM     22  H   UNL     1       7.422   4.617  20.529  0.00  0.00    +0.000 HD
ENDBRANCH  20  21
ENDBRANCH  13  20
ENDBRANCH   7  11
BRANCH   1  23
ATOM     23  N   UNL     1       1.159  10.397  17.775  0.00  0.00    +0.000 N 
ATOM     24  H   UNL     1       0.368  10.179  17.183  0.00  0.00    +0.000 HD
ATOM     25  H   UNL     1       2.033  10.601  17.314  0.00  0.00    +0.000 HD
ENDBRANCH   1  23
TORSDOF 6
ENDMDL
MODEL 6
REMARK VINA RESULT:      -7.1      1.891      2.240
REMARK  Name = 
REMARK  6 active torsions:
REMARK  status: ('A' for Active; 'I' for Inactive)
REMARK    1  A    between atoms: N_1  and  C_2
REMARK    2  A    between atoms: C_8  and  C_9
REMARK    3  A    between atoms: C_11  and  C_12
REMARK    4  A    between atoms: C_12  and  O_13
REMARK    5  A    between atoms: C_14  and  O_15
REMARK    6  A    between atoms: C_16  and  O_17
REMARK                            x       y       z     vdW  Elec       q    Type
REMARK                         _______ _______ _______ _____ _____    ______ ____
ROOT
ATOM      1  C   UNL     1       6.947   6.246  16.411  0.00  0.00    +0.000 A 
ATOM      2  N   UNL     1       7.619   5.761  15.349  0.00  0.00    +0.000 NA
ATOM      3  C   UNL     1       7.108   4.691  14.705  0.00  0.00    +0.000 A 
ATOM      4  N   UNL     1       5.986   4.005  14.990  0.00  0.00    +0.000 NA
ATOM      5  C   UNL     1       5.361   4.522  16.055  0.00  0.00    +0.000 A 
ATOM      6  N   UNL     1       4.186   4.055  16.577  0.00  0.00    +0.000 N 
ATOM      7  C   UNL     1       3.802   4.827  17.652  0.00  0.00    +0.000 A 
ATOM      8  C   UNL     1       4.788   5.787  17.828  0.00  0.00    +0.000 A 
ATOM      9  C   UNL     1       5.765   5.610  16.810  0.00  0.00    +0.000 A 
ATOM     10  H   UNL     1       3.680   3.271  16.186  0.00  0.00    +0.000 HD
ENDROOT
BRANCH   7  11
ATOM     11  C   UNL     1       2.513   4.582  18.374  0.00  0.00    +0.000 C 
ATOM     12  C   UNL     1       2.658   4.420  19.863  0.00  0.00    +0.000 C 
ATOM     13  C   UNL     1       2.477   3.152  20.266  0.00  0.00    +0.000 C 
ATOM     14  C   UNL     1       2.198   2.252  19.104  0.00  0.00    +0.000 C 
ATOM     15  C   UNL     1       1.840   3.246  17.974  0.00  0.00    +0.000 C 
BRANCH  14  16
ATOM     16  O   UNL     1       1.115   1.385  19.405  0.00  0.00    +0.000 OA
ATOM     17  H   UNL     1       1.480   0.478  19.394  0.00  0.00    +0.000 HD
ENDBRANCH  14  16
BRANCH  15  18
ATOM     18  O   UNL     1       0.405   3.404  17.912  0.00  0.00    +0.000 OA
ATOM     19  H   UNL     1       0.231   4.187  17.352  0.00  0.00    +0.000 HD
ENDBRANCH  15  18
BRANCH  13  20
ATOM     20  C   UNL     1       2.598   2.593  21.641  0.00  0.00    +0.000 C 
BRANCH  20  21
ATOM     21  O   UNL     1       1.314   2.495  22.244  0.00  0.00    +0.000 OA
ATOM     22  H   UNL     1       0.908   3.376  22.179  0.00  0.00    +0.000 HD
ENDBRANCH  20  21
ENDBRANCH  13  20
ENDBRANCH   7  11
BRANCH   1  23
ATOM     23  N   UNL     1       7.476   7.356  17.055  0.00  0.00    +0.000 N 
ATOM     24  H   UNL     1       6.877   7.653  17.814  0.00  0.00    +0.000 HD
ATOM     25  H   UNL     1       7.838   8.076  16.449  0.00  0.00    +0.000 HD
ENDBRANCH   1  23
TORSDOF 6
ENDMDL
MODEL 7
REMARK VINA RESULT:      -7.1      1.061      1.807
REMARK  Name = 
REMARK  6 active torsions:
REMARK  status: ('A' for Active; 'I' for Inactive)
REMARK    1  A    between atoms: N_1  and  C_2
REMARK    2  A    between atoms: C_8  and  C_9
REMARK    3  A    between atoms: C_11  and  C_12
REMARK    4  A    between atoms: C_12  and  O_13
REMARK    5  A    between atoms: C_14  and  O_15
REMARK    6  A    between atoms: C_16  and  O_17
REMARK                            x       y       z     vdW  Elec       q    Type
REMARK                         _______ _______ _______ _____ _____    ______ ____
ROOT
ATOM      1  C   UNL     1       7.148   5.768  17.058  0.00  0.00    +0.000 A 
ATOM      2  N   UNL     1       8.249   5.773  17.835  0.00  0.00    +0.000 NA
ATOM      3  C   UNL     1       8.092   5.611  19.165  0.00  0.00    +0.000 A 
ATOM      4  N   UNL     1       6.948   5.451  19.855  0.00  0.00    +0.000 NA
ATOM      5  C   UNL     1       5.886   5.461  19.040  0.00  0.00    +0.000 A 
ATOM      6  N   UNL     1       4.588   5.303  19.442  0.00  0.00    +0.000 N 
ATOM      7  C   UNL     1       3.745   5.335  18.352  0.00  0.00    +0.000 A 
ATOM      8  C   UNL     1       4.540   5.556  17.237  0.00  0.00    +0.000 A 
ATOM      9  C   UNL     1       5.895   5.617  17.664  0.00  0.00    +0.000 A 
ATOM     10  H   UNL     1       4.322   5.153  20.406  0.00  0.00    +0.000 HD
ENDROOT
BRANCH   7  11
ATOM     11  C   UNL     1       2.270   5.118  18.495  0.00  0.00    +0.000 C 
ATOM     12  C   UNL     1       1.828   4.769  19.891  0.00  0.00    +0.000 C 
ATOM     13  C   UNL     1       1.463   3.482  20.011  0.00  0.00    +0.000 C 
ATOM     14  C   UNL     1       1.618   2.754  18.713  0.00  0.00    +0.000 C 
ATOM     15  C   UNL     1       1.756   3.903  17.687  0.00  0.00    +0.000 C 
BRANCH  14  16
ATOM     16  O   UNL     1       0.473   1.955  18.459  0.00  0.00    +0.000 OA
ATOM     17  H   UNL     1      -0.161   2.151  19.177  0.00  0.00    +0.000 HD
ENDBRANCH  14  16
BRANCH  15  18
ATOM     18  O   UNL     1       0.461   4.191  17.114  0.00  0.00    +0.000 OA
ATOM     19  H   UNL     1      -0.207   3.816  17.721  0.00  0.00    +0.000 HD
ENDBRANCH  15  18
BRANCH  13  20
ATOM     20  C   UNL     1       1.028   2.756  21.236  0.00  0.00    +0.000 C 
BRANCH  20  21
ATOM     21  O   UNL     1       1.998   2.905  22.264  0.00  0.00    +0.000 OA
ATOM     22  H   UNL     1       2.302   3.828  22.228  0.00  0.00    +0.000 HD
ENDBRANCH  20  21
ENDBRANCH  13  20
ENDBRANCH   7  11
BRANCH   1  23
ATOM     23  N   UNL     1       7.325   5.922  15.690  0.00  0.00    +0.000 N 
ATOM     24  H   UNL     1       7.127   6.872  15.404  0.00  0.00    +0.000 HD
ATOM     25  H   UNL     1       6.943   5.183  15.118  0.00  0.00    +0.000 HD
ENDBRANCH   1  23
TORSDOF 6
ENDMDL
MODEL 8
REMARK VINA RESULT:      -7.1      3.921      6.299
REMARK  Name = 
REMARK  6 active torsions:
REMARK  status: ('A' for Active; 'I' for Inactive)
REMARK    1  A    between atoms: N_1  and  C_2
REMARK    2  A    between atoms: C_8  and  C_9
REMARK    3  A    between atoms: C_11  and  C_12
REMARK    4  A    between atoms: C_12  and  O_13
REMARK    5  A    between atoms: C_14  and  O_15
REMARK    6  A    between atoms: C_16  and  O_17
REMARK                            x       y       z     vdW  Elec       q    Type
REMARK                         _______ _______ _______ _____ _____    ______ ____
ROOT
ATOM      1  C   UNL     1       1.787   2.976  19.310  0.00  0.00    +0.000 A 
ATOM      2  N   UNL     1       0.795   3.613  19.962  0.00  0.00    +0.000 NA
ATOM      3  C   UNL     1       1.062   4.816  20.512  0.00  0.00    +0.000 A 
ATOM      4  N   UNL     1       2.226   5.491  20.514  0.00  0.00    +0.000 NA
ATOM      5  C   UNL     1       3.179   4.813  19.861  0.00  0.00    +0.000 A 
ATOM      6  N   UNL     1       4.462   5.248  19.677  0.00  0.00    +0.000 N 
ATOM      7  C   UNL     1       5.176   4.327  18.941  0.00  0.00    +0.000 A 
ATOM      8  C   UNL     1       4.319   3.266  18.688  0.00  0.00    +0.000 A 
ATOM      9  C   UNL     1       3.051   3.577  19.250  0.00  0.00    +0.000 A 
ATOM     10  H   UNL     1       4.799   6.139  20.018  0.00  0.00    +0.000 HD
ENDROOT
BRANCH   7  11
ATOM     11  C   UNL     1       6.595   4.579  18.532  0.00  0.00    +0.000 C 
ATOM     12  C   UNL     1       7.105   5.953  18.879  0.00  0.00    +0.000 C 
ATOM     13  C   UNL     1       7.242   6.741  17.800  0.00  0.00    +0.000 C 
ATOM     14  C   UNL     1       6.829   6.024  16.553  0.00  0.00    +0.000 C 
ATOM     15  C   UNL     1       6.798   4.543  16.999  0.00  0.00    +0.000 C 
BRANCH  14  16
ATOM     16  O   UNL     1       7.780   6.245  15.523  0.00  0.00    +0.000 OA
ATOM     17  H   UNL     1       8.160   7.131  15.688  0.00  0.00    +0.000 HD
ENDBRANCH  14  16
BRANCH  15  18
ATOM     18  O   UNL     1       8.060   3.919  16.673  0.00  0.00    +0.000 OA
ATOM     19  H   UNL     1       7.857   3.145  16.112  0.00  0.00    +0.000 HD
ENDBRANCH  15  18
BRANCH  13  20
ATOM     20  C   UNL     1       7.660   8.169  17.747  0.00  0.00    +0.000 C 
BRANCH  20  21
ATOM     21  O   UNL     1       8.651   8.426  18.734  0.00  0.00    +0.000 OA
ATOM     22  H   UNL     1       8.198   8.403  19.594  0.00  0.00    +0.000 HD
ENDBRANCH  20  21
ENDBRANCH  13  20
ENDBRANCH   7  11
BRANCH   1  23
ATOM     23  N   UNL     1       1.496   1.746  18.736  0.00  0.00    +0.000 N 
ATOM     24  H   UNL     1       1.198   1.081  19.438  0.00  0.00    +0.000 HD
ATOM     25  H   UNL     1       2.159   1.421  18.049  0.00  0.00    +0.000 HD
ENDBRANCH   1  23
TORSDOF 6
ENDMDL
MODEL 9
REMARK VINA RESULT:      -7.0      3.687      5.571
REMARK  Name = 
REMARK  6 active torsions:
REMARK  status: ('A' for Active; 'I' for Inactive)
REMARK    1  A    between atoms: N_1  and  C_2
REMARK    2  A    between atoms: C_8  and  C_9
REMARK    3  A    between atoms: C_11  and  C_12
REMARK    4  A    between atoms: C_12  and  O_13
REMARK    5  A    between atoms: C_14  and  O_15
REMARK    6  A    between atoms: C_16  and  O_17
REMARK                            x       y       z     vdW  Elec       q    Type
REMARK                         _______ _______ _______ _____ _____    ______ ____
ROOT
ATOM      1  C   UNL     1       1.420   9.415  18.804  0.00  0.00    +0.000 A 
ATOM      2  N   UNL     1       0.765  10.033  19.806  0.00  0.00    +0.000 NA
ATOM      3  C   UNL     1       0.701   9.416  21.004  0.00  0.00    +0.000 A 
ATOM      4  N   UNL     1       1.206   8.218  21.351  0.00  0.00    +0.000 NA
ATOM      5  C   UNL     1       1.839   7.643  20.321  0.00  0.00    +0.000 A 
ATOM      6  N   UNL     1       2.471   6.431  20.368  0.00  0.00    +0.000 N 
ATOM      7  C   UNL     1       3.044   6.145  19.147  0.00  0.00    +0.000 A 
ATOM      8  C   UNL     1       2.728   7.198  18.301  0.00  0.00    +0.000 A 
ATOM      9  C   UNL     1       1.984   8.156  19.042  0.00  0.00    +0.000 A 
ATOM     10  H   UNL     1       2.520   5.865  21.205  0.00  0.00    +0.000 HD
ENDROOT
BRANCH   7  11
ATOM     11  C   UNL     1       3.860   4.908  18.934  0.00  0.00    +0.000 C 
ATOM     12  C   UNL     1       5.331   5.083  19.201  0.00  0.00    +0.000 C 
ATOM     13  C   UNL     1       6.064   5.085  18.075  0.00  0.00    +0.000 C 
ATOM     14  C   UNL     1       5.196   4.928  16.867  0.00  0.00    +0.000 C 
ATOM     15  C   UNL     1       3.859   4.428  17.463  0.00  0.00    +0.000 C 
BRANCH  14  16
ATOM     16  O   UNL     1       5.763   3.980  15.976  0.00  0.00    +0.000 OA
ATOM     17  H   UNL     1       5.251   3.155  16.093  0.00  0.00    +0.000 HD
ENDBRANCH  14  16
BRANCH  15  18
ATOM     18  O   UNL     1       3.819   2.985  17.405  0.00  0.00    +0.000 OA
ATOM     19  H   UNL     1       3.245   2.687  18.138  0.00  0.00    +0.000 HD
ENDBRANCH  15  18
BRANCH  13  20
ATOM     20  C   UNL     1       7.532   5.290  17.929  0.00  0.00    +0.000 C 
BRANCH  20  21
ATOM     21  O   UNL     1       8.175   4.051  17.661  0.00  0.00    +0.000 OA
ATOM     22  H   UNL     1       7.517   3.486  17.221  0.00  0.00    +0.000 HD
ENDBRANCH  20  21
ENDBRANCH  13  20
ENDBRANCH   7  11
BRANCH   1  23
ATOM     23  N   UNL     1       1.491  10.068  17.581  0.00  0.00    +0.000 N 
ATOM     24  H   UNL     1       2.122  10.857  17.628  0.00  0.00    +0.000 HD
ATOM     25  H   UNL     1       0.607  10.217  17.118  0.00  0.00    +0.000 HD
ENDBRANCH   1  23
TORSDOF 6
ENDMDL
