MODEL 1
REMARK VINA RESULT:      -7.9      0.000      0.000
REMARK  Name = 
REMARK  8 active torsions:
REMARK  status: ('A' for Active; 'I' for Inactive)
REMARK    1  A    between atoms: C_1  and  C_2
REMARK    2  A    between atoms: C_2  and  C_3
REMARK    3  A    between atoms: C_2  and  N_4
REMARK    4  A    between atoms: C_5  and  C_7
REMARK    5  A    between atoms: C_10  and  C_11
REMARK    6  A    between atoms: C_11  and  C_12
REMARK    7  A    between atoms: N_15  and  C_16
REMARK    8  A    between atoms: C_20  and  C_22
REMARK                            x       y       z     vdW  Elec       q    Type
REMARK                         _______ _______ _______ _____ _____    ______ ____
ROOT
ATOM      1  C   UNL     1      -0.576  10.948  19.449  0.00  0.00    +0.000 C 
ATOM      2  C   UNL     1      -1.293  12.236  18.948  0.00  0.00    +0.000 C 
ATOM      3  C   UNL     1      -0.776  13.587  19.485  0.00  0.00    +0.000 C 
ATOM      4  N   UNL     1      -0.093  13.622  20.774  0.00  0.00    +0.000 NA
ATOM      5  C   UNL     1       0.315  12.361  21.369  0.00  0.00    +0.000 C 
ATOM      6  C   UNL     1      -0.482  11.122  20.964  0.00  0.00    +0.000 C 
ENDROOT
BRANCH   4   7
ATOM      7  C   UNL     1       0.692  14.833  21.149  0.00  0.00    +0.000 C 
ATOM      8  C   UNL     1       0.707  15.960  20.098  0.00  0.00    +0.000 C 
ATOM      9  C   UNL     1       1.530  15.545  18.889  0.00  0.00    +0.000 C 
ATOM     10  N   UNL     1       2.909  15.338  19.251  0.00  0.00    +0.000 N 
ATOM     11  C   UNL     1       3.795  15.493  18.184  0.00  0.00    +0.000 C 
ATOM     12  O   UNL     1       3.426  15.708  17.023  0.00  0.00    +0.000 OA
ATOM     13  C   UNL     1       3.120  14.374  20.349  0.00  0.00    +0.000 C 
ATOM     14  C   UNL     1       2.189  14.639  21.546  0.00  0.00    +0.000 C 
BRANCH  11  15
ATOM     15  C   UNL     1       5.249  15.457  18.422  0.00  0.00    +0.000 A 
ATOM     16  C   UNL     1       6.014  14.498  17.744  0.00  0.00    +0.000 A 
ATOM     17  C   UNL     1       7.388  14.425  17.939  0.00  0.00    +0.000 A 
ATOM     18  C   UNL     1       8.029  15.309  18.806  0.00  0.00    +0.000 A 
ATOM     19  C   UNL     1       7.261  16.312  19.407  0.00  0.00    +0.000 A 
ATOM     20  N   UNL     1       7.631  17.348  20.245  0.00  0.00    +0.000 N 
ATOM     21  C   UNL     1       6.552  18.131  20.562  0.00  0.00    +0.000 A 
ATOM     22  C   UNL     1       5.450  17.590  19.922  0.00  0.00    +0.000 A 
ATOM     23  C   UNL     1       5.885  16.428  19.214  0.00  0.00    +0.000 A 
ATOM     24  H   UNL     1       8.571  17.516  20.557  0.00  0.00    +0.000 HD
ENDBRANCH  11  15
ENDBRANCH   4   7
BRANCH   1  25
ATOM     25  C   UNL     1       0.765  10.603  18.707  0.00  0.00    +0.000 C 
BRANCH  25  29
ATOM     26  C   UNL     1       3.082   6.795  18.690  0.00  0.00    +0.000 A 
ATOM     27  C   UNL     1       2.317   7.129  19.817  0.00  0.00    +0.000 A 
ATOM     28  C   UNL     1       1.511   8.324  19.850  0.00  0.00    +0.000 A 
ATOM     29  C   UNL     1       1.485   9.234  18.778  0.00  0.00    +0.000 A 
ATOM     30  C   UNL     1       2.138   8.798  17.610  0.00  0.00    +0.000 A 
ATOM     31  C   UNL     1       2.902   7.612  17.563  0.00  0.00    +0.000 A 
BRANCH  26  33
ATOM     32  N   UNL     1       4.854   5.528  17.369  0.00  0.00    +0.000 N 
ATOM     33  C   UNL     1       4.150   5.728  18.571  0.00  0.00    +0.000 C 
ATOM     34  O   UNL     1       4.361   4.983  19.528  0.00  0.00    +0.000 OA
ATOM     35  H   UNL     1       4.871   6.259  16.675  0.00  0.00    +0.000 HD
BRANCH  32  37
ATOM     36  C   UNL     1       5.901   3.828  15.819  0.00  0.00    +0.000 C 
ATOM     37  C   UNL     1       5.826   4.413  17.236  0.00  0.00    +0.000 C 
ATOM     38  C   UNL     1       7.232   4.846  17.655  0.00  0.00    +0.000 C 
ENDBRANCH  32  37
ENDBRANCH  26  33
ENDBRANCH  25  29
ENDBRANCH   1  25
TORSDOF 6
ENDMDL
MODEL 2
REMARK VINA RESULT:      -7.8      1.424      2.171
REMARK  Name = 
REMARK  8 active torsions:
REMARK  status: ('A' for Active; 'I' for Inactive)
REMARK    1  A    between atoms: C_1  and  C_2
REMARK    2  A    between atoms: C_2  and  C_3
REMARK    3  A    between atoms: C_2  and  N_4
REMARK    4  A    between atoms: C_5  and  C_7
REMARK    5  A    between atoms: C_10  and  C_11
REMARK    6  A    between atoms: C_11  and  C_12
REMARK    7  A    between atoms: N_15  and  C_16
REMARK    8  A    between atoms: C_20  and  C_22
REMARK                            x       y       z     vdW  Elec       q    Type
REMARK                         _______ _______ _______ _____ _____    ______ ____
ROOT
ATOM      1  C   UNL     1      -0.439  11.216  18.836  0.00  0.00    +0.000 C 
ATOM      2  C   UNL     1      -0.746  12.575  18.140  0.00  0.00    +0.000 C 
ATOM      3  C   UNL     1      -0.455  13.861  18.940  0.00  0.00    +0.000 C 
ATOM      4  N   UNL     1      -0.461  13.804  20.399  0.00  0.00    +0.000 NA
ATOM      5  C   UNL     1      -0.467  12.498  21.035  0.00  0.00    +0.000 C 
ATOM      6  C   UNL     1      -1.060  11.344  20.226  0.00  0.00    +0.000 C 
ENDROOT
BRANCH   4   7
ATOM      7  C   UNL     1       0.134  14.931  21.173  0.00  0.00    +0.000 C 
ATOM      8  C   UNL     1       0.091  16.305  20.476  0.00  0.00    +0.000 C 
ATOM      9  C   UNL     1       1.054  16.331  19.299  0.00  0.00    +0.000 C 
ATOM     10  N   UNL     1       2.415  16.166  19.744  0.00  0.00    +0.000 N 
ATOM     11  C   UNL     1       3.357  16.702  18.864  0.00  0.00    +0.000 C 
ATOM     12  O   UNL     1       3.058  17.198  17.772  0.00  0.00    +0.000 OA
ATOM     13  C   UNL     1       2.656  14.957  20.555  0.00  0.00    +0.000 C 
ATOM     14  C   UNL     1       1.606  14.781  21.668  0.00  0.00    +0.000 C 
BRANCH  11  15
ATOM     15  C   UNL     1       4.780  16.743  19.244  0.00  0.00    +0.000 A 
ATOM     16  C   UNL     1       5.182  17.648  20.237  0.00  0.00    +0.000 A 
ATOM     17  C   UNL     1       6.514  17.722  20.625  0.00  0.00    +0.000 A 
ATOM     18  C   UNL     1       7.471  16.894  20.041  0.00  0.00    +0.000 A 
ATOM     19  C   UNL     1       7.036  15.941  19.114  0.00  0.00    +0.000 A 
ATOM     20  N   UNL     1       7.738  14.962  18.435  0.00  0.00    +0.000 N 
ATOM     21  C   UNL     1       6.899  14.211  17.654  0.00  0.00    +0.000 A 
ATOM     22  C   UNL     1       5.621  14.716  17.821  0.00  0.00    +0.000 A 
ATOM     23  C   UNL     1       5.705  15.824  18.719  0.00  0.00    +0.000 A 
ATOM     24  H   UNL     1       8.726  14.808  18.524  0.00  0.00    +0.000 HD
ENDBRANCH  11  15
ENDBRANCH   4   7
BRANCH   1  25
ATOM     25  C   UNL     1       1.067  10.772  18.788  0.00  0.00    +0.000 C 
BRANCH  25  29
ATOM     26  C   UNL     1       2.750   6.649  19.004  0.00  0.00    +0.000 A 
ATOM     27  C   UNL     1       2.060   7.169  20.109  0.00  0.00    +0.000 A 
ATOM     28  C   UNL     1       1.455   8.477  20.069  0.00  0.00    +0.000 A 
ATOM     29  C   UNL     1       1.561   9.312  18.942  0.00  0.00    +0.000 A 
ATOM     30  C   UNL     1       2.123   8.707  17.803  0.00  0.00    +0.000 A 
ATOM     31  C   UNL     1       2.689   7.414  17.829  0.00  0.00    +0.000 A 
BRANCH  26  33
ATOM     32  N   UNL     1       3.083   4.128  18.866  0.00  0.00    +0.000 N 
ATOM     33  C   UNL     1       3.632   5.421  18.950  0.00  0.00    +0.000 C 
ATOM     34  O   UNL     1       4.852   5.556  19.043  0.00  0.00    +0.000 OA
ATOM     35  H   UNL     1       2.131   4.012  18.552  0.00  0.00    +0.000 HD
BRANCH  32  37
ATOM     36  C   UNL     1       4.139   2.357  20.328  0.00  0.00    +0.000 C 
ATOM     37  C   UNL     1       3.956   2.928  18.915  0.00  0.00    +0.000 C 
ATOM     38  C   UNL     1       3.426   1.815  18.009  0.00  0.00    +0.000 C 
ENDBRANCH  32  37
ENDBRANCH  26  33
ENDBRANCH  25  29
ENDBRANCH   1  25
TORSDOF 6
ENDMDL
MODEL 3
REMARK VINA RESULT:      -7.8      1.331      1.798
REMARK  Name = 
REMARK  8 active torsions:
REMARK  status: ('A' for Active; 'I' for Inactive)
REMARK    1  A    between atoms: C_1  and  C_2
REMARK    2  A    between atoms: C_2  and  C_3
REMARK    3  A    between atoms: C_2  and  N_4
REMARK    4  A    between atoms: C_5  and  C_7
REMARK    5  A    between atoms: C_10  and  C_11
REMARK    6  A    between atoms: C_11  and  C_12
REMARK    7  A    between atoms: N_15  and  C_16
REMARK    8  A    between atoms: C_20  and  C_22
REMARK                            x       y       z     vdW  Elec       q    Type
REMARK                         _______ _______ _______ _____ _____    ______ ____
ROOT
ATOM      1  C   UNL     1      -0.590  11.083  19.322  0.00  0.00    +0.000 C 
ATOM      2  C   UNL     1      -1.323  12.360  18.816  0.00  0.00    +0.000 C 
ATOM      3  C   UNL     1      -0.826  13.720  19.352  0.00  0.00    +0.000 C 
ATOM      4  N   UNL     1      -0.148  13.766  20.643  0.00  0.00    +0.000 NA
ATOM      5  C   UNL     1       0.275  12.513  21.243  0.00  0.00    +0.000 C 
ATOM      6  C   UNL     1      -0.504  11.262  20.838  0.00  0.00    +0.000 C 
ENDROOT
BRANCH   4   7
ATOM      7  C   UNL     1       0.619  14.989  21.018  0.00  0.00    +0.000 C 
ATOM      8  C   UNL     1       0.673  16.090  19.940  0.00  0.00    +0.000 C 
ATOM      9  C   UNL     1       1.545  15.646  18.776  0.00  0.00    +0.000 C 
ATOM     10  N   UNL     1       2.909  15.453  19.198  0.00  0.00    +0.000 N 
ATOM     11  C   UNL     1       3.837  15.583  18.163  0.00  0.00    +0.000 C 
ATOM     12  O   UNL     1       3.514  15.768  16.984  0.00  0.00    +0.000 OA
ATOM     13  C   UNL     1       3.078  14.517  20.327  0.00  0.00    +0.000 C 
ATOM     14  C   UNL     1       2.099  14.810  21.479  0.00  0.00    +0.000 C 
BRANCH  11  15
ATOM     15  C   UNL     1       5.280  15.557  18.459  0.00  0.00    +0.000 A 
ATOM     16  C   UNL     1       6.087  14.640  17.772  0.00  0.00    +0.000 A 
ATOM     17  C   UNL     1       7.453  14.579  18.022  0.00  0.00    +0.000 A 
ATOM     18  C   UNL     1       8.044  15.433  18.952  0.00  0.00    +0.000 A 
ATOM     19  C   UNL     1       7.235  16.396  19.564  0.00  0.00    +0.000 A 
ATOM     20  N   UNL     1       7.555  17.400  20.461  0.00  0.00    +0.000 N 
ATOM     21  C   UNL     1       6.451  18.152  20.767  0.00  0.00    +0.000 A 
ATOM     22  C   UNL     1       5.384  17.624  20.059  0.00  0.00    +0.000 A 
ATOM     23  C   UNL     1       5.867  16.501  19.319  0.00  0.00    +0.000 A 
ATOM     24  H   UNL     1       8.477  17.567  20.819  0.00  0.00    +0.000 HD
ENDBRANCH  11  15
ENDBRANCH   4   7
BRANCH   1  25
ATOM     25  C   UNL     1       0.758  10.756  18.586  0.00  0.00    +0.000 C 
BRANCH  25  29
ATOM     26  C   UNL     1       2.600   6.715  18.983  0.00  0.00    +0.000 A 
ATOM     27  C   UNL     1       2.823   7.461  17.816  0.00  0.00    +0.000 A 
ATOM     28  C   UNL     1       2.291   8.792  17.662  0.00  0.00    +0.000 A 
ATOM     29  C   UNL     1       1.489   9.392  18.650  0.00  0.00    +0.000 A 
ATOM     30  C   UNL     1       1.411   8.685  19.864  0.00  0.00    +0.000 A 
ATOM     31  C   UNL     1       1.958   7.394  20.030  0.00  0.00    +0.000 A 
BRANCH  26  33
ATOM     32  N   UNL     1       2.085   4.249  18.612  0.00  0.00    +0.000 N 
ATOM     33  C   UNL     1       2.874   5.245  19.216  0.00  0.00    +0.000 C 
ATOM     34  O   UNL     1       3.768   4.919  19.997  0.00  0.00    +0.000 OA
ATOM     35  H   UNL     1       1.525   4.479  17.805  0.00  0.00    +0.000 HD
BRANCH  32  37
ATOM     36  C   UNL     1       1.002   2.002  19.023  0.00  0.00    +0.000 C 
ATOM     37  C   UNL     1       2.301   2.814  18.928  0.00  0.00    +0.000 C 
ATOM     38  C   UNL     1       3.213   2.147  17.897  0.00  0.00    +0.000 C 
ENDBRANCH  32  37
ENDBRANCH  26  33
ENDBRANCH  25  29
ENDBRANCH   1  25
TORSDOF 6
ENDMDL
MODEL 4
REMARK VINA RESULT:      -7.7      1.733      2.743
REMARK  Name = 
REMARK  8 active torsions:
REMARK  status: ('A' for Active; 'I' for Inactive)
REMARK    1  A    between atoms: C_1  and  C_2
REMARK    2  A    between atoms: C_2  and  C_3
REMARK    3  A    between atoms: C_2  and  N_4
REMARK    4  A    between atoms: C_5  and  C_7
REMARK    5  A    between atoms: C_10  and  C_11
REMARK    6  A    between atoms: C_11  and  C_12
REMARK    7  A    between atoms: N_15  and  C_16
REMARK    8  A    between atoms: C_20  and  C_22
REMARK                            x       y       z     vdW  Elec       q    Type
REMARK                         _______ _______ _______ _____ _____    ______ ____
ROOT
ATOM      1  C   UNL     1      -0.289  11.280  18.802  0.00  0.00    +0.000 C 
ATOM      2  C   UNL     1      -0.724  12.664  18.237  0.00  0.00    +0.000 C 
ATOM      3  C   UNL     1      -0.407  13.909  19.093  0.00  0.00    +0.000 C 
ATOM      4  N   UNL     1      -0.260  13.756  20.537  0.00  0.00    +0.000 NA
ATOM      5  C   UNL     1      -0.146  12.412  21.077  0.00  0.00    +0.000 C 
ATOM      6  C   UNL     1      -0.769  11.286  20.253  0.00  0.00    +0.000 C 
ENDROOT
BRANCH   4   7
ATOM      7  C   UNL     1       0.363  14.859  21.326  0.00  0.00    +0.000 C 
ATOM      8  C   UNL     1       0.274  16.258  20.686  0.00  0.00    +0.000 C 
ATOM      9  C   UNL     1       1.177  16.339  19.466  0.00  0.00    +0.000 C 
ATOM     10  N   UNL     1       2.560  16.172  19.836  0.00  0.00    +0.000 N 
ATOM     11  C   UNL     1       3.453  16.752  18.933  0.00  0.00    +0.000 C 
ATOM     12  O   UNL     1       3.096  17.287  17.877  0.00  0.00    +0.000 OA
ATOM     13  C   UNL     1       2.851  14.934  20.586  0.00  0.00    +0.000 C 
ATOM     14  C   UNL     1       1.859  14.704  21.741  0.00  0.00    +0.000 C 
BRANCH  11  15
ATOM     15  C   UNL     1       4.893  16.792  19.244  0.00  0.00    +0.000 A 
ATOM     16  C   UNL     1       5.346  17.722  20.190  0.00  0.00    +0.000 A 
ATOM     17  C   UNL     1       6.696  17.797  20.513  0.00  0.00    +0.000 A 
ATOM     18  C   UNL     1       7.619  16.945  19.908  0.00  0.00    +0.000 A 
ATOM     19  C   UNL     1       7.135  15.970  19.031  0.00  0.00    +0.000 A 
ATOM     20  N   UNL     1       7.797  14.965  18.348  0.00  0.00    +0.000 N 
ATOM     21  C   UNL     1       6.917  14.199  17.630  0.00  0.00    +0.000 A 
ATOM     22  C   UNL     1       5.652  14.718  17.842  0.00  0.00    +0.000 A 
ATOM     23  C   UNL     1       5.785  15.851  18.703  0.00  0.00    +0.000 A 
ATOM     24  H   UNL     1       8.787  14.807  18.395  0.00  0.00    +0.000 HD
ENDBRANCH  11  15
ENDBRANCH   4   7
BRANCH   1  25
ATOM     25  C   UNL     1       1.221  10.915  18.574  0.00  0.00    +0.000 C 
BRANCH  25  29
ATOM     26  C   UNL     1       2.597   6.691  18.948  0.00  0.00    +0.000 A 
ATOM     27  C   UNL     1       3.030   7.461  17.857  0.00  0.00    +0.000 A 
ATOM     28  C   UNL     1       2.653   8.846  17.720  0.00  0.00    +0.000 A 
ATOM     29  C   UNL     1       1.802   9.481  18.643  0.00  0.00    +0.000 A 
ATOM     30  C   UNL     1       1.511   8.732  19.798  0.00  0.00    +0.000 A 
ATOM     31  C   UNL     1       1.905   7.385  19.951  0.00  0.00    +0.000 A 
BRANCH  26  33
ATOM     32  N   UNL     1       1.808   4.495  19.967  0.00  0.00    +0.000 N 
ATOM     33  C   UNL     1       2.696   5.191  19.126  0.00  0.00    +0.000 C 
ATOM     34  O   UNL     1       3.610   4.582  18.571  0.00  0.00    +0.000 OA
ATOM     35  H   UNL     1       0.933   4.921  20.228  0.00  0.00    +0.000 HD
BRANCH  32  37
ATOM     36  C   UNL     1       1.515   2.591  21.603  0.00  0.00    +0.000 C 
ATOM     37  C   UNL     1       1.979   3.040  20.211  0.00  0.00    +0.000 C 
ATOM     38  C   UNL     1       1.238   2.207  19.164  0.00  0.00    +0.000 C 
ENDBRANCH  32  37
ENDBRANCH  26  33
ENDBRANCH  25  29
ENDBRANCH   1  25
TORSDOF 6
ENDMDL
MODEL 5
REMARK VINA RESULT:      -7.6      3.813      9.852
REMARK  Name = 
REMARK  8 active torsions:
REMARK  status: ('A' for Active; 'I' for Inactive)
REMARK    1  A    between atoms: C_1  and  C_2
REMARK    2  A    between atoms: C_2  and  C_3
REMARK    3  A    between atoms: C_2  and  N_4
REMARK    4  A    between atoms: C_5  and  C_7
REMARK    5  A    between atoms: C_10  and  C_11
REMARK    6  A    between atoms: C_11  and  C_12
REMARK    7  A    between atoms: N_15  and  C_16
REMARK    8  A    between atoms: C_20  and  C_22
REMARK                            x       y       z     vdW  Elec       q    Type
REMARK                         _______ _______ _______ _____ _____    ______ ____
ROOT
ATOM      1  C   UNL     1       1.268  14.701  20.666  0.00  0.00    +0.000 C 
ATOM      2  C   UNL     1       0.421  14.839  19.367  0.00  0.00    +0.000 C 
ATOM      3  C   UNL     1      -0.240  13.559  18.815  0.00  0.00    +0.000 C 
ATOM      4  N   UNL     1       0.354  12.263  19.131  0.00  0.00    +0.000 NA
ATOM      5  C   UNL     1       1.371  12.208  20.166  0.00  0.00    +0.000 C 
ATOM      6  C   UNL     1       2.165  13.489  20.416  0.00  0.00    +0.000 C 
ENDROOT
BRANCH   4   7
ATOM      7  C   UNL     1      -0.439  11.022  18.893  0.00  0.00    +0.000 C 
ATOM      8  C   UNL     1      -0.709  10.163  20.144  0.00  0.00    +0.000 C 
ATOM      9  C   UNL     1       0.576   9.501  20.617  0.00  0.00    +0.000 C 
ATOM     10  N   UNL     1       1.081   8.588  19.624  0.00  0.00    +0.000 N 
ATOM     11  C   UNL     1       1.890   7.580  20.153  0.00  0.00    +0.000 C 
ATOM     12  O   UNL     1       2.207   7.524  21.346  0.00  0.00    +0.000 OA
ATOM     13  C   UNL     1       1.293   9.184  18.290  0.00  0.00    +0.000 C 
ATOM     14  C   UNL     1       0.084  10.015  17.823  0.00  0.00    +0.000 C 
BRANCH  11  15
ATOM     15  C   UNL     1       2.364   6.486  19.287  0.00  0.00    +0.000 A 
ATOM     16  C   UNL     1       3.328   6.775  18.311  0.00  0.00    +0.000 A 
ATOM     17  C   UNL     1       3.802   5.775  17.471  0.00  0.00    +0.000 A 
ATOM     18  C   UNL     1       3.335   4.467  17.590  0.00  0.00    +0.000 A 
ATOM     19  C   UNL     1       2.437   4.183  18.624  0.00  0.00    +0.000 A 
ATOM     20  N   UNL     1       1.867   2.985  19.016  0.00  0.00    +0.000 N 
ATOM     21  C   UNL     1       1.075   3.159  20.122  0.00  0.00    +0.000 A 
ATOM     22  C   UNL     1       1.123   4.502  20.455  0.00  0.00    +0.000 A 
ATOM     23  C   UNL     1       1.959   5.157  19.499  0.00  0.00    +0.000 A 
ATOM     24  H   UNL     1       2.032   2.104  18.564  0.00  0.00    +0.000 HD
ENDBRANCH  11  15
ENDBRANCH   4   7
BRANCH   1  25
ATOM     25  C   UNL     1       0.440  14.687  22.000  0.00  0.00    +0.000 C 
BRANCH  25  29
ATOM     26  C   UNL     1      -3.709  13.066  22.164  0.00  0.00    +0.000 A 
ATOM     27  C   UNL     1      -2.651  12.301  22.677  0.00  0.00    +0.000 A 
ATOM     28  C   UNL     1      -1.300  12.803  22.693  0.00  0.00    +0.000 A 
ATOM     29  C   UNL     1      -0.968  14.061  22.158  0.00  0.00    +0.000 A 
ATOM     30  C   UNL     1      -2.065  14.863  21.793  0.00  0.00    +0.000 A 
ATOM     31  C   UNL     1      -3.394  14.385  21.806  0.00  0.00    +0.000 A 
BRANCH  26  33
ATOM     32  N   UNL     1      -5.634  12.661  20.546  0.00  0.00    +0.000 N 
ATOM     33  C   UNL     1      -5.121  12.616  21.856  0.00  0.00    +0.000 C 
ATOM     34  O   UNL     1      -5.851  12.260  22.781  0.00  0.00    +0.000 OA
ATOM     35  H   UNL     1      -4.998  12.714  19.765  0.00  0.00    +0.000 HD
BRANCH  32  37
ATOM     36  C   UNL     1      -7.553  12.795  18.906  0.00  0.00    +0.000 C 
ATOM     37  C   UNL     1      -7.051  12.311  20.274  0.00  0.00    +0.000 C 
ATOM     38  C   UNL     1      -7.281  10.802  20.366  0.00  0.00    +0.000 C 
ENDBRANCH  32  37
ENDBRANCH  26  33
ENDBRANCH  25  29
ENDBRANCH   1  25
TORSDOF 6
ENDMDL
MODEL 6
REMARK VINA RESULT:      -7.6      3.428      9.450
REMARK  Name = 
REMARK  8 active torsions:
REMARK  status: ('A' for Active; 'I' for Inactive)
REMARK    1  A    between atoms: C_1  and  C_2
REMARK    2  A    between atoms: C_2  and  C_3
REMARK    3  A    between atoms: C_2  and  N_4
REMARK    4  A    between atoms: C_5  and  C_7
REMARK    5  A    between atoms: C_10  and  C_11
REMARK    6  A    between atoms: C_11  and  C_12
REMARK    7  A    between atoms: N_15  and  C_16
REMARK    8  A    between atoms: C_20  and  C_22
REMARK                            x       y       z     vdW  Elec       q    Type
REMARK                         _______ _______ _______ _____ _____    ______ ____
ROOT
ATOM      1  C   UNL     1       7.821   6.526  17.739  0.00  0.00    +0.000 C 
ATOM      2  C   UNL     1       7.229   5.589  16.645  0.00  0.00    +0.000 C 
ATOM      3  C   UNL     1       5.818   5.015  16.894  0.00  0.00    +0.000 C 
ATOM      4  N   UNL     1       5.342   4.878  18.268  0.00  0.00    +0.000 NA
ATOM      5  C   UNL     1       6.094   5.534  19.324  0.00  0.00    +0.000 C 
ATOM      6  C   UNL     1       7.576   5.788  19.055  0.00  0.00    +0.000 C 
ENDROOT
BRANCH   4   7
ATOM      7  C   UNL     1       3.890   4.645  18.514  0.00  0.00    +0.000 C 
ATOM      8  C   UNL     1       2.941   5.197  17.433  0.00  0.00    +0.000 C 
ATOM      9  C   UNL     1       2.918   6.717  17.477  0.00  0.00    +0.000 C 
ATOM     10  N   UNL     1       2.388   7.188  18.731  0.00  0.00    +0.000 N 
ATOM     11  C   UNL     1       1.837   8.468  18.659  0.00  0.00    +0.000 C 
ATOM     12  O   UNL     1       1.872   9.163  17.637  0.00  0.00    +0.000 OA
ATOM     13  C   UNL     1       3.081   6.668  19.927  0.00  0.00    +0.000 C 
ATOM     14  C   UNL     1       3.289   5.144  19.865  0.00  0.00    +0.000 C 
BRANCH  11  15
ATOM     15  C   UNL     1       1.126   9.032  19.820  0.00  0.00    +0.000 A 
ATOM     16  C   UNL     1       1.478   8.584  21.101  0.00  0.00    +0.000 A 
ATOM     17  C   UNL     1       0.833   9.086  22.225  0.00  0.00    +0.000 A 
ATOM     18  C   UNL     1      -0.168  10.048  22.099  0.00  0.00    +0.000 A 
ATOM     19  C   UNL     1      -0.446  10.542  20.820  0.00  0.00    +0.000 A 
ATOM     20  N   UNL     1      -1.325  11.527  20.407  0.00  0.00    +0.000 N 
ATOM     21  C   UNL     1      -1.238  11.725  19.054  0.00  0.00    +0.000 A 
ATOM     22  C   UNL     1      -0.285  10.845  18.570  0.00  0.00    +0.000 A 
ATOM     23  C   UNL     1       0.199  10.078  19.674  0.00  0.00    +0.000 A 
ATOM     24  H   UNL     1      -1.927  12.042  21.023  0.00  0.00    +0.000 HD
ENDBRANCH  11  15
ENDBRANCH   4   7
BRANCH   1  25
ATOM     25  C   UNL     1       7.325   8.015  17.678  0.00  0.00    +0.000 C 
BRANCH  25  29
ATOM     26  C   UNL     1       9.409  11.739  18.968  0.00  0.00    +0.000 A 
ATOM     27  C   UNL     1       9.664  10.537  19.647  0.00  0.00    +0.000 A 
ATOM     28  C   UNL     1       9.054   9.298  19.234  0.00  0.00    +0.000 A 
ATOM     29  C   UNL     1       8.142   9.237  18.165  0.00  0.00    +0.000 A 
ATOM     30  C   UNL     1       8.025  10.421  17.413  0.00  0.00    +0.000 A 
ATOM     31  C   UNL     1       8.647  11.630  17.796  0.00  0.00    +0.000 A 
BRANCH  26  33
ATOM     32  N   UNL     1      10.412  14.036  18.520  0.00  0.00    +0.000 N 
ATOM     33  C   UNL     1       9.767  13.145  19.398  0.00  0.00    +0.000 C 
ATOM     34  O   UNL     1       9.542  13.493  20.557  0.00  0.00    +0.000 OA
ATOM     35  H   UNL     1      10.385  13.863  17.527  0.00  0.00    +0.000 HD
BRANCH  32  37
ATOM     36  C   UNL     1      12.208  15.812  18.425  0.00  0.00    +0.000 C 
ATOM     37  C   UNL     1      10.847  15.378  18.985  0.00  0.00    +0.000 C 
ATOM     38  C   UNL     1       9.816  16.452  18.635  0.00  0.00    +0.000 C 
ENDBRANCH  32  37
ENDBRANCH  26  33
ENDBRANCH  25  29
ENDBRANCH   1  25
TORSDOF 6
ENDMDL
MODEL 7
REMARK VINA RESULT:      -7.5      4.919      7.285
REMARK  Name = 
REMARK  8 active torsions:
REMARK  status: ('A' for Active; 'I' for Inactive)
REMARK    1  A    between atoms: C_1  and  C_2
REMARK    2  A    between atoms: C_2  and  C_3
REMARK    3  A    between atoms: C_2  and  N_4
REMARK    4  A    between atoms: C_5  and  C_7
REMARK    5  A    between atoms: C_10  and  C_11
REMARK    6  A    between atoms: C_11  and  C_12
REMARK    7  A    between atoms: N_15  and  C_16
REMARK    8  A    between atoms: C_20  and  C_22
REMARK                            x       y       z     vdW  Elec       q    Type
REMARK                         _______ _______ _______ _____ _____    ______ ____
ROOT
ATOM      1  C   UNL     1       1.107   9.320  22.034  0.00  0.00    +0.000 C 
ATOM      2  C   UNL     1       0.259   9.655  23.297  0.00  0.00    +0.000 C 
ATOM      3  C   UNL     1      -1.017  10.498  23.088  0.00  0.00    +0.000 C 
ATOM      4  N   UNL     1      -1.097  11.387  21.933  0.00  0.00    +0.000 NA
ATOM      5  C   UNL     1      -0.100  11.244  20.886  0.00  0.00    +0.000 C 
ATOM      6  C   UNL     1       1.247  10.651  21.297  0.00  0.00    +0.000 C 
ENDROOT
BRANCH   4   7
ATOM      7  C   UNL     1      -2.422  11.946  21.537  0.00  0.00    +0.000 C 
ATOM      8  C   UNL     1      -2.372  13.089  20.504  0.00  0.00    +0.000 C 
ATOM      9  C   UNL     1      -1.796  14.346  21.134  0.00  0.00    +0.000 C 
ATOM     10  N   UNL     1      -2.643  14.825  22.197  0.00  0.00    +0.000 N 
ATOM     11  C   UNL     1      -2.506  16.192  22.447  0.00  0.00    +0.000 C 
ATOM     12  O   UNL     1      -1.680  16.906  21.868  0.00  0.00    +0.000 OA
ATOM     13  C   UNL     1      -2.932  13.831  23.250  0.00  0.00    +0.000 C 
ATOM     14  C   UNL     1      -3.360  12.471  22.667  0.00  0.00    +0.000 C 
BRANCH  11  15
ATOM     15  C   UNL     1      -3.407  16.859  23.403  0.00  0.00    +0.000 A 
ATOM     16  C   UNL     1      -2.850  17.445  24.549  0.00  0.00    +0.000 A 
ATOM     17  C   UNL     1      -3.662  18.084  25.479  0.00  0.00    +0.000 A 
ATOM     18  C   UNL     1      -5.040  18.159  25.285  0.00  0.00    +0.000 A 
ATOM     19  C   UNL     1      -5.565  17.641  24.096  0.00  0.00    +0.000 A 
ATOM     20  N   UNL     1      -6.861  17.635  23.613  0.00  0.00    +0.000 N 
ATOM     21  C   UNL     1      -6.917  17.060  22.370  0.00  0.00    +0.000 A 
ATOM     22  C   UNL     1      -5.629  16.676  22.036  0.00  0.00    +0.000 A 
ATOM     23  C   UNL     1      -4.776  17.017  23.131  0.00  0.00    +0.000 A 
ATOM     24  H   UNL     1      -7.649  18.022  24.100  0.00  0.00    +0.000 HD
ENDBRANCH  11  15
ENDBRANCH   4   7
BRANCH   1  25
ATOM     25  C   UNL     1       0.581   8.109  21.184  0.00  0.00    +0.000 C 
BRANCH  25  29
ATOM     26  C   UNL     1       3.409   5.307  19.179  0.00  0.00    +0.000 A 
ATOM     27  C   UNL     1       2.575   4.828  20.200  0.00  0.00    +0.000 A 
ATOM     28  C   UNL     1       1.609   5.684  20.843  0.00  0.00    +0.000 A 
ATOM     29  C   UNL     1       1.483   7.045  20.512  0.00  0.00    +0.000 A 
ATOM     30  C   UNL     1       2.221   7.455  19.387  0.00  0.00    +0.000 A 
ATOM     31  C   UNL     1       3.146   6.611  18.734  0.00  0.00    +0.000 A 
BRANCH  26  33
ATOM     32  N   UNL     1       4.978   4.847  17.226  0.00  0.00    +0.000 N 
ATOM     33  C   UNL     1       4.618   4.630  18.569  0.00  0.00    +0.000 C 
ATOM     34  O   UNL     1       5.261   3.829  19.247  0.00  0.00    +0.000 OA
ATOM     35  H   UNL     1       4.625   5.658  16.741  0.00  0.00    +0.000 HD
BRANCH  32  37
ATOM     36  C   UNL     1       6.017   3.996  15.085  0.00  0.00    +0.000 C 
ATOM     37  C   UNL     1       6.106   4.100  16.613  0.00  0.00    +0.000 C 
ATOM     38  C   UNL     1       7.453   4.727  16.977  0.00  0.00    +0.000 C 
ENDBRANCH  32  37
ENDBRANCH  26  33
ENDBRANCH  25  29
ENDBRANCH   1  25
TORSDOF 6
ENDMDL
MODEL 8
REMARK VINA RESULT:      -7.5      3.414      7.501
REMARK  Name = 
REMARK  8 active torsions:
REMARK  status: ('A' for Active; 'I' for Inactive)
REMARK    1  A    between atoms: C_1  and  C_2
REMARK    2  A    between atoms: C_2  and  C_3
REMARK    3  A    between atoms: C_2  and  N_4
REMARK    4  A    between atoms: C_5  and  C_7
REMARK    5  A    between atoms: C_10  and  C_11
REMARK    6  A    between atoms: C_11  and  C_12
REMARK    7  A    between atoms: N_15  and  C_16
REMARK    8  A    between atoms: C_20  and  C_22
REMARK                            x       y       z     vdW  Elec       q    Type
REMARK                         _______ _______ _______ _____ _____    ______ ____
ROOT
ATOM      1  C   UNL     1       2.230  13.607  18.929  0.00  0.00    +0.000 C 
ATOM      2  C   UNL     1       2.687  13.661  20.416  0.00  0.00    +0.000 C 
ATOM      3  C   UNL     1       1.793  14.441  21.403  0.00  0.00    +0.000 C 
ATOM      4  N   UNL     1       0.940  15.510  20.892  0.00  0.00    +0.000 NA
ATOM      5  C   UNL     1       0.760  15.617  19.454  0.00  0.00    +0.000 C 
ATOM      6  C   UNL     1       1.878  15.052  18.579  0.00  0.00    +0.000 C 
ENDROOT
BRANCH   4   7
ATOM      7  C   UNL     1      -0.156  16.041  21.753  0.00  0.00    +0.000 C 
ATOM      8  C   UNL     1      -0.392  15.272  23.068  0.00  0.00    +0.000 C 
ATOM      9  C   UNL     1      -0.996  13.907  22.781  0.00  0.00    +0.000 C 
ATOM     10  N   UNL     1      -2.296  14.036  22.172  0.00  0.00    +0.000 N 
ATOM     11  C   UNL     1      -3.118  12.926  22.371  0.00  0.00    +0.000 C 
ATOM     12  O   UNL     1      -2.741  11.899  22.945  0.00  0.00    +0.000 OA
ATOM     13  C   UNL     1      -2.322  14.858  20.946  0.00  0.00    +0.000 C 
ATOM     14  C   UNL     1      -1.574  16.192  21.120  0.00  0.00    +0.000 C 
BRANCH  11  15
ATOM     15  C   UNL     1      -4.525  12.964  21.936  0.00  0.00    +0.000 A 
ATOM     16  C   UNL     1      -5.482  13.497  22.811  0.00  0.00    +0.000 A 
ATOM     17  C   UNL     1      -6.822  13.550  22.443  0.00  0.00    +0.000 A 
ATOM     18  C   UNL     1      -7.234  13.084  21.196  0.00  0.00    +0.000 A 
ATOM     19  C   UNL     1      -6.253  12.634  20.306  0.00  0.00    +0.000 A 
ATOM     20  N   UNL     1      -6.359  12.184  19.002  0.00  0.00    +0.000 N 
ATOM     21  C   UNL     1      -5.125  11.888  18.484  0.00  0.00    +0.000 A 
ATOM     22  C   UNL     1      -4.192  12.144  19.474  0.00  0.00    +0.000 A 
ATOM     23  C   UNL     1      -4.899  12.589  20.634  0.00  0.00    +0.000 A 
ATOM     24  H   UNL     1      -7.224  12.109  18.498  0.00  0.00    +0.000 HD
ENDBRANCH  11  15
ENDBRANCH   4   7
BRANCH   1  25
ATOM     25  C   UNL     1       1.132  12.530  18.611  0.00  0.00    +0.000 C 
BRANCH  25  29
ATOM     26  C   UNL     1       1.877   8.177  19.221  0.00  0.00    +0.000 A 
ATOM     27  C   UNL     1       1.083   8.875  20.143  0.00  0.00    +0.000 A 
ATOM     28  C   UNL     1       0.772  10.271  19.961  0.00  0.00    +0.000 A 
ATOM     29  C   UNL     1       1.282  11.012  18.880  0.00  0.00    +0.000 A 
ATOM     30  C   UNL     1       1.944  10.254  17.897  0.00  0.00    +0.000 A 
ATOM     31  C   UNL     1       2.223   8.879  18.056  0.00  0.00    +0.000 A 
BRANCH  26  33
ATOM     32  N   UNL     1       3.401   6.298  18.425  0.00  0.00    +0.000 N 
ATOM     33  C   UNL     1       2.489   6.801  19.372  0.00  0.00    +0.000 C 
ATOM     34  O   UNL     1       2.133   6.087  20.309  0.00  0.00    +0.000 OA
ATOM     35  H   UNL     1       3.877   6.936  17.805  0.00  0.00    +0.000 HD
BRANCH  32  37
ATOM     36  C   UNL     1       3.907   4.146  17.200  0.00  0.00    +0.000 C 
ATOM     37  C   UNL     1       3.917   4.909  18.531  0.00  0.00    +0.000 C 
ATOM     38  C   UNL     1       5.339   4.884  19.093  0.00  0.00    +0.000 C 
ENDBRANCH  32  37
ENDBRANCH  26  33
ENDBRANCH  25  29
ENDBRANCH   1  25
TORSDOF 6
ENDMDL
MODEL 9
REMARK VINA RESULT:      -7.5      2.142      3.365
REMARK  Name = 
REMARK  8 active torsions:
REMARK  status: ('A' for Active; 'I' for Inactive)
REMARK    1  A    between atoms: C_1  and  C_2
REMARK    2  A    between atoms: C_2  and  C_3
REMARK    3  A    between atoms: C_2  and  N_4
REMARK    4  A    between atoms: C_5  and  C_7
REMARK    5  A    between atoms: C_10  and  C_11
REMARK    6  A    between atoms: C_11  and  C_12
REMARK    7  A    between atoms: N_15  and  C_16
REMARK    8  A    between atoms: C_20  and  C_22
REMARK                            x       y       z     vdW  Elec       q    Type
REMARK                         _______ _______ _______ _____ _____    ______ ____
ROOT
ATOM      1  C   UNL     1       0.684  12.810  18.670  0.00  0.00    +0.000 C 
ATOM      2  C   UNL     1       2.126  13.089  18.153  0.00  0.00    +0.000 C 
ATOM      3  C   UNL     1       3.044  13.950  19.047  0.00  0.00    +0.000 C 
ATOM      4  N   UNL     1       2.438  14.895  19.980  0.00  0.00    +0.000 NA
ATOM      5  C   UNL     1       1.010  14.796  20.227  0.00  0.00    +0.000 C 
ATOM      6  C   UNL     1       0.163  14.175  19.118  0.00  0.00    +0.000 C 
ENDROOT
BRANCH   4   7
ATOM      7  C   UNL     1       3.275  15.483  21.066  0.00  0.00    +0.000 C 
ATOM      8  C   UNL     1       3.743  16.931  20.827  0.00  0.00    +0.000 C 
ATOM      9  C   UNL     1       4.782  16.974  19.717  0.00  0.00    +0.000 C 
ATOM     10  N   UNL     1       5.966  16.243  20.092  0.00  0.00    +0.000 N 
ATOM     11  C   UNL     1       7.117  16.664  19.423  0.00  0.00    +0.000 C 
ATOM     12  O   UNL     1       7.107  17.526  18.536  0.00  0.00    +0.000 OA
ATOM     13  C   UNL     1       5.725  14.842  20.491  0.00  0.00    +0.000 C 
ATOM     14  C   UNL     1       4.563  14.713  21.493  0.00  0.00    +0.000 C 
BRANCH  11  15
ATOM     15  C   UNL     1       8.431  16.115  19.800  0.00  0.00    +0.000 A 
ATOM     16  C   UNL     1       9.089  16.659  20.912  0.00  0.00    +0.000 A 
ATOM     17  C   UNL     1      10.331  16.173  21.303  0.00  0.00    +0.000 A 
ATOM     18  C   UNL     1      10.940  15.134  20.601  0.00  0.00    +0.000 A 
ATOM     19  C   UNL     1      10.230  14.550  19.546  0.00  0.00    +0.000 A 
ATOM     20  N   UNL     1      10.550  13.480  18.730  0.00  0.00    +0.000 N 
ATOM     21  C   UNL     1       9.533  13.213  17.851  0.00  0.00    +0.000 A 
ATOM     22  C   UNL     1       8.528  14.134  18.094  0.00  0.00    +0.000 A 
ATOM     23  C   UNL     1       8.972  14.996  19.144  0.00  0.00    +0.000 A 
ATOM     24  H   UNL     1      11.404  12.956  18.793  0.00  0.00    +0.000 HD
ENDBRANCH  11  15
ENDBRANCH   4   7
BRANCH   1  25
ATOM     25  C   UNL     1       0.569  11.646  19.718  0.00  0.00    +0.000 C 
BRANCH  25  29
ATOM     26  C   UNL     1       2.204   7.604  18.789  0.00  0.00    +0.000 A 
ATOM     27  C   UNL     1       1.774   7.889  20.093  0.00  0.00    +0.000 A 
ATOM     28  C   UNL     1       1.191   9.164  20.431  0.00  0.00    +0.000 A 
ATOM     29  C   UNL     1       1.065  10.197  19.485  0.00  0.00    +0.000 A 
ATOM     30  C   UNL     1       1.362   9.832  18.159  0.00  0.00    +0.000 A 
ATOM     31  C   UNL     1       1.903   8.573  17.820  0.00  0.00    +0.000 A 
BRANCH  26  33
ATOM     32  N   UNL     1       2.805   5.129  18.795  0.00  0.00    +0.000 N 
ATOM     33  C   UNL     1       3.039   6.432  18.317  0.00  0.00    +0.000 C 
ATOM     34  O   UNL     1       3.978   6.637  17.549  0.00  0.00    +0.000 OA
ATOM     35  H   UNL     1       1.918   4.907  19.220  0.00  0.00    +0.000 HD
BRANCH  32  37
ATOM     36  C   UNL     1       4.205   3.181  19.590  0.00  0.00    +0.000 C 
ATOM     37  C   UNL     1       3.694   4.007  18.402  0.00  0.00    +0.000 C 
ATOM     38  C   UNL     1       3.000   3.062  17.419  0.00  0.00    +0.000 C 
ENDBRANCH  32  37
ENDBRANCH  26  33
ENDBRANCH  25  29
ENDBRANCH   1  25
TORSDOF 6
ENDMDL
