MODEL 1
REMARK VINA RESULT:      -7.6      0.000      0.000
REMARK  Name = 
REMARK  8 active torsions:
REMARK  status: ('A' for Active; 'I' for Inactive)
REMARK    1  A    between atoms: C_1  and  C_2
REMARK    2  A    between atoms: C_4  and  C_5
REMARK    3  A    between atoms: C_5  and  C_7
REMARK    4  A    between atoms: C_7  and  S_8
REMARK    5  A    between atoms: S_8  and  C_9
REMARK    6  A    between atoms: C_19  and  C_20
REMARK    7  A    between atoms: N_21  and  C_22
REMARK    8  A    between atoms: C_22  and  C_23
REMARK                            x       y       z     vdW  Elec       q    Type
REMARK                         _______ _______ _______ _____ _____    ______ ____
ROOT
ATOM      1  C   UNL     1       1.471   2.684  18.323  0.00  0.00    +0.000 C 
ATOM      2  O   UNL     1       0.337   2.217  18.354  0.00  0.00    +0.000 OA
ENDROOT
BRANCH   1   6
ATOM      3  C   UNL     1       2.854   7.557  17.800  0.00  0.00    +0.000 C 
ATOM      4  C   UNL     1       2.319   6.297  18.379  0.00  0.00    +0.000 A 
ATOM      5  C   UNL     1       2.029   5.138  17.702  0.00  0.00    +0.000 A 
ATOM      6  C   UNL     1       1.713   4.114  18.649  0.00  0.00    +0.000 A 
ATOM      7  C   UNL     1       1.742   4.728  19.897  0.00  0.00    +0.000 A 
ATOM      8  C   UNL     1       1.535   4.127  21.252  0.00  0.00    +0.000 C 
ATOM      9  N   UNL     1       2.066   6.079  19.724  0.00  0.00    +0.000 N 
BRANCH   9  10
ATOM     10  C   UNL     1       2.325   7.029  20.806  0.00  0.00    +0.000 C 
BRANCH  10  11
ATOM     11  C   UNL     1       1.324   8.178  21.038  0.00  0.00    +0.000 C 
ATOM     12  C   UNL     1       1.609   9.117  22.193  0.00  0.00    +0.000 C 
ATOM     13  C   UNL     1       0.238   9.596  22.616  0.00  0.00    +0.000 C 
ATOM     14  C   UNL     1      -0.716   8.532  22.119  0.00  0.00    +0.000 C 
ATOM     15  O   UNL     1      -0.019   7.702  21.189  0.00  0.00    +0.000 OA
ENDBRANCH  10  11
ENDBRANCH   9  10
ENDBRANCH   1   6
BRANCH   1  16
ATOM     16  C   UNL     1       2.708   1.869  17.965  0.00  0.00    +0.000 C 
BRANCH  16  17
ATOM     17  S   UNL     1       3.964   1.909  19.276  0.00  0.00    +0.000 S 
BRANCH  17  18
ATOM     18  C   UNL     1       4.964   3.199  18.727  0.00  0.00    +0.000 A 
ATOM     19  N   UNL     1       5.678   4.036  19.435  0.00  0.00    +0.000 NA
ATOM     20  C   UNL     1       6.223   4.900  18.509  0.00  0.00    +0.000 A 
ATOM     21  C   UNL     1       6.981   6.062  18.702  0.00  0.00    +0.000 A 
ATOM     22  C   UNL     1       7.360   6.793  17.570  0.00  0.00    +0.000 A 
ATOM     23 CL   UNL     1       8.090   8.342  17.773  0.00  0.00    +0.000 Cl
ATOM     24  C   UNL     1       7.095   6.331  16.278  0.00  0.00    +0.000 A 
ATOM     25  C   UNL     1       6.343   5.171  16.069  0.00  0.00    +0.000 A 
ATOM     26  C   UNL     1       5.887   4.517  17.213  0.00  0.00    +0.000 A 
ATOM     27  N   UNL     1       5.032   3.459  17.392  0.00  0.00    +0.000 N 
ATOM     28  H   UNL     1       4.497   2.984  16.678  0.00  0.00    +0.000 HD
ENDBRANCH  17  18
ENDBRANCH  16  17
ENDBRANCH   1  16
TORSDOF 6
ENDMDL
MODEL 2
REMARK VINA RESULT:      -7.3      5.059      8.815
REMARK  Name = 
REMARK  8 active torsions:
REMARK  status: ('A' for Active; 'I' for Inactive)
REMARK    1  A    between atoms: C_1  and  C_2
REMARK    2  A    between atoms: C_4  and  C_5
REMARK    3  A    between atoms: C_5  and  C_7
REMARK    4  A    between atoms: C_7  and  S_8
REMARK    5  A    between atoms: S_8  and  C_9
REMARK    6  A    between atoms: C_19  and  C_20
REMARK    7  A    between atoms: N_21  and  C_22
REMARK    8  A    between atoms: C_22  and  C_23
REMARK                            x       y       z     vdW  Elec       q    Type
REMARK                         _______ _______ _______ _____ _____    ______ ____
ROOT
ATOM      1  C   UNL     1       2.262   7.380  19.024  0.00  0.00    +0.000 C 
ATOM      2  O   UNL     1       2.154   7.337  20.246  0.00  0.00    +0.000 OA
ENDROOT
BRANCH   1   6
ATOM      3  C   UNL     1       2.813   2.618  17.308  0.00  0.00    +0.000 C 
ATOM      4  C   UNL     1       3.004   4.079  17.498  0.00  0.00    +0.000 A 
ATOM      5  C   UNL     1       2.158   4.941  18.150  0.00  0.00    +0.000 A 
ATOM      6  C   UNL     1       2.795   6.217  18.268  0.00  0.00    +0.000 A 
ATOM      7  C   UNL     1       4.005   6.102  17.591  0.00  0.00    +0.000 A 
ATOM      8  C   UNL     1       5.099   7.110  17.429  0.00  0.00    +0.000 C 
ATOM      9  N   UNL     1       4.109   4.803  17.077  0.00  0.00    +0.000 N 
BRANCH   9  10
ATOM     10  C   UNL     1       5.291   4.250  16.417  0.00  0.00    +0.000 C 
BRANCH  10  11
ATOM     11  C   UNL     1       5.575   4.642  14.954  0.00  0.00    +0.000 C 
ATOM     12  C   UNL     1       5.598   3.523  13.933  0.00  0.00    +0.000 C 
ATOM     13  C   UNL     1       6.554   4.022  12.870  0.00  0.00    +0.000 C 
ATOM     14  C   UNL     1       7.417   5.045  13.576  0.00  0.00    +0.000 C 
ATOM     15  O   UNL     1       6.799   5.375  14.820  0.00  0.00    +0.000 OA
ENDBRANCH  10  11
ENDBRANCH   9  10
ENDBRANCH   1   6
BRANCH   1  16
ATOM     16  C   UNL     1       1.867   8.590  18.186  0.00  0.00    +0.000 C 
BRANCH  16  17
ATOM     17  S   UNL     1       1.450  10.032  19.208  0.00  0.00    +0.000 S 
BRANCH  17  18
ATOM     18  C   UNL     1      -0.115  10.416  18.601  0.00  0.00    +0.000 A 
ATOM     19  N   UNL     1      -1.057  11.127  19.167  0.00  0.00    +0.000 NA
ATOM     20  C   UNL     1      -2.117  11.062  18.289  0.00  0.00    +0.000 A 
ATOM     21  C   UNL     1      -3.427  11.542  18.425  0.00  0.00    +0.000 A 
ATOM     22  C   UNL     1      -4.332  11.281  17.388  0.00  0.00    +0.000 A 
ATOM     23 CL   UNL     1      -6.001  11.648  17.615  0.00  0.00    +0.000 Cl
ATOM     24  C   UNL     1      -3.927  10.664  16.202  0.00  0.00    +0.000 A 
ATOM     25  C   UNL     1      -2.623  10.184  16.049  0.00  0.00    +0.000 A 
ATOM     26  C   UNL     1      -1.769  10.362  17.137  0.00  0.00    +0.000 A 
ATOM     27  N   UNL     1      -0.499   9.912  17.396  0.00  0.00    +0.000 N 
ATOM     28  H   UNL     1       0.046   9.274  16.832  0.00  0.00    +0.000 HD
ENDBRANCH  17  18
ENDBRANCH  16  17
ENDBRANCH   1  16
TORSDOF 6
ENDMDL
MODEL 3
REMARK VINA RESULT:      -7.1      5.066      8.729
REMARK  Name = 
REMARK  8 active torsions:
REMARK  status: ('A' for Active; 'I' for Inactive)
REMARK    1  A    between atoms: C_1  and  C_2
REMARK    2  A    between atoms: C_4  and  C_5
REMARK    3  A    between atoms: C_5  and  C_7
REMARK    4  A    between atoms: C_7  and  S_8
REMARK    5  A    between atoms: S_8  and  C_9
REMARK    6  A    between atoms: C_19  and  C_20
REMARK    7  A    between atoms: N_21  and  C_22
REMARK    8  A    between atoms: C_22  and  C_23
REMARK                            x       y       z     vdW  Elec       q    Type
REMARK                         _______ _______ _______ _____ _____    ______ ____
ROOT
ATOM      1  C   UNL     1       2.122   8.318  18.181  0.00  0.00    +0.000 C 
ATOM      2  O   UNL     1       2.241   8.986  17.158  0.00  0.00    +0.000 OA
ENDROOT
BRANCH   1   6
ATOM      3  C   UNL     1       2.947   3.505  19.624  0.00  0.00    +0.000 C 
ATOM      4  C   UNL     1       3.086   4.814  18.935  0.00  0.00    +0.000 A 
ATOM      5  C   UNL     1       2.160   5.827  18.898  0.00  0.00    +0.000 A 
ATOM      6  C   UNL     1       2.754   6.977  18.288  0.00  0.00    +0.000 A 
ATOM      7  C   UNL     1       4.028   6.582  17.892  0.00  0.00    +0.000 A 
ATOM      8  C   UNL     1       5.109   7.388  17.245  0.00  0.00    +0.000 C 
ATOM      9  N   UNL     1       4.211   5.239  18.246  0.00  0.00    +0.000 N 
BRANCH   9  10
ATOM     10  C   UNL     1       5.465   4.498  18.118  0.00  0.00    +0.000 C 
BRANCH  10  11
ATOM     11  C   UNL     1       5.904   4.019  16.721  0.00  0.00    +0.000 C 
ATOM     12  C   UNL     1       7.155   4.646  16.139  0.00  0.00    +0.000 C 
ATOM     13  C   UNL     1       6.930   4.582  14.644  0.00  0.00    +0.000 C 
ATOM     14  C   UNL     1       5.429   4.482  14.482  0.00  0.00    +0.000 C 
ATOM     15  O   UNL     1       4.860   4.156  15.750  0.00  0.00    +0.000 OA
ENDBRANCH  10  11
ENDBRANCH   9  10
ENDBRANCH   1   6
BRANCH   1  16
ATOM     16  C   UNL     1       1.346   8.784  19.407  0.00  0.00    +0.000 C 
BRANCH  16  17
ATOM     17  S   UNL     1       1.228  10.594  19.502  0.00  0.00    +0.000 S 
BRANCH  17  18
ATOM     18  C   UNL     1      -0.341  10.851  18.841  0.00  0.00    +0.000 A 
ATOM     19  N   UNL     1      -1.371  11.442  19.390  0.00  0.00    +0.000 NA
ATOM     20  C   UNL     1      -2.383  11.312  18.463  0.00  0.00    +0.000 A 
ATOM     21  C   UNL     1      -3.738  11.656  18.558  0.00  0.00    +0.000 A 
ATOM     22  C   UNL     1      -4.569  11.354  17.472  0.00  0.00    +0.000 A 
ATOM     23 CL   UNL     1      -6.274  11.547  17.637  0.00  0.00    +0.000 Cl
ATOM     24  C   UNL     1      -4.056  10.831  16.282  0.00  0.00    +0.000 A 
ATOM     25  C   UNL     1      -2.706  10.487  16.170  0.00  0.00    +0.000 A 
ATOM     26  C   UNL     1      -1.919  10.699  17.302  0.00  0.00    +0.000 A 
ATOM     27  N   UNL     1      -0.623  10.364  17.600  0.00  0.00    +0.000 N 
ATOM     28  H   UNL     1       0.005   9.807  17.037  0.00  0.00    +0.000 HD
ENDBRANCH  17  18
ENDBRANCH  16  17
ENDBRANCH   1  16
TORSDOF 6
ENDMDL
MODEL 4
REMARK VINA RESULT:      -6.9      5.239      8.643
REMARK  Name = 
REMARK  8 active torsions:
REMARK  status: ('A' for Active; 'I' for Inactive)
REMARK    1  A    between atoms: C_1  and  C_2
REMARK    2  A    between atoms: C_4  and  C_5
REMARK    3  A    between atoms: C_5  and  C_7
REMARK    4  A    between atoms: C_7  and  S_8
REMARK    5  A    between atoms: S_8  and  C_9
REMARK    6  A    between atoms: C_19  and  C_20
REMARK    7  A    between atoms: N_21  and  C_22
REMARK    8  A    between atoms: C_22  and  C_23
REMARK                            x       y       z     vdW  Elec       q    Type
REMARK                         _______ _______ _______ _____ _____    ______ ____
ROOT
ATOM      1  C   UNL     1       1.210   9.054  18.374  0.00  0.00    +0.000 C 
ATOM      2  O   UNL     1       0.431   9.127  17.428  0.00  0.00    +0.000 OA
ENDROOT
BRANCH   1   6
ATOM      3  C   UNL     1       4.990   5.990  16.873  0.00  0.00    +0.000 C 
ATOM      4  C   UNL     1       3.969   6.658  17.721  0.00  0.00    +0.000 A 
ATOM      5  C   UNL     1       3.269   7.800  17.419  0.00  0.00    +0.000 A 
ATOM      6  C   UNL     1       2.260   8.002  18.413  0.00  0.00    +0.000 A 
ATOM      7  C   UNL     1       2.444   6.993  19.353  0.00  0.00    +0.000 A 
ATOM      8  C   UNL     1       1.648   6.688  20.582  0.00  0.00    +0.000 C 
ATOM      9  N   UNL     1       3.526   6.198  18.951  0.00  0.00    +0.000 N 
BRANCH   9  10
ATOM     10  C   UNL     1       3.949   4.960  19.603  0.00  0.00    +0.000 C 
BRANCH  10  11
ATOM     11  C   UNL     1       3.113   3.684  19.385  0.00  0.00    +0.000 C 
ATOM     12  C   UNL     1       2.017   3.748  18.340  0.00  0.00    +0.000 C 
ATOM     13  C   UNL     1       0.988   2.754  18.834  0.00  0.00    +0.000 C 
ATOM     14  C   UNL     1       1.248   2.632  20.319  0.00  0.00    +0.000 C 
ATOM     15  O   UNL     1       2.522   3.212  20.603  0.00  0.00    +0.000 OA
ENDBRANCH  10  11
ENDBRANCH   9  10
ENDBRANCH   1   6
BRANCH   1  16
ATOM     16  C   UNL     1       1.185  10.008  19.562  0.00  0.00    +0.000 C 
BRANCH  16  17
ATOM     17  S   UNL     1       1.007  11.742  19.051  0.00  0.00    +0.000 S 
BRANCH  17  18
ATOM     18  C   UNL     1      -0.704  11.862  18.906  0.00  0.00    +0.000 A 
ATOM     19  N   UNL     1      -1.570  12.292  19.789  0.00  0.00    +0.000 NA
ATOM     20  C   UNL     1      -2.798  12.112  19.190  0.00  0.00    +0.000 A 
ATOM     21  C   UNL     1      -4.087  12.291  19.710  0.00  0.00    +0.000 A 
ATOM     22  C   UNL     1      -5.175  11.971  18.890  0.00  0.00    +0.000 A 
ATOM     23 CL   UNL     1      -6.762  11.956  19.565  0.00  0.00    +0.000 Cl
ATOM     24  C   UNL     1      -5.000  11.592  17.557  0.00  0.00    +0.000 A 
ATOM     25  C   UNL     1      -3.722  11.413  17.021  0.00  0.00    +0.000 A 
ATOM     26  C   UNL     1      -2.653  11.636  17.889  0.00  0.00    +0.000 A 
ATOM     27  N   UNL     1      -1.302  11.432  17.761  0.00  0.00    +0.000 N 
ATOM     28  H   UNL     1      -0.826  10.990  16.987  0.00  0.00    +0.000 HD
ENDBRANCH  17  18
ENDBRANCH  16  17
ENDBRANCH   1  16
TORSDOF 6
ENDMDL
MODEL 5
REMARK VINA RESULT:      -6.9      2.857      6.611
REMARK  Name = 
REMARK  8 active torsions:
REMARK  status: ('A' for Active; 'I' for Inactive)
REMARK    1  A    between atoms: C_1  and  C_2
REMARK    2  A    between atoms: C_4  and  C_5
REMARK    3  A    between atoms: C_5  and  C_7
REMARK    4  A    between atoms: C_7  and  S_8
REMARK    5  A    between atoms: S_8  and  C_9
REMARK    6  A    between atoms: C_19  and  C_20
REMARK    7  A    between atoms: N_21  and  C_22
REMARK    8  A    between atoms: C_22  and  C_23
REMARK                            x       y       z     vdW  Elec       q    Type
REMARK                         _______ _______ _______ _____ _____    ______ ____
ROOT
ATOM      1  C   UNL     1       4.214   2.801  20.086  0.00  0.00    +0.000 C 
ATOM      2  O   UNL     1       4.853   2.147  20.905  0.00  0.00    +0.000 OA
ENDROOT
BRANCH   1   6
ATOM      3  C   UNL     1       7.248   6.245  17.879  0.00  0.00    +0.000 C 
ATOM      4  C   UNL     1       6.296   5.120  18.069  0.00  0.00    +0.000 A 
ATOM      5  C   UNL     1       6.006   4.477  19.247  0.00  0.00    +0.000 A 
ATOM      6  C   UNL     1       4.911   3.583  19.030  0.00  0.00    +0.000 A 
ATOM      7  C   UNL     1       4.621   3.657  17.672  0.00  0.00    +0.000 A 
ATOM      8  C   UNL     1       3.541   2.973  16.896  0.00  0.00    +0.000 C 
ATOM      9  N   UNL     1       5.505   4.565  17.074  0.00  0.00    +0.000 N 
BRANCH   9  10
ATOM     10  C   UNL     1       5.438   5.017  15.686  0.00  0.00    +0.000 C 
BRANCH  10  11
ATOM     11  C   UNL     1       6.208   4.227  14.610  0.00  0.00    +0.000 C 
ATOM     12  C   UNL     1       7.266   4.980  13.828  0.00  0.00    +0.000 C 
ATOM     13  C   UNL     1       7.298   4.274  12.490  0.00  0.00    +0.000 C 
ATOM     14  C   UNL     1       5.948   3.600  12.375  0.00  0.00    +0.000 C 
ATOM     15  O   UNL     1       5.330   3.607  13.663  0.00  0.00    +0.000 OA
ENDBRANCH  10  11
ENDBRANCH   9  10
ENDBRANCH   1   6
BRANCH   1  16
ATOM     16  C   UNL     1       2.692   2.872  20.066  0.00  0.00    +0.000 C 
BRANCH  16  17
ATOM     17  S   UNL     1       2.030   3.885  21.419  0.00  0.00    +0.000 S 
BRANCH  17  18
ATOM     18  C   UNL     1       1.999   5.438  20.675  0.00  0.00    +0.000 A 
ATOM     19  N   UNL     1       1.561   6.570  21.165  0.00  0.00    +0.000 NA
ATOM     20  C   UNL     1       1.705   7.475  20.135  0.00  0.00    +0.000 A 
ATOM     21  C   UNL     1       1.296   8.812  20.051  0.00  0.00    +0.000 A 
ATOM     22  C   UNL     1       1.519   9.491  18.847  0.00  0.00    +0.000 A 
ATOM     23 CL   UNL     1       0.828  11.055  18.623  0.00  0.00    +0.000 Cl
ATOM     24  C   UNL     1       2.226   8.903  17.795  0.00  0.00    +0.000 A 
ATOM     25  C   UNL     1       2.644   7.572  17.865  0.00  0.00    +0.000 A 
ATOM     26  C   UNL     1       2.318   6.883  19.034  0.00  0.00    +0.000 A 
ATOM     27  N   UNL     1       2.439   5.564  19.392  0.00  0.00    +0.000 N 
ATOM     28  H   UNL     1       2.743   4.801  18.803  0.00  0.00    +0.000 HD
ENDBRANCH  17  18
ENDBRANCH  16  17
ENDBRANCH   1  16
TORSDOF 6
ENDMDL
MODEL 6
REMARK VINA RESULT:      -6.9      4.225      8.692
REMARK  Name = 
REMARK  8 active torsions:
REMARK  status: ('A' for Active; 'I' for Inactive)
REMARK    1  A    between atoms: C_1  and  C_2
REMARK    2  A    between atoms: C_4  and  C_5
REMARK    3  A    between atoms: C_5  and  C_7
REMARK    4  A    between atoms: C_7  and  S_8
REMARK    5  A    between atoms: S_8  and  C_9
REMARK    6  A    between atoms: C_19  and  C_20
REMARK    7  A    between atoms: N_21  and  C_22
REMARK    8  A    between atoms: C_22  and  C_23
REMARK                            x       y       z     vdW  Elec       q    Type
REMARK                         _______ _______ _______ _____ _____    ______ ____
ROOT
ATOM      1  C   UNL     1       2.237   7.360  18.787  0.00  0.00    +0.000 C 
ATOM      2  O   UNL     1       2.318   7.498  20.003  0.00  0.00    +0.000 OA
ENDROOT
BRANCH   1   6
ATOM      3  C   UNL     1       3.142   2.526  17.464  0.00  0.00    +0.000 C 
ATOM      4  C   UNL     1       3.214   4.010  17.523  0.00  0.00    +0.000 A 
ATOM      5  C   UNL     1       2.316   4.854  18.128  0.00  0.00    +0.000 A 
ATOM      6  C   UNL     1       2.846   6.182  18.114  0.00  0.00    +0.000 A 
ATOM      7  C   UNL     1       4.043   6.108  17.409  0.00  0.00    +0.000 A 
ATOM      8  C   UNL     1       5.043   7.183  17.125  0.00  0.00    +0.000 C 
ATOM      9  N   UNL     1       4.242   4.781  17.004  0.00  0.00    +0.000 N 
BRANCH   9  10
ATOM     10  C   UNL     1       5.449   4.271  16.354  0.00  0.00    +0.000 C 
BRANCH  10  11
ATOM     11  C   UNL     1       5.742   4.691  14.900  0.00  0.00    +0.000 C 
ATOM     12  C   UNL     1       5.607   3.623  13.834  0.00  0.00    +0.000 C 
ATOM     13  C   UNL     1       6.589   4.053  12.765  0.00  0.00    +0.000 C 
ATOM     14  C   UNL     1       7.584   4.935  13.486  0.00  0.00    +0.000 C 
ATOM     15  O   UNL     1       7.040   5.281  14.760  0.00  0.00    +0.000 OA
ENDBRANCH  10  11
ENDBRANCH   9  10
ENDBRANCH   1   6
BRANCH   1  16
ATOM     16  C   UNL     1       1.521   8.346  17.873  0.00  0.00    +0.000 C 
BRANCH  16  17
ATOM     17  S   UNL     1       2.022  10.064  18.183  0.00  0.00    +0.000 S 
BRANCH  17  18
ATOM     18  C   UNL     1       0.843  10.539  19.345  0.00  0.00    +0.000 A 
ATOM     19  N   UNL     1      -0.184  11.336  19.186  0.00  0.00    +0.000 NA
ATOM     20  C   UNL     1      -0.751  11.427  20.440  0.00  0.00    +0.000 A 
ATOM     21  C   UNL     1      -1.808  12.229  20.892  0.00  0.00    +0.000 A 
ATOM     22  C   UNL     1      -2.144  12.165  22.249  0.00  0.00    +0.000 A 
ATOM     23 CL   UNL     1      -3.276  13.298  22.890  0.00  0.00    +0.000 Cl
ATOM     24  C   UNL     1      -1.532  11.254  23.113  0.00  0.00    +0.000 A 
ATOM     25  C   UNL     1      -0.480  10.444  22.677  0.00  0.00    +0.000 A 
ATOM     26  C   UNL     1      -0.092  10.601  21.346  0.00  0.00    +0.000 A 
ATOM     27  N   UNL     1       0.959  10.092  20.626  0.00  0.00    +0.000 N 
ATOM     28  H   UNL     1       1.724   9.533  20.980  0.00  0.00    +0.000 HD
ENDBRANCH  17  18
ENDBRANCH  16  17
ENDBRANCH   1  16
TORSDOF 6
ENDMDL
MODEL 7
REMARK VINA RESULT:      -6.8      2.798      3.854
REMARK  Name = 
REMARK  8 active torsions:
REMARK  status: ('A' for Active; 'I' for Inactive)
REMARK    1  A    between atoms: C_1  and  C_2
REMARK    2  A    between atoms: C_4  and  C_5
REMARK    3  A    between atoms: C_5  and  C_7
REMARK    4  A    between atoms: C_7  and  S_8
REMARK    5  A    between atoms: S_8  and  C_9
REMARK    6  A    between atoms: C_19  and  C_20
REMARK    7  A    between atoms: N_21  and  C_22
REMARK    8  A    between atoms: C_22  and  C_23
REMARK                            x       y       z     vdW  Elec       q    Type
REMARK                         _______ _______ _______ _____ _____    ______ ____
ROOT
ATOM      1  C   UNL     1       2.163   5.463  19.499  0.00  0.00    +0.000 C 
ATOM      2  O   UNL     1       1.666   5.014  18.471  0.00  0.00    +0.000 OA
ENDROOT
BRANCH   1   6
ATOM      3  C   UNL     1       0.207   9.185  22.372  0.00  0.00    +0.000 C 
ATOM      4  C   UNL     1       0.946   8.474  21.297  0.00  0.00    +0.000 A 
ATOM      5  C   UNL     1       1.267   7.140  21.263  0.00  0.00    +0.000 A 
ATOM      6  C   UNL     1       1.814   6.827  19.978  0.00  0.00    +0.000 A 
ATOM      7  C   UNL     1       1.883   8.033  19.289  0.00  0.00    +0.000 A 
ATOM      8  C   UNL     1       2.330   8.298  17.886  0.00  0.00    +0.000 C 
ATOM      9  N   UNL     1       1.395   9.051  20.119  0.00  0.00    +0.000 N 
BRANCH   9  10
ATOM     10  C   UNL     1       1.181  10.439  19.713  0.00  0.00    +0.000 C 
BRANCH  10  11
ATOM     11  C   UNL     1      -0.247  10.894  19.350  0.00  0.00    +0.000 C 
ATOM     12  C   UNL     1      -0.956  10.126  18.253  0.00  0.00    +0.000 C 
ATOM     13  C   UNL     1      -1.893  11.147  17.644  0.00  0.00    +0.000 C 
ATOM     14  C   UNL     1      -1.286  12.488  17.995  0.00  0.00    +0.000 C 
ATOM     15  O   UNL     1      -0.300  12.284  19.009  0.00  0.00    +0.000 OA
ENDBRANCH  10  11
ENDBRANCH   9  10
ENDBRANCH   1   6
BRANCH   1  16
ATOM     16  C   UNL     1       3.151   4.691  20.365  0.00  0.00    +0.000 C 
BRANCH  16  17
ATOM     17  S   UNL     1       3.576   3.075  19.653  0.00  0.00    +0.000 S 
BRANCH  17  18
ATOM     18  C   UNL     1       4.434   3.560  18.242  0.00  0.00    +0.000 A 
ATOM     19  N   UNL     1       4.055   3.489  16.991  0.00  0.00    +0.000 NA
ATOM     20  C   UNL     1       5.139   3.943  16.271  0.00  0.00    +0.000 A 
ATOM     21  C   UNL     1       5.345   3.982  14.885  0.00  0.00    +0.000 A 
ATOM     22  C   UNL     1       6.582   4.444  14.419  0.00  0.00    +0.000 A 
ATOM     23 CL   UNL     1       6.960   4.292  12.744  0.00  0.00    +0.000 Cl
ATOM     24  C   UNL     1       7.546   4.958  15.290  0.00  0.00    +0.000 A 
ATOM     25  C   UNL     1       7.354   4.931  16.674  0.00  0.00    +0.000 A 
ATOM     26  C   UNL     1       6.158   4.369  17.119  0.00  0.00    +0.000 A 
ATOM     27  N   UNL     1       5.697   4.055  18.373  0.00  0.00    +0.000 N 
ATOM     28  H   UNL     1       6.209   4.118  19.242  0.00  0.00    +0.000 HD
ENDBRANCH  17  18
ENDBRANCH  16  17
ENDBRANCH   1  16
TORSDOF 6
ENDMDL
MODEL 8
REMARK VINA RESULT:      -6.8      4.486      8.648
REMARK  Name = 
REMARK  8 active torsions:
REMARK  status: ('A' for Active; 'I' for Inactive)
REMARK    1  A    between atoms: C_1  and  C_2
REMARK    2  A    between atoms: C_4  and  C_5
REMARK    3  A    between atoms: C_5  and  C_7
REMARK    4  A    between atoms: C_7  and  S_8
REMARK    5  A    between atoms: S_8  and  C_9
REMARK    6  A    between atoms: C_19  and  C_20
REMARK    7  A    between atoms: N_21  and  C_22
REMARK    8  A    between atoms: C_22  and  C_23
REMARK                            x       y       z     vdW  Elec       q    Type
REMARK                         _______ _______ _______ _____ _____    ______ ____
ROOT
ATOM      1  C   UNL     1       1.687   7.918  19.935  0.00  0.00    +0.000 C 
ATOM      2  O   UNL     1       1.757   8.916  19.223  0.00  0.00    +0.000 OA
ENDROOT
BRANCH   1   6
ATOM      3  C   UNL     1       3.396   3.125  20.117  0.00  0.00    +0.000 C 
ATOM      4  C   UNL     1       3.057   4.483  19.618  0.00  0.00    +0.000 A 
ATOM      5  C   UNL     1       2.236   5.401  20.225  0.00  0.00    +0.000 A 
ATOM      6  C   UNL     1       2.323   6.641  19.517  0.00  0.00    +0.000 A 
ATOM      7  C   UNL     1       3.152   6.400  18.427  0.00  0.00    +0.000 A 
ATOM      8  C   UNL     1       3.631   7.348  17.374  0.00  0.00    +0.000 C 
ATOM      9  N   UNL     1       3.563   5.061  18.464  0.00  0.00    +0.000 N 
BRANCH   9  10
ATOM     10  C   UNL     1       4.546   4.456  17.567  0.00  0.00    +0.000 C 
BRANCH  10  11
ATOM     11  C   UNL     1       6.036   4.801  17.759  0.00  0.00    +0.000 C 
ATOM     12  C   UNL     1       6.455   5.310  19.123  0.00  0.00    +0.000 C 
ATOM     13  C   UNL     1       7.644   6.198  18.829  0.00  0.00    +0.000 C 
ATOM     14  C   UNL     1       7.480   6.597  17.378  0.00  0.00    +0.000 C 
ATOM     15  O   UNL     1       6.501   5.743  16.784  0.00  0.00    +0.000 OA
ENDBRANCH  10  11
ENDBRANCH   9  10
ENDBRANCH   1   6
BRANCH   1  16
ATOM     16  C   UNL     1       0.970   7.891  21.279  0.00  0.00    +0.000 C 
BRANCH  16  17
ATOM     17  S   UNL     1       1.525   9.222  22.384  0.00  0.00    +0.000 S 
BRANCH  17  18
ATOM     18  C   UNL     1       0.179  10.293  22.300  0.00  0.00    +0.000 A 
ATOM     19  N   UNL     1      -0.586  10.720  23.273  0.00  0.00    +0.000 NA
ATOM     20  C   UNL     1      -1.543  11.492  22.651  0.00  0.00    +0.000 A 
ATOM     21  C   UNL     1      -2.684  12.109  23.181  0.00  0.00    +0.000 A 
ATOM     22  C   UNL     1      -3.530  12.793  22.299  0.00  0.00    +0.000 A 
ATOM     23 CL   UNL     1      -5.053  13.365  22.867  0.00  0.00    +0.000 Cl
ATOM     24  C   UNL     1      -3.200  12.960  20.952  0.00  0.00    +0.000 A 
ATOM     25  C   UNL     1      -2.064  12.355  20.408  0.00  0.00    +0.000 A 
ATOM     26  C   UNL     1      -1.293  11.591  21.285  0.00  0.00    +0.000 A 
ATOM     27  N   UNL     1      -0.217  10.763  21.085  0.00  0.00    +0.000 N 
ATOM     28  H   UNL     1       0.185  10.494  20.198  0.00  0.00    +0.000 HD
ENDBRANCH  17  18
ENDBRANCH  16  17
ENDBRANCH   1  16
TORSDOF 6
ENDMDL
MODEL 9
REMARK VINA RESULT:      -6.7      5.025      8.507
REMARK  Name = 
REMARK  8 active torsions:
REMARK  status: ('A' for Active; 'I' for Inactive)
REMARK    1  A    between atoms: C_1  and  C_2
REMARK    2  A    between atoms: C_4  and  C_5
REMARK    3  A    between atoms: C_5  and  C_7
REMARK    4  A    between atoms: C_7  and  S_8
REMARK    5  A    between atoms: S_8  and  C_9
REMARK    6  A    between atoms: C_19  and  C_20
REMARK    7  A    between atoms: N_21  and  C_22
REMARK    8  A    between atoms: C_22  and  C_23
REMARK                            x       y       z     vdW  Elec       q    Type
REMARK                         _______ _______ _______ _____ _____    ______ ____
ROOT
ATOM      1  C   UNL     1       1.863   8.506  19.200  0.00  0.00    +0.000 C 
ATOM      2  O   UNL     1       2.179   9.174  18.221  0.00  0.00    +0.000 OA
ENDROOT
BRANCH   1   6
ATOM      3  C   UNL     1       2.491   3.822  21.098  0.00  0.00    +0.000 C 
ATOM      4  C   UNL     1       2.483   4.974  20.159  0.00  0.00    +0.000 A 
ATOM      5  C   UNL     1       1.840   6.174  20.335  0.00  0.00    +0.000 A 
ATOM      6  C   UNL     1       2.235   7.069  19.291  0.00  0.00    +0.000 A 
ATOM      7  C   UNL     1       3.061   6.331  18.449  0.00  0.00    +0.000 A 
ATOM      8  C   UNL     1       3.797   6.770  17.223  0.00  0.00    +0.000 C 
ATOM      9  N   UNL     1       3.172   5.031  18.958  0.00  0.00    +0.000 N 
BRANCH   9  10
ATOM     10  C   UNL     1       4.058   3.993  18.432  0.00  0.00    +0.000 C 
BRANCH  10  11
ATOM     11  C   UNL     1       5.582   4.181  18.566  0.00  0.00    +0.000 C 
ATOM     12  C   UNL     1       6.061   5.306  19.461  0.00  0.00    +0.000 C 
ATOM     13  C   UNL     1       7.392   5.704  18.860  0.00  0.00    +0.000 C 
ATOM     14  C   UNL     1       7.324   5.236  17.423  0.00  0.00    +0.000 C 
ATOM     15  O   UNL     1       6.220   4.338  17.293  0.00  0.00    +0.000 OA
ENDBRANCH  10  11
ENDBRANCH   9  10
ENDBRANCH   1   6
BRANCH   1  16
ATOM     16  C   UNL     1       1.087   9.064  20.388  0.00  0.00    +0.000 C 
BRANCH  16  17
ATOM     17  S   UNL     1       0.988  10.877  20.356  0.00  0.00    +0.000 S 
BRANCH  17  18
ATOM     18  C   UNL     1      -0.485  11.105  19.494  0.00  0.00    +0.000 A 
ATOM     19  N   UNL     1      -1.583  11.693  19.897  0.00  0.00    +0.000 NA
ATOM     20  C   UNL     1      -2.466  11.537  18.849  0.00  0.00    +0.000 A 
ATOM     21  C   UNL     1      -3.825  11.867  18.763  0.00  0.00    +0.000 A 
ATOM     22  C   UNL     1      -4.506  11.538  17.585  0.00  0.00    +0.000 A 
ATOM     23 CL   UNL     1      -6.220  11.714  17.527  0.00  0.00    +0.000 Cl
ATOM     24  C   UNL     1      -3.840  11.001  16.480  0.00  0.00    +0.000 A 
ATOM     25  C   UNL     1      -2.484  10.671  16.548  0.00  0.00    +0.000 A 
ATOM     26  C   UNL     1      -1.851  10.911  17.768  0.00  0.00    +0.000 A 
ATOM     27  N   UNL     1      -0.601  10.595  18.237  0.00  0.00    +0.000 N 
ATOM     28  H   UNL     1       0.100  10.036  17.769  0.00  0.00    +0.000 HD
ENDBRANCH  17  18
ENDBRANCH  16  17
ENDBRANCH   1  16
TORSDOF 6
ENDMDL
