MODEL 1
REMARK VINA RESULT:      -7.2      0.000      0.000
REMARK  Name = 
REMARK  5 active torsions:
REMARK  status: ('A' for Active; 'I' for Inactive)
REMARK    1  A    between atoms: C_1  and  C_2
REMARK    2  A    between atoms: C_2  and  C_3
REMARK    3  A    between atoms: C_2  and  C_4
REMARK    4  A    between atoms: C_2  and  C_5
REMARK    5  A    between atoms: N_7  and  C_8
REMARK                            x       y       z     vdW  Elec       q    Type
REMARK                         _______ _______ _______ _____ _____    ______ ____
ROOT
ATOM      1  C   UNL     1       2.502   7.227  18.818  0.00  0.00    +0.000 A 
ATOM      2  C   UNL     1       2.220   8.186  17.843  0.00  0.00    +0.000 A 
ATOM      3  C   UNL     1       1.514   9.342  18.157  0.00  0.00    +0.000 A 
ATOM      4  C   UNL     1       1.069   9.556  19.458  0.00  0.00    +0.000 A 
ATOM      5  C   UNL     1       1.290   8.595  20.443  0.00  0.00    +0.000 A 
ATOM      6  C   UNL     1       1.989   7.415  20.111  0.00  0.00    +0.000 A 
ATOM      7  C   UNL     1       0.809   8.810  21.804  0.00  0.00    +0.000 C 
ATOM      8  C   UNL     1       0.234   9.949  22.198  0.00  0.00    +0.000 C 
ATOM      9  S   UNL     1       0.008  11.290  21.132  0.00  0.00    +0.000 S 
ATOM     10  O   UNL     1       0.968  12.317  21.491  0.00  0.00    +0.000 OA
ATOM     11  O   UNL     1      -1.410  11.598  21.112  0.00  0.00    +0.000 OA
ATOM     12  O   UNL     1       0.400  10.727  19.660  0.00  0.00    +0.000 OA
ENDROOT
BRANCH   1  15
ATOM     13  C   UNL     1       2.806   4.900  18.009  0.00  0.00    +0.000 C 
ATOM     14  O   UNL     1       1.631   4.731  17.676  0.00  0.00    +0.000 OA
ATOM     15  N   UNL     1       3.300   6.086  18.546  0.00  0.00    +0.000 N 
ATOM     16  H   UNL     1       4.304   6.209  18.574  0.00  0.00    +0.000 HD
BRANCH  13  18
ATOM     17  C   UNL     1       4.810   3.798  19.005  0.00  0.00    +0.000 C 
ATOM     18  C   UNL     1       3.829   3.766  17.811  0.00  0.00    +0.000 C 
ATOM     19  C   UNL     1       4.627   3.980  16.520  0.00  0.00    +0.000 C 
ATOM     20  C   UNL     1       3.133   2.400  17.792  0.00  0.00    +0.000 C 
ENDBRANCH  13  18
ENDBRANCH   1  15
TORSDOF 2
ENDMDL
MODEL 2
REMARK VINA RESULT:      -7.1      0.088      1.022
REMARK  Name = 
REMARK  5 active torsions:
REMARK  status: ('A' for Active; 'I' for Inactive)
REMARK    1  A    between atoms: C_1  and  C_2
REMARK    2  A    between atoms: C_2  and  C_3
REMARK    3  A    between atoms: C_2  and  C_4
REMARK    4  A    between atoms: C_2  and  C_5
REMARK    5  A    between atoms: N_7  and  C_8
REMARK                            x       y       z     vdW  Elec       q    Type
REMARK                         _______ _______ _______ _____ _____    ______ ____
ROOT
ATOM      1  C   UNL     1       2.517   7.226  18.801  0.00  0.00    +0.000 A 
ATOM      2  C   UNL     1       2.275   8.195  17.825  0.00  0.00    +0.000 A 
ATOM      3  C   UNL     1       1.580   9.361  18.129  0.00  0.00    +0.000 A 
ATOM      4  C   UNL     1       1.106   9.574  19.419  0.00  0.00    +0.000 A 
ATOM      5  C   UNL     1       1.287   8.604  20.403  0.00  0.00    +0.000 A 
ATOM      6  C   UNL     1       1.975   7.415  20.081  0.00  0.00    +0.000 A 
ATOM      7  C   UNL     1       0.776   8.819  21.753  0.00  0.00    +0.000 C 
ATOM      8  C   UNL     1       0.209   9.965  22.140  0.00  0.00    +0.000 C 
ATOM      9  S   UNL     1       0.032  11.316  21.077  0.00  0.00    +0.000 S 
ATOM     10  O   UNL     1       0.999  12.324  21.466  0.00  0.00    +0.000 OA
ATOM     11  O   UNL     1      -1.380  11.647  21.023  0.00  0.00    +0.000 OA
ATOM     12  O   UNL     1       0.451  10.755  19.612  0.00  0.00    +0.000 OA
ENDROOT
BRANCH   1  15
ATOM     13  C   UNL     1       2.792   4.879  18.043  0.00  0.00    +0.000 C 
ATOM     14  O   UNL     1       1.610   4.709  17.736  0.00  0.00    +0.000 OA
ATOM     15  N   UNL     1       3.303   6.073  18.541  0.00  0.00    +0.000 N 
ATOM     16  H   UNL     1       4.308   6.191  18.547  0.00  0.00    +0.000 HD
BRANCH  13  18
ATOM     17  C   UNL     1       3.009   2.419  17.687  0.00  0.00    +0.000 C 
ATOM     18  C   UNL     1       3.805   3.733  17.854  0.00  0.00    +0.000 C 
ATOM     19  C   UNL     1       4.705   3.604  19.087  0.00  0.00    +0.000 C 
ATOM     20  C   UNL     1       4.649   3.953  16.593  0.00  0.00    +0.000 C 
ENDBRANCH  13  18
ENDBRANCH   1  15
TORSDOF 2
ENDMDL
MODEL 3
REMARK VINA RESULT:      -6.7      3.355      7.187
REMARK  Name = 
REMARK  5 active torsions:
REMARK  status: ('A' for Active; 'I' for Inactive)
REMARK    1  A    between atoms: C_1  and  C_2
REMARK    2  A    between atoms: C_2  and  C_3
REMARK    3  A    between atoms: C_2  and  C_4
REMARK    4  A    between atoms: C_2  and  C_5
REMARK    5  A    between atoms: N_7  and  C_8
REMARK                            x       y       z     vdW  Elec       q    Type
REMARK                         _______ _______ _______ _____ _____    ______ ____
ROOT
ATOM      1  C   UNL     1       2.012   7.428  19.697  0.00  0.00    +0.000 A 
ATOM      2  C   UNL     1       2.995   7.286  18.716  0.00  0.00    +0.000 A 
ATOM      3  C   UNL     1       3.673   6.082  18.549  0.00  0.00    +0.000 A 
ATOM      4  C   UNL     1       3.383   4.998  19.371  0.00  0.00    +0.000 A 
ATOM      5  C   UNL     1       2.443   5.123  20.393  0.00  0.00    +0.000 A 
ATOM      6  C   UNL     1       1.775   6.354  20.569  0.00  0.00    +0.000 A 
ATOM      7  C   UNL     1       2.148   3.993  21.267  0.00  0.00    +0.000 C 
ATOM      8  C   UNL     1       2.673   2.778  21.083  0.00  0.00    +0.000 C 
ATOM      9  S   UNL     1       3.751   2.423  19.780  0.00  0.00    +0.000 S 
ATOM     10  O   UNL     1       3.029   1.635  18.800  0.00  0.00    +0.000 OA
ATOM     11  O   UNL     1       4.982   1.913  20.358  0.00  0.00    +0.000 OA
ATOM     12  O   UNL     1       4.094   3.864  19.114  0.00  0.00    +0.000 OA
ENDROOT
BRANCH   1  15
ATOM     13  C   UNL     1       1.048   9.288  21.028  0.00  0.00    +0.000 C 
ATOM     14  O   UNL     1       1.559   8.952  22.098  0.00  0.00    +0.000 OA
ATOM     15  N   UNL     1       1.242   8.612  19.827  0.00  0.00    +0.000 N 
ATOM     16  H   UNL     1       0.975   9.084  18.972  0.00  0.00    +0.000 HD
BRANCH  13  18
ATOM     17  C   UNL     1       1.069  11.763  20.713  0.00  0.00    +0.000 C 
ATOM     18  C   UNL     1       0.156  10.543  20.966  0.00  0.00    +0.000 C 
ATOM     19  C   UNL     1      -0.575  10.748  22.297  0.00  0.00    +0.000 C 
ATOM     20  C   UNL     1      -0.849  10.441  19.812  0.00  0.00    +0.000 C 
ENDBRANCH  13  18
ENDBRANCH   1  15
TORSDOF 2
ENDMDL
MODEL 4
REMARK VINA RESULT:      -6.7      3.347      7.182
REMARK  Name = 
REMARK  5 active torsions:
REMARK  status: ('A' for Active; 'I' for Inactive)
REMARK    1  A    between atoms: C_1  and  C_2
REMARK    2  A    between atoms: C_2  and  C_3
REMARK    3  A    between atoms: C_2  and  C_4
REMARK    4  A    between atoms: C_2  and  C_5
REMARK    5  A    between atoms: N_7  and  C_8
REMARK                            x       y       z     vdW  Elec       q    Type
REMARK                         _______ _______ _______ _____ _____    ______ ____
ROOT
ATOM      1  C   UNL     1       2.023   7.440  19.666  0.00  0.00    +0.000 A 
ATOM      2  C   UNL     1       3.007   7.290  18.687  0.00  0.00    +0.000 A 
ATOM      3  C   UNL     1       3.682   6.084  18.527  0.00  0.00    +0.000 A 
ATOM      4  C   UNL     1       3.387   5.005  19.355  0.00  0.00    +0.000 A 
ATOM      5  C   UNL     1       2.446   5.138  20.375  0.00  0.00    +0.000 A 
ATOM      6  C   UNL     1       1.781   6.371  20.543  0.00  0.00    +0.000 A 
ATOM      7  C   UNL     1       2.148   4.013  21.254  0.00  0.00    +0.000 C 
ATOM      8  C   UNL     1       2.670   2.796  21.077  0.00  0.00    +0.000 C 
ATOM      9  S   UNL     1       3.748   2.431  19.777  0.00  0.00    +0.000 S 
ATOM     10  O   UNL     1       3.025   1.640  18.800  0.00  0.00    +0.000 OA
ATOM     11  O   UNL     1       4.976   1.920  20.359  0.00  0.00    +0.000 OA
ATOM     12  O   UNL     1       4.096   3.867  19.104  0.00  0.00    +0.000 OA
ENDROOT
BRANCH   1  15
ATOM     13  C   UNL     1       1.066   9.313  20.985  0.00  0.00    +0.000 C 
ATOM     14  O   UNL     1       1.579   8.983  22.057  0.00  0.00    +0.000 OA
ATOM     15  N   UNL     1       1.255   8.627  19.789  0.00  0.00    +0.000 N 
ATOM     16  H   UNL     1       0.988   9.093  18.931  0.00  0.00    +0.000 HD
BRANCH  13  18
ATOM     17  C   UNL     1      -0.615  10.664  22.240  0.00  0.00    +0.000 C 
ATOM     18  C   UNL     1       0.176  10.568  20.916  0.00  0.00    +0.000 C 
ATOM     19  C   UNL     1      -0.823  10.455  19.759  0.00  0.00    +0.000 C 
ATOM     20  C   UNL     1       1.029  11.834  20.768  0.00  0.00    +0.000 C 
ENDBRANCH  13  18
ENDBRANCH   1  15
TORSDOF 2
ENDMDL
MODEL 5
REMARK VINA RESULT:      -6.7      3.307      7.044
REMARK  Name = 
REMARK  5 active torsions:
REMARK  status: ('A' for Active; 'I' for Inactive)
REMARK    1  A    between atoms: C_1  and  C_2
REMARK    2  A    between atoms: C_2  and  C_3
REMARK    3  A    between atoms: C_2  and  C_4
REMARK    4  A    between atoms: C_2  and  C_5
REMARK    5  A    between atoms: N_7  and  C_8
REMARK                            x       y       z     vdW  Elec       q    Type
REMARK                         _______ _______ _______ _____ _____    ______ ____
ROOT
ATOM      1  C   UNL     1       2.518   7.357  18.711  0.00  0.00    +0.000 A 
ATOM      2  C   UNL     1       3.598   7.052  17.880  0.00  0.00    +0.000 A 
ATOM      3  C   UNL     1       4.236   5.817  17.957  0.00  0.00    +0.000 A 
ATOM      4  C   UNL     1       3.806   4.867  18.878  0.00  0.00    +0.000 A 
ATOM      5  C   UNL     1       2.764   5.159  19.756  0.00  0.00    +0.000 A 
ATOM      6  C   UNL     1       2.136   6.421  19.685  0.00  0.00    +0.000 A 
ATOM      7  C   UNL     1       2.323   4.169  20.732  0.00  0.00    +0.000 C 
ATOM      8  C   UNL     1       2.810   2.926  20.776  0.00  0.00    +0.000 C 
ATOM      9  S   UNL     1       4.011   2.363  19.668  0.00  0.00    +0.000 S 
ATOM     10  O   UNL     1       3.369   1.468  18.725  0.00  0.00    +0.000 OA
ATOM     11  O   UNL     1       5.144   1.903  20.450  0.00  0.00    +0.000 OA
ATOM     12  O   UNL     1       4.491   3.688  18.860  0.00  0.00    +0.000 OA
ENDROOT
BRANCH   1  15
ATOM     13  C   UNL     1       1.205   9.237  19.660  0.00  0.00    +0.000 C 
ATOM     14  O   UNL     1       1.289   8.867  20.833  0.00  0.00    +0.000 OA
ATOM     15  N   UNL     1       1.791   8.570  18.589  0.00  0.00    +0.000 N 
ATOM     16  H   UNL     1       1.863   9.063  17.708  0.00  0.00    +0.000 HD
BRANCH  13  18
ATOM     17  C   UNL     1      -0.591  10.189  18.213  0.00  0.00    +0.000 C 
ATOM     18  C   UNL     1       0.436  10.527  19.318  0.00  0.00    +0.000 C 
ATOM     19  C   UNL     1       1.393  11.597  18.781  0.00  0.00    +0.000 C 
ATOM     20  C   UNL     1      -0.324  11.052  20.542  0.00  0.00    +0.000 C 
ENDBRANCH  13  18
ENDBRANCH   1  15
TORSDOF 2
ENDMDL
MODEL 6
REMARK VINA RESULT:      -6.7      1.403      1.699
REMARK  Name = 
REMARK  5 active torsions:
REMARK  status: ('A' for Active; 'I' for Inactive)
REMARK    1  A    between atoms: C_1  and  C_2
REMARK    2  A    between atoms: C_2  and  C_3
REMARK    3  A    between atoms: C_2  and  C_4
REMARK    4  A    between atoms: C_2  and  C_5
REMARK    5  A    between atoms: N_7  and  C_8
REMARK                            x       y       z     vdW  Elec       q    Type
REMARK                         _______ _______ _______ _____ _____    ______ ____
ROOT
ATOM      1  C   UNL     1       2.598   7.155  18.378  0.00  0.00    +0.000 A 
ATOM      2  C   UNL     1       2.231   8.175  17.499  0.00  0.00    +0.000 A 
ATOM      3  C   UNL     1       1.554   9.303  17.952  0.00  0.00    +0.000 A 
ATOM      4  C   UNL     1       1.224   9.424  19.298  0.00  0.00    +0.000 A 
ATOM      5  C   UNL     1       1.531   8.400  20.192  0.00  0.00    +0.000 A 
ATOM      6  C   UNL     1       2.200   7.250  19.720  0.00  0.00    +0.000 A 
ATOM      7  C   UNL     1       1.171   8.518  21.601  0.00  0.00    +0.000 C 
ATOM      8  C   UNL     1       0.631   9.623  22.121  0.00  0.00    +0.000 C 
ATOM      9  S   UNL     1       0.312  11.032  21.174  0.00  0.00    +0.000 S 
ATOM     10  O   UNL     1       1.299  12.039  21.517  0.00  0.00    +0.000 OA
ATOM     11  O   UNL     1      -1.103  11.331  21.298  0.00  0.00    +0.000 OA
ATOM     12  O   UNL     1       0.574  10.574  19.638  0.00  0.00    +0.000 OA
ENDROOT
BRANCH   1  15
ATOM     13  C   UNL     1       4.671   6.131  17.473  0.00  0.00    +0.000 C 
ATOM     14  O   UNL     1       5.304   7.186  17.392  0.00  0.00    +0.000 OA
ATOM     15  N   UNL     1       3.370   6.040  17.959  0.00  0.00    +0.000 N 
ATOM     16  H   UNL     1       3.020   5.121  18.200  0.00  0.00    +0.000 HD
BRANCH  13  18
ATOM     17  C   UNL     1       4.476   3.647  17.604  0.00  0.00    +0.000 C 
ATOM     18  C   UNL     1       5.331   4.807  17.044  0.00  0.00    +0.000 C 
ATOM     19  C   UNL     1       6.743   4.697  17.630  0.00  0.00    +0.000 C 
ATOM     20  C   UNL     1       5.372   4.686  15.517  0.00  0.00    +0.000 C 
ENDBRANCH  13  18
ENDBRANCH   1  15
TORSDOF 2
ENDMDL
MODEL 7
REMARK VINA RESULT:      -6.6      3.368      7.020
REMARK  Name = 
REMARK  5 active torsions:
REMARK  status: ('A' for Active; 'I' for Inactive)
REMARK    1  A    between atoms: C_1  and  C_2
REMARK    2  A    between atoms: C_2  and  C_3
REMARK    3  A    between atoms: C_2  and  C_4
REMARK    4  A    between atoms: C_2  and  C_5
REMARK    5  A    between atoms: N_7  and  C_8
REMARK                            x       y       z     vdW  Elec       q    Type
REMARK                         _______ _______ _______ _____ _____    ______ ____
ROOT
ATOM      1  C   UNL     1       2.089   7.466  19.697  0.00  0.00    +0.000 A 
ATOM      2  C   UNL     1       3.041   7.300  18.689  0.00  0.00    +0.000 A 
ATOM      3  C   UNL     1       3.681   6.079  18.501  0.00  0.00    +0.000 A 
ATOM      4  C   UNL     1       3.384   5.002  19.329  0.00  0.00    +0.000 A 
ATOM      5  C   UNL     1       2.476   5.149  20.377  0.00  0.00    +0.000 A 
ATOM      6  C   UNL     1       1.847   6.397  20.573  0.00  0.00    +0.000 A 
ATOM      7  C   UNL     1       2.175   4.025  21.256  0.00  0.00    +0.000 C 
ATOM      8  C   UNL     1       2.662   2.797  21.056  0.00  0.00    +0.000 C 
ATOM      9  S   UNL     1       3.695   2.417  19.723  0.00  0.00    +0.000 S 
ATOM     10  O   UNL     1       2.925   1.651  18.762  0.00  0.00    +0.000 OA
ATOM     11  O   UNL     1       4.926   1.872  20.266  0.00  0.00    +0.000 OA
ATOM     12  O   UNL     1       4.058   3.849  19.051  0.00  0.00    +0.000 OA
ENDROOT
BRANCH   1  15
ATOM     13  C   UNL     1       0.915   9.455  18.787  0.00  0.00    +0.000 C 
ATOM     14  O   UNL     1       1.083   9.166  17.601  0.00  0.00    +0.000 OA
ATOM     15  N   UNL     1       1.354   8.671  19.849  0.00  0.00    +0.000 N 
ATOM     16  H   UNL     1       0.976   8.866  20.768  0.00  0.00    +0.000 HD
BRANCH  13  18
ATOM     17  C   UNL     1       1.079  11.944  18.864  0.00  0.00    +0.000 C 
ATOM     18  C   UNL     1       0.154  10.742  19.161  0.00  0.00    +0.000 C 
ATOM     19  C   UNL     1      -0.187  10.748  20.656  0.00  0.00    +0.000 C 
ATOM     20  C   UNL     1      -1.118  10.888  18.319  0.00  0.00    +0.000 C 
ENDBRANCH  13  18
ENDBRANCH   1  15
TORSDOF 2
ENDMDL
MODEL 8
REMARK VINA RESULT:      -6.6      3.820      7.387
REMARK  Name = 
REMARK  5 active torsions:
REMARK  status: ('A' for Active; 'I' for Inactive)
REMARK    1  A    between atoms: C_1  and  C_2
REMARK    2  A    between atoms: C_2  and  C_3
REMARK    3  A    between atoms: C_2  and  C_4
REMARK    4  A    between atoms: C_2  and  C_5
REMARK    5  A    between atoms: N_7  and  C_8
REMARK                            x       y       z     vdW  Elec       q    Type
REMARK                         _______ _______ _______ _____ _____    ______ ____
ROOT
ATOM      1  C   UNL     1       2.586   7.147  18.257  0.00  0.00    +0.000 A 
ATOM      2  C   UNL     1       2.359   5.772  18.172  0.00  0.00    +0.000 A 
ATOM      3  C   UNL     1       3.380   4.898  17.812  0.00  0.00    +0.000 A 
ATOM      4  C   UNL     1       4.649   5.389  17.523  0.00  0.00    +0.000 A 
ATOM      5  C   UNL     1       4.895   6.761  17.549  0.00  0.00    +0.000 A 
ATOM      6  C   UNL     1       3.848   7.642  17.895  0.00  0.00    +0.000 A 
ATOM      7  C   UNL     1       6.221   7.278  17.230  0.00  0.00    +0.000 C 
ATOM      8  C   UNL     1       7.272   6.487  16.997  0.00  0.00    +0.000 C 
ATOM      9  S   UNL     1       7.165   4.764  17.059  0.00  0.00    +0.000 S 
ATOM     10  O   UNL     1       7.819   4.315  18.273  0.00  0.00    +0.000 OA
ATOM     11  O   UNL     1       7.597   4.252  15.771  0.00  0.00    +0.000 OA
ATOM     12  O   UNL     1       5.578   4.446  17.195  0.00  0.00    +0.000 OA
ENDROOT
BRANCH   1  15
ATOM     13  C   UNL     1       1.433   9.345  18.228  0.00  0.00    +0.000 C 
ATOM     14  O   UNL     1       2.117   9.831  17.325  0.00  0.00    +0.000 OA
ATOM     15  N   UNL     1       1.590   8.049  18.712  0.00  0.00    +0.000 N 
ATOM     16  H   UNL     1       0.847   7.666  19.282  0.00  0.00    +0.000 HD
BRANCH  13  18
ATOM     17  C   UNL     1       0.038   9.607  20.280  0.00  0.00    +0.000 C 
ATOM     18  C   UNL     1       0.307  10.178  18.869  0.00  0.00    +0.000 C 
ATOM     19  C   UNL     1      -0.981  10.066  18.045  0.00  0.00    +0.000 C 
ATOM     20  C   UNL     1       0.727  11.646  19.012  0.00  0.00    +0.000 C 
ENDBRANCH  13  18
ENDBRANCH   1  15
TORSDOF 2
ENDMDL
MODEL 9
REMARK VINA RESULT:      -6.5      3.513      7.334
REMARK  Name = 
REMARK  5 active torsions:
REMARK  status: ('A' for Active; 'I' for Inactive)
REMARK    1  A    between atoms: C_1  and  C_2
REMARK    2  A    between atoms: C_2  and  C_3
REMARK    3  A    between atoms: C_2  and  C_4
REMARK    4  A    between atoms: C_2  and  C_5
REMARK    5  A    between atoms: N_7  and  C_8
REMARK                            x       y       z     vdW  Elec       q    Type
REMARK                         _______ _______ _______ _____ _____    ______ ____
ROOT
ATOM      1  C   UNL     1       2.744   6.269  19.655  0.00  0.00    +0.000 A 
ATOM      2  C   UNL     1       3.049   4.949  19.993  0.00  0.00    +0.000 A 
ATOM      3  C   UNL     1       3.917   4.191  19.213  0.00  0.00    +0.000 A 
ATOM      4  C   UNL     1       4.490   4.742  18.072  0.00  0.00    +0.000 A 
ATOM      5  C   UNL     1       4.166   6.040  17.678  0.00  0.00    +0.000 A 
ATOM      6  C   UNL     1       3.268   6.794  18.464  0.00  0.00    +0.000 A 
ATOM      7  C   UNL     1       4.753   6.613  16.472  0.00  0.00    +0.000 C 
ATOM      8  C   UNL     1       5.683   5.984  15.749  0.00  0.00    +0.000 C 
ATOM      9  S   UNL     1       6.293   4.426  16.178  0.00  0.00    +0.000 S 
ATOM     10  O   UNL     1       7.633   4.595  16.706  0.00  0.00    +0.000 OA
ATOM     11  O   UNL     1       6.064   3.541  15.050  0.00  0.00    +0.000 OA
ATOM     12  O   UNL     1       5.335   3.919  17.388  0.00  0.00    +0.000 OA
ENDROOT
BRANCH   1  15
ATOM     13  C   UNL     1       1.485   8.358  20.118  0.00  0.00    +0.000 C 
ATOM     14  O   UNL     1       1.705   8.880  19.023  0.00  0.00    +0.000 OA
ATOM     15  N   UNL     1       1.937   7.093  20.482  0.00  0.00    +0.000 N 
ATOM     16  H   UNL     1       1.522   6.660  21.297  0.00  0.00    +0.000 HD
BRANCH  13  18
ATOM     17  C   UNL     1       1.501   9.266  22.443  0.00  0.00    +0.000 C 
ATOM     18  C   UNL     1       0.642   9.106  21.168  0.00  0.00    +0.000 C 
ATOM     19  C   UNL     1      -0.612   8.299  21.524  0.00  0.00    +0.000 C 
ATOM     20  C   UNL     1       0.256  10.502  20.665  0.00  0.00    +0.000 C 
ENDBRANCH  13  18
ENDBRANCH   1  15
TORSDOF 2
ENDMDL
