MODEL 1
REMARK VINA RESULT:      -8.2      0.000      0.000
REMARK  Name = 
REMARK  14 active torsions:
REMARK  status: ('A' for Active; 'I' for Inactive)
REMARK    1  A    between atoms: C_1  and  C_2
REMARK    2  A    between atoms: C_2  and  C_3
REMARK    3  A    between atoms: C_3  and  C_4
REMARK    4  A    between atoms: C_6  and  C_7
REMARK    5  A    between atoms: C_9  and  C_10
REMARK    6  A    between atoms: N_12  and  C_13
REMARK    7  A    between atoms: N_12  and  C_18
REMARK    8  A    between atoms: C_13  and  C_14
REMARK    9  A    between atoms: C_14  and  N_15
REMARK   10  A    between atoms: N_15  and  C_16
REMARK   11  A    between atoms: N_15  and  C_17
REMARK   12  A    between atoms: C_18  and  C_19
REMARK   13  A    between atoms: C_26  and  C_27
REMARK   14  A    between atoms: C_33  and  C_34
REMARK                            x       y       z     vdW  Elec       q    Type
REMARK                         _______ _______ _______ _____ _____    ______ ____
ROOT
ATOM      1  C   UNL     1      -0.972   9.935  18.686  0.00  0.00    +0.000 A 
ATOM      2  C   UNL     1       0.145   9.280  18.126  0.00  0.00    +0.000 A 
ATOM      3  C   UNL     1       1.260   8.878  18.895  0.00  0.00    +0.000 A 
ATOM      4  C   UNL     1       1.264   9.197  20.255  0.00  0.00    +0.000 A 
ATOM      5  C   UNL     1       0.123   9.761  20.863  0.00  0.00    +0.000 A 
ATOM      6  C   UNL     1      -0.972  10.132  20.069  0.00  0.00    +0.000 A 
ENDROOT
BRANCH   1   9
ATOM      7  C   UNL     1      -4.142  11.542  17.536  0.00  0.00    +0.000 A 
ATOM      8  C   UNL     1      -3.145  11.133  18.402  0.00  0.00    +0.000 A 
ATOM      9  C   UNL     1      -2.113  10.386  17.870  0.00  0.00    +0.000 A 
ATOM     10  N   UNL     1      -2.093  10.020  16.569  0.00  0.00    +0.000 NA
ATOM     11  C   UNL     1      -3.119  10.453  15.810  0.00  0.00    +0.000 A 
ATOM     12  N   UNL     1      -4.142  11.216  16.231  0.00  0.00    +0.000 NA
BRANCH  11  13
ATOM     13  C   UNL     1      -3.092  10.106  14.411  0.00  0.00    +0.000 C 
ATOM     14  N   UNL     1      -3.062   9.828  13.281  0.00  0.00    +0.000 NA
ENDBRANCH  11  13
BRANCH   7  15
ATOM     15  C   UNL     1      -5.215  12.475  18.036  0.00  0.00    +0.000 C 
BRANCH  15  17
ATOM     16  C   UNL     1      -6.811  10.642  18.703  0.00  0.00    +0.000 C 
ATOM     17  C   UNL     1      -5.982  11.817  19.185  0.00  0.00    +0.000 C 
ENDBRANCH  15  17
ENDBRANCH   7  15
ENDBRANCH   1   9
BRANCH   5  18
ATOM     18  C   UNL     1      -0.001   9.917  22.360  0.00  0.00    +0.000 C 
ATOM     19  F   UNL     1      -0.994   9.165  22.905  0.00  0.00    +0.000 F 
ATOM     20  F   UNL     1       1.138   9.584  23.022  0.00  0.00    +0.000 F 
ATOM     21  F   UNL     1      -0.277  11.205  22.708  0.00  0.00    +0.000 F 
ENDBRANCH   5  18
BRANCH   3  22
ATOM     22  C   UNL     1       2.352   8.158  18.149  0.00  0.00    +0.000 C 
ATOM     23  O   UNL     1       2.870   8.810  17.236  0.00  0.00    +0.000 OA
ATOM     24  N   UNL     1       2.728   6.823  18.383  0.00  0.00    +0.000 N 
BRANCH  24  25
ATOM     25  C   UNL     1       2.196   5.906  19.403  0.00  0.00    +0.000 C 
BRANCH  25  26
ATOM     26  C   UNL     1       2.029   4.446  18.924  0.00  0.00    +0.000 C 
BRANCH  26  27
ATOM     27  N   UNL     1       2.127   3.412  19.976  0.00  0.00    +0.000 NA
ATOM     28  C   UNL     1       3.263   2.506  19.796  0.00  0.00    +0.000 C 
ATOM     29  C   UNL     1       2.227   4.062  21.289  0.00  0.00    +0.000 C 
ENDBRANCH  26  27
ENDBRANCH  25  26
ENDBRANCH  24  25
BRANCH  24  30
ATOM     30  C   UNL     1       3.713   6.229  17.459  0.00  0.00    +0.000 C 
BRANCH  30  31
ATOM     31  C   UNL     1       5.157   6.317  17.918  0.00  0.00    +0.000 A 
ATOM     32  C   UNL     1       5.623   5.540  18.989  0.00  0.00    +0.000 A 
ATOM     33  C   UNL     1       6.984   5.519  19.323  0.00  0.00    +0.000 A 
ATOM     34  C   UNL     1       7.895   6.278  18.591  0.00  0.00    +0.000 A 
ATOM     35  C   UNL     1       7.445   7.066  17.536  0.00  0.00    +0.000 A 
ATOM     36  C   UNL     1       6.087   7.084  17.200  0.00  0.00    +0.000 A 
ENDBRANCH  30  31
ENDBRANCH  24  30
ENDBRANCH   3  22
TORSDOF 11
ENDMDL
MODEL 2
REMARK VINA RESULT:      -8.2      0.685      1.166
REMARK  Name = 
REMARK  14 active torsions:
REMARK  status: ('A' for Active; 'I' for Inactive)
REMARK    1  A    between atoms: C_1  and  C_2
REMARK    2  A    between atoms: C_2  and  C_3
REMARK    3  A    between atoms: C_3  and  C_4
REMARK    4  A    between atoms: C_6  and  C_7
REMARK    5  A    between atoms: C_9  and  C_10
REMARK    6  A    between atoms: N_12  and  C_13
REMARK    7  A    between atoms: N_12  and  C_18
REMARK    8  A    between atoms: C_13  and  C_14
REMARK    9  A    between atoms: C_14  and  N_15
REMARK   10  A    between atoms: N_15  and  C_16
REMARK   11  A    between atoms: N_15  and  C_17
REMARK   12  A    between atoms: C_18  and  C_19
REMARK   13  A    between atoms: C_26  and  C_27
REMARK   14  A    between atoms: C_33  and  C_34
REMARK                            x       y       z     vdW  Elec       q    Type
REMARK                         _______ _______ _______ _____ _____    ______ ____
ROOT
ATOM      1  C   UNL     1      -0.857   9.776  18.707  0.00  0.00    +0.000 A 
ATOM      2  C   UNL     1       0.243   9.128  18.109  0.00  0.00    +0.000 A 
ATOM      3  C   UNL     1       1.375   8.707  18.844  0.00  0.00    +0.000 A 
ATOM      4  C   UNL     1       1.410   8.998  20.209  0.00  0.00    +0.000 A 
ATOM      5  C   UNL     1       0.286   9.554  20.854  0.00  0.00    +0.000 A 
ATOM      6  C   UNL     1      -0.825   9.945  20.093  0.00  0.00    +0.000 A 
ENDROOT
BRANCH   1   9
ATOM      7  C   UNL     1      -4.073  11.373  17.675  0.00  0.00    +0.000 A 
ATOM      8  C   UNL     1      -3.060  10.936  18.509  0.00  0.00    +0.000 A 
ATOM      9  C   UNL     1      -2.015  10.248  17.926  0.00  0.00    +0.000 A 
ATOM     10  N   UNL     1      -1.997   9.961  16.605  0.00  0.00    +0.000 NA
ATOM     11  C   UNL     1      -3.038  10.414  15.880  0.00  0.00    +0.000 A 
ATOM     12  N   UNL     1      -4.075  11.126  16.353  0.00  0.00    +0.000 NA
BRANCH  11  13
ATOM     13  C   UNL     1      -3.013  10.152  14.463  0.00  0.00    +0.000 C 
ATOM     14  N   UNL     1      -2.991   9.948  13.317  0.00  0.00    +0.000 NA
ENDBRANCH  11  13
BRANCH   7  15
ATOM     15  C   UNL     1      -5.164  12.249  18.236  0.00  0.00    +0.000 C 
BRANCH  15  17
ATOM     16  C   UNL     1      -7.356  13.348  17.654  0.00  0.00    +0.000 C 
ATOM     17  C   UNL     1      -6.095  12.704  17.110  0.00  0.00    +0.000 C 
ENDBRANCH  15  17
ENDBRANCH   7  15
ENDBRANCH   1   9
BRANCH   5  18
ATOM     18  C   UNL     1       0.197   9.681  22.356  0.00  0.00    +0.000 C 
ATOM     19  F   UNL     1      -0.767   8.898  22.913  0.00  0.00    +0.000 F 
ATOM     20  F   UNL     1       1.359   9.359  22.984  0.00  0.00    +0.000 F 
ATOM     21  F   UNL     1      -0.096  10.956  22.735  0.00  0.00    +0.000 F 
ENDBRANCH   5  18
BRANCH   3  22
ATOM     22  C   UNL     1       2.446   7.998  18.059  0.00  0.00    +0.000 C 
ATOM     23  O   UNL     1       2.826   8.596  17.047  0.00  0.00    +0.000 OA
ATOM     24  N   UNL     1       2.944   6.719  18.368  0.00  0.00    +0.000 N 
BRANCH  24  25
ATOM     25  C   UNL     1       2.581   5.866  19.510  0.00  0.00    +0.000 C 
BRANCH  25  26
ATOM     26  C   UNL     1       2.388   4.374  19.157  0.00  0.00    +0.000 C 
BRANCH  26  27
ATOM     27  N   UNL     1       1.149   3.750  19.665  0.00  0.00    +0.000 NA
ATOM     28  C   UNL     1       0.694   2.619  18.854  0.00  0.00    +0.000 C 
ATOM     29  C   UNL     1       1.363   3.302  21.048  0.00  0.00    +0.000 C 
ENDBRANCH  26  27
ENDBRANCH  25  26
ENDBRANCH  24  25
BRANCH  24  30
ATOM     30  C   UNL     1       3.883   6.112  17.407  0.00  0.00    +0.000 C 
BRANCH  30  31
ATOM     31  C   UNL     1       5.348   6.208  17.792  0.00  0.00    +0.000 A 
ATOM     32  C   UNL     1       6.193   7.154  17.191  0.00  0.00    +0.000 A 
ATOM     33  C   UNL     1       7.507   7.334  17.644  0.00  0.00    +0.000 A 
ATOM     34  C   UNL     1       7.993   6.569  18.701  0.00  0.00    +0.000 A 
ATOM     35  C   UNL     1       7.172   5.616  19.297  0.00  0.00    +0.000 A 
ATOM     36  C   UNL     1       5.858   5.439  18.848  0.00  0.00    +0.000 A 
ENDBRANCH  30  31
ENDBRANCH  24  30
ENDBRANCH   3  22
TORSDOF 11
ENDMDL
MODEL 3
REMARK VINA RESULT:      -8.2      0.408      1.276
REMARK  Name = 
REMARK  14 active torsions:
REMARK  status: ('A' for Active; 'I' for Inactive)
REMARK    1  A    between atoms: C_1  and  C_2
REMARK    2  A    between atoms: C_2  and  C_3
REMARK    3  A    between atoms: C_3  and  C_4
REMARK    4  A    between atoms: C_6  and  C_7
REMARK    5  A    between atoms: C_9  and  C_10
REMARK    6  A    between atoms: N_12  and  C_13
REMARK    7  A    between atoms: N_12  and  C_18
REMARK    8  A    between atoms: C_13  and  C_14
REMARK    9  A    between atoms: C_14  and  N_15
REMARK   10  A    between atoms: N_15  and  C_16
REMARK   11  A    between atoms: N_15  and  C_17
REMARK   12  A    between atoms: C_18  and  C_19
REMARK   13  A    between atoms: C_26  and  C_27
REMARK   14  A    between atoms: C_33  and  C_34
REMARK                            x       y       z     vdW  Elec       q    Type
REMARK                         _______ _______ _______ _____ _____    ______ ____
ROOT
ATOM      1  C   UNL     1      -0.886   9.869  18.740  0.00  0.00    +0.000 A 
ATOM      2  C   UNL     1       0.203   9.209  18.135  0.00  0.00    +0.000 A 
ATOM      3  C   UNL     1       1.337   8.781  18.862  0.00  0.00    +0.000 A 
ATOM      4  C   UNL     1       1.387   9.077  20.226  0.00  0.00    +0.000 A 
ATOM      5  C   UNL     1       0.274   9.645  20.878  0.00  0.00    +0.000 A 
ATOM      6  C   UNL     1      -0.841  10.043  20.125  0.00  0.00    +0.000 A 
ENDROOT
BRANCH   1   9
ATOM      7  C   UNL     1      -4.076  11.523  17.720  0.00  0.00    +0.000 A 
ATOM      8  C   UNL     1      -3.059  11.085  18.547  0.00  0.00    +0.000 A 
ATOM      9  C   UNL     1      -2.046  10.348  17.967  0.00  0.00    +0.000 A 
ATOM     10  N   UNL     1      -2.064  10.018  16.657  0.00  0.00    +0.000 NA
ATOM     11  C   UNL     1      -3.107  10.476  15.938  0.00  0.00    +0.000 A 
ATOM     12  N   UNL     1      -4.113  11.233  16.407  0.00  0.00    +0.000 NA
BRANCH  11  13
ATOM     13  C   UNL     1      -3.119  10.168  14.530  0.00  0.00    +0.000 C 
ATOM     14  N   UNL     1      -3.125   9.925  13.391  0.00  0.00    +0.000 NA
ENDBRANCH  11  13
BRANCH   7  15
ATOM     15  C   UNL     1      -5.131  12.447  18.274  0.00  0.00    +0.000 C 
BRANCH  15  17
ATOM     16  C   UNL     1      -6.051  12.176  20.605  0.00  0.00    +0.000 C 
ATOM     17  C   UNL     1      -6.085  11.664  19.178  0.00  0.00    +0.000 C 
ENDBRANCH  15  17
ENDBRANCH   7  15
ENDBRANCH   1   9
BRANCH   5  18
ATOM     18  C   UNL     1       0.199   9.779  22.380  0.00  0.00    +0.000 C 
ATOM     19  F   UNL     1       1.351   9.437  23.016  0.00  0.00    +0.000 F 
ATOM     20  F   UNL     1      -0.099  11.043  22.784  0.00  0.00    +0.000 F 
ATOM     21  F   UNL     1      -0.769   8.977  22.908  0.00  0.00    +0.000 F 
ENDBRANCH   5  18
BRANCH   3  22
ATOM     22  C   UNL     1       2.396   8.059  18.071  0.00  0.00    +0.000 C 
ATOM     23  O   UNL     1       2.800   8.668  17.074  0.00  0.00    +0.000 OA
ATOM     24  N   UNL     1       2.856   6.761  18.357  0.00  0.00    +0.000 N 
BRANCH  24  25
ATOM     25  C   UNL     1       2.460   5.895  19.478  0.00  0.00    +0.000 C 
BRANCH  25  26
ATOM     26  C   UNL     1       1.979   4.487  19.058  0.00  0.00    +0.000 C 
BRANCH  26  27
ATOM     27  N   UNL     1       2.430   3.373  19.917  0.00  0.00    +0.000 NA
ATOM     28  C   UNL     1       1.479   3.037  20.978  0.00  0.00    +0.000 C 
ATOM     29  C   UNL     1       2.673   2.186  19.087  0.00  0.00    +0.000 C 
ENDBRANCH  26  27
ENDBRANCH  25  26
ENDBRANCH  24  25
BRANCH  24  30
ATOM     30  C   UNL     1       3.787   6.149  17.390  0.00  0.00    +0.000 C 
BRANCH  30  31
ATOM     31  C   UNL     1       5.249   6.190  17.793  0.00  0.00    +0.000 A 
ATOM     32  C   UNL     1       6.136   7.103  17.202  0.00  0.00    +0.000 A 
ATOM     33  C   UNL     1       7.451   7.233  17.670  0.00  0.00    +0.000 A 
ATOM     34  C   UNL     1       7.895   6.451  18.732  0.00  0.00    +0.000 A 
ATOM     35  C   UNL     1       7.032   5.530  19.319  0.00  0.00    +0.000 A 
ATOM     36  C   UNL     1       5.718   5.402  18.855  0.00  0.00    +0.000 A 
ENDBRANCH  30  31
ENDBRANCH  24  30
ENDBRANCH   3  22
TORSDOF 11
ENDMDL
MODEL 4
REMARK VINA RESULT:      -8.1      3.863      6.162
REMARK  Name = 
REMARK  14 active torsions:
REMARK  status: ('A' for Active; 'I' for Inactive)
REMARK    1  A    between atoms: C_1  and  C_2
REMARK    2  A    between atoms: C_2  and  C_3
REMARK    3  A    between atoms: C_3  and  C_4
REMARK    4  A    between atoms: C_6  and  C_7
REMARK    5  A    between atoms: C_9  and  C_10
REMARK    6  A    between atoms: N_12  and  C_13
REMARK    7  A    between atoms: N_12  and  C_18
REMARK    8  A    between atoms: C_13  and  C_14
REMARK    9  A    between atoms: C_14  and  N_15
REMARK   10  A    between atoms: N_15  and  C_16
REMARK   11  A    between atoms: N_15  and  C_17
REMARK   12  A    between atoms: C_18  and  C_19
REMARK   13  A    between atoms: C_26  and  C_27
REMARK   14  A    between atoms: C_33  and  C_34
REMARK                            x       y       z     vdW  Elec       q    Type
REMARK                         _______ _______ _______ _____ _____    ______ ____
ROOT
ATOM      1  C   UNL     1       2.315   7.162  18.817  0.00  0.00    +0.000 A 
ATOM      2  C   UNL     1       3.367   7.173  17.878  0.00  0.00    +0.000 A 
ATOM      3  C   UNL     1       3.944   5.991  17.362  0.00  0.00    +0.000 A 
ATOM      4  C   UNL     1       3.475   4.770  17.851  0.00  0.00    +0.000 A 
ATOM      5  C   UNL     1       2.360   4.722  18.712  0.00  0.00    +0.000 A 
ATOM      6  C   UNL     1       1.804   5.917  19.191  0.00  0.00    +0.000 A 
ENDROOT
BRANCH   1   9
ATOM      7  C   UNL     1       0.916  10.602  19.223  0.00  0.00    +0.000 A 
ATOM      8  C   UNL     1       1.493   9.510  18.601  0.00  0.00    +0.000 A 
ATOM      9  C   UNL     1       1.747   8.400  19.380  0.00  0.00    +0.000 A 
ATOM     10  N   UNL     1       1.494   8.386  20.708  0.00  0.00    +0.000 NA
ATOM     11  C   UNL     1       0.948   9.504  21.225  0.00  0.00    +0.000 A 
ATOM     12  N   UNL     1       0.630  10.614  20.538  0.00  0.00    +0.000 NA
BRANCH  11  13
ATOM     13  C   UNL     1       0.634   9.491  22.632  0.00  0.00    +0.000 C 
ATOM     14  N   UNL     1       0.386   9.485  23.769  0.00  0.00    +0.000 NA
ENDBRANCH  11  13
BRANCH   7  15
ATOM     15  C   UNL     1       0.490  11.785  18.392  0.00  0.00    +0.000 C 
BRANCH  15  17
ATOM     16  C   UNL     1      -1.771  10.856  17.776  0.00  0.00    +0.000 C 
ATOM     17  C   UNL     1      -1.026  11.969  18.488  0.00  0.00    +0.000 C 
ENDBRANCH  15  17
ENDBRANCH   7  15
ENDBRANCH   1   9
BRANCH   5  18
ATOM     18  C   UNL     1       1.684   3.425  19.088  0.00  0.00    +0.000 C 
ATOM     19  F   UNL     1       0.604   3.589  19.899  0.00  0.00    +0.000 F 
ATOM     20  F   UNL     1       1.246   2.725  18.008  0.00  0.00    +0.000 F 
ATOM     21  F   UNL     1       2.530   2.594  19.759  0.00  0.00    +0.000 F 
ENDBRANCH   5  18
BRANCH   3  22
ATOM     22  C   UNL     1       5.034   6.179  16.341  0.00  0.00    +0.000 C 
ATOM     23  O   UNL     1       4.815   7.066  15.509  0.00  0.00    +0.000 OA
ATOM     24  N   UNL     1       6.187   5.378  16.252  0.00  0.00    +0.000 N 
BRANCH  24  25
ATOM     25  C   UNL     1       6.582   4.272  17.137  0.00  0.00    +0.000 C 
BRANCH  25  26
ATOM     26  C   UNL     1       7.917   4.497  17.884  0.00  0.00    +0.000 C 
BRANCH  26  27
ATOM     27  N   UNL     1       7.868   5.452  19.010  0.00  0.00    +0.000 NA
ATOM     28  C   UNL     1       8.083   6.842  18.602  0.00  0.00    +0.000 C 
ATOM     29  C   UNL     1       6.568   5.340  19.686  0.00  0.00    +0.000 C 
ENDBRANCH  26  27
ENDBRANCH  25  26
ENDBRANCH  24  25
BRANCH  24  30
ATOM     30  C   UNL     1       7.078   5.606  15.098  0.00  0.00    +0.000 C 
BRANCH  30  31
ATOM     31  C   UNL     1       6.719   4.827  13.847  0.00  0.00    +0.000 A 
ATOM     32  C   UNL     1       7.576   4.809  12.736  0.00  0.00    +0.000 A 
ATOM     33  C   UNL     1       7.311   3.981  11.637  0.00  0.00    +0.000 A 
ATOM     34  C   UNL     1       6.184   3.164  11.633  0.00  0.00    +0.000 A 
ATOM     35  C   UNL     1       5.315   3.182  12.721  0.00  0.00    +0.000 A 
ATOM     36  C   UNL     1       5.582   4.005  13.820  0.00  0.00    +0.000 A 
ENDBRANCH  30  31
ENDBRANCH  24  30
ENDBRANCH   3  22
TORSDOF 11
ENDMDL
MODEL 5
REMARK VINA RESULT:      -7.8      4.247      6.372
REMARK  Name = 
REMARK  14 active torsions:
REMARK  status: ('A' for Active; 'I' for Inactive)
REMARK    1  A    between atoms: C_1  and  C_2
REMARK    2  A    between atoms: C_2  and  C_3
REMARK    3  A    between atoms: C_3  and  C_4
REMARK    4  A    between atoms: C_6  and  C_7
REMARK    5  A    between atoms: C_9  and  C_10
REMARK    6  A    between atoms: N_12  and  C_13
REMARK    7  A    between atoms: N_12  and  C_18
REMARK    8  A    between atoms: C_13  and  C_14
REMARK    9  A    between atoms: C_14  and  N_15
REMARK   10  A    between atoms: N_15  and  C_16
REMARK   11  A    between atoms: N_15  and  C_17
REMARK   12  A    between atoms: C_18  and  C_19
REMARK   13  A    between atoms: C_26  and  C_27
REMARK   14  A    between atoms: C_33  and  C_34
REMARK                            x       y       z     vdW  Elec       q    Type
REMARK                         _______ _______ _______ _____ _____    ______ ____
ROOT
ATOM      1  C   UNL     1       2.365   7.278  18.829  0.00  0.00    +0.000 A 
ATOM      2  C   UNL     1       3.394   7.247  17.865  0.00  0.00    +0.000 A 
ATOM      3  C   UNL     1       3.910   6.043  17.335  0.00  0.00    +0.000 A 
ATOM      4  C   UNL     1       3.404   4.841  17.835  0.00  0.00    +0.000 A 
ATOM      5  C   UNL     1       2.308   4.837  18.722  0.00  0.00    +0.000 A 
ATOM      6  C   UNL     1       1.812   6.054  19.215  0.00  0.00    +0.000 A 
ENDROOT
BRANCH   1   9
ATOM      7  C   UNL     1       1.267  10.817  19.299  0.00  0.00    +0.000 A 
ATOM      8  C   UNL     1       1.801   9.705  18.674  0.00  0.00    +0.000 A 
ATOM      9  C   UNL     1       1.860   8.536  19.405  0.00  0.00    +0.000 A 
ATOM     10  N   UNL     1       1.465   8.481  20.697  0.00  0.00    +0.000 NA
ATOM     11  C   UNL     1       0.976   9.621  21.222  0.00  0.00    +0.000 A 
ATOM     12  N   UNL     1       0.842  10.791  20.575  0.00  0.00    +0.000 NA
BRANCH  11  13
ATOM     13  C   UNL     1       0.511   9.568  22.585  0.00  0.00    +0.000 C 
ATOM     14  N   UNL     1       0.134   9.533  23.686  0.00  0.00    +0.000 NA
ENDBRANCH  11  13
BRANCH   7  15
ATOM     15  C   UNL     1       1.051  12.078  18.503  0.00  0.00    +0.000 C 
BRANCH  15  17
ATOM     16  C   UNL     1       2.447  14.102  17.948  0.00  0.00    +0.000 C 
ATOM     17  C   UNL     1       1.936  13.199  19.053  0.00  0.00    +0.000 C 
ENDBRANCH  15  17
ENDBRANCH   7  15
ENDBRANCH   1   9
BRANCH   5  18
ATOM     18  C   UNL     1       1.589   3.568  19.114  0.00  0.00    +0.000 C 
ATOM     19  F   UNL     1       0.488   3.782  19.883  0.00  0.00    +0.000 F 
ATOM     20  F   UNL     1       1.171   2.846  18.041  0.00  0.00    +0.000 F 
ATOM     21  F   UNL     1       2.393   2.739  19.837  0.00  0.00    +0.000 F 
ENDBRANCH   5  18
BRANCH   3  22
ATOM     22  C   UNL     1       4.983   6.188  16.289  0.00  0.00    +0.000 C 
ATOM     23  O   UNL     1       4.762   7.059  15.440  0.00  0.00    +0.000 OA
ATOM     24  N   UNL     1       6.120   5.365  16.196  0.00  0.00    +0.000 N 
BRANCH  24  25
ATOM     25  C   UNL     1       6.514   4.273  17.100  0.00  0.00    +0.000 C 
BRANCH  25  26
ATOM     26  C   UNL     1       7.865   4.495  17.818  0.00  0.00    +0.000 C 
BRANCH  26  27
ATOM     27  N   UNL     1       7.832   5.417  18.973  0.00  0.00    +0.000 NA
ATOM     28  C   UNL     1       8.068   6.814  18.606  0.00  0.00    +0.000 C 
ATOM     29  C   UNL     1       6.533   5.304  19.649  0.00  0.00    +0.000 C 
ENDBRANCH  26  27
ENDBRANCH  25  26
ENDBRANCH  24  25
BRANCH  24  30
ATOM     30  C   UNL     1       6.991   5.551  15.021  0.00  0.00    +0.000 C 
BRANCH  30  31
ATOM     31  C   UNL     1       6.675   4.651  13.840  0.00  0.00    +0.000 A 
ATOM     32  C   UNL     1       5.463   3.948  13.772  0.00  0.00    +0.000 A 
ATOM     33  C   UNL     1       5.113   3.228  12.621  0.00  0.00    +0.000 A 
ATOM     34  C   UNL     1       5.972   3.201  11.526  0.00  0.00    +0.000 A 
ATOM     35  C   UNL     1       7.185   3.881  11.584  0.00  0.00    +0.000 A 
ATOM     36  C   UNL     1       7.533   4.603  12.731  0.00  0.00    +0.000 A 
ENDBRANCH  30  31
ENDBRANCH  24  30
ENDBRANCH   3  22
TORSDOF 11
ENDMDL
MODEL 6
REMARK VINA RESULT:      -7.8      0.964      2.519
REMARK  Name = 
REMARK  14 active torsions:
REMARK  status: ('A' for Active; 'I' for Inactive)
REMARK    1  A    between atoms: C_1  and  C_2
REMARK    2  A    between atoms: C_2  and  C_3
REMARK    3  A    between atoms: C_3  and  C_4
REMARK    4  A    between atoms: C_6  and  C_7
REMARK    5  A    between atoms: C_9  and  C_10
REMARK    6  A    between atoms: N_12  and  C_13
REMARK    7  A    between atoms: N_12  and  C_18
REMARK    8  A    between atoms: C_13  and  C_14
REMARK    9  A    between atoms: C_14  and  N_15
REMARK   10  A    between atoms: N_15  and  C_16
REMARK   11  A    between atoms: N_15  and  C_17
REMARK   12  A    between atoms: C_18  and  C_19
REMARK   13  A    between atoms: C_26  and  C_27
REMARK   14  A    between atoms: C_33  and  C_34
REMARK                            x       y       z     vdW  Elec       q    Type
REMARK                         _______ _______ _______ _____ _____    ______ ____
ROOT
ATOM      1  C   UNL     1      -0.743   9.750  18.470  0.00  0.00    +0.000 A 
ATOM      2  C   UNL     1       0.412   9.112  17.973  0.00  0.00    +0.000 A 
ATOM      3  C   UNL     1       1.475   8.697  18.807  0.00  0.00    +0.000 A 
ATOM      4  C   UNL     1       1.385   8.984  20.171  0.00  0.00    +0.000 A 
ATOM      5  C   UNL     1       0.203   9.529  20.712  0.00  0.00    +0.000 A 
ATOM      6  C   UNL     1      -0.838   9.914  19.854  0.00  0.00    +0.000 A 
ENDROOT
BRANCH   1   9
ATOM      7  C   UNL     1      -2.906  10.428  15.502  0.00  0.00    +0.000 A 
ATOM      8  C   UNL     1      -1.815   9.989  16.227  0.00  0.00    +0.000 A 
ATOM      9  C   UNL     1      -1.828  10.215  17.589  0.00  0.00    +0.000 A 
ATOM     10  N   UNL     1      -2.837  10.884  18.192  0.00  0.00    +0.000 NA
ATOM     11  C   UNL     1      -3.847  11.288  17.397  0.00  0.00    +0.000 A 
ATOM     12  N   UNL     1      -3.938  11.076  16.073  0.00  0.00    +0.000 NA
BRANCH  11  13
ATOM     13  C   UNL     1      -4.950  11.966  18.030  0.00  0.00    +0.000 C 
ATOM     14  N   UNL     1      -5.838  12.510  18.549  0.00  0.00    +0.000 NA
ENDBRANCH  11  13
BRANCH   7  15
ATOM     15  C   UNL     1      -3.006  10.083  14.038  0.00  0.00    +0.000 C 
BRANCH  15  17
ATOM     16  C   UNL     1      -4.658   9.781  12.158  0.00  0.00    +0.000 C 
ATOM     17  C   UNL     1      -4.469   9.834  13.661  0.00  0.00    +0.000 C 
ENDBRANCH  15  17
ENDBRANCH   7  15
ENDBRANCH   1   9
BRANCH   5  18
ATOM     18  C   UNL     1      -0.024   9.650  22.200  0.00  0.00    +0.000 C 
ATOM     19  F   UNL     1       1.090   9.410  22.942  0.00  0.00    +0.000 F 
ATOM     20  F   UNL     1      -0.469  10.881  22.568  0.00  0.00    +0.000 F 
ATOM     21  F   UNL     1      -0.961   8.763  22.639  0.00  0.00    +0.000 F 
ENDBRANCH   5  18
BRANCH   3  22
ATOM     22  C   UNL     1       2.619   7.999  18.120  0.00  0.00    +0.000 C 
ATOM     23  O   UNL     1       3.362   8.742  17.471  0.00  0.00    +0.000 OA
ATOM     24  N   UNL     1       2.817   6.606  18.122  0.00  0.00    +0.000 N 
BRANCH  24  25
ATOM     25  C   UNL     1       2.015   5.586  18.815  0.00  0.00    +0.000 C 
BRANCH  25  26
ATOM     26  C   UNL     1       2.455   5.308  20.271  0.00  0.00    +0.000 C 
BRANCH  26  27
ATOM     27  N   UNL     1       2.863   3.918  20.561  0.00  0.00    +0.000 NA
ATOM     28  C   UNL     1       2.076   3.292  21.625  0.00  0.00    +0.000 C 
ATOM     29  C   UNL     1       2.754   3.113  19.337  0.00  0.00    +0.000 C 
ENDBRANCH  26  27
ENDBRANCH  25  26
ENDBRANCH  24  25
BRANCH  24  30
ATOM     30  C   UNL     1       3.902   6.080  17.274  0.00  0.00    +0.000 C 
BRANCH  30  31
ATOM     31  C   UNL     1       5.299   6.236  17.847  0.00  0.00    +0.000 A 
ATOM     32  C   UNL     1       5.727   5.452  18.929  0.00  0.00    +0.000 A 
ATOM     33  C   UNL     1       7.057   5.499  19.369  0.00  0.00    +0.000 A 
ATOM     34  C   UNL     1       7.974   6.334  18.734  0.00  0.00    +0.000 A 
ATOM     35  C   UNL     1       7.560   7.129  17.670  0.00  0.00    +0.000 A 
ATOM     36  C   UNL     1       6.233   7.079  17.227  0.00  0.00    +0.000 A 
ENDBRANCH  30  31
ENDBRANCH  24  30
ENDBRANCH   3  22
TORSDOF 11
ENDMDL
MODEL 7
REMARK VINA RESULT:      -7.8      1.078      2.567
REMARK  Name = 
REMARK  14 active torsions:
REMARK  status: ('A' for Active; 'I' for Inactive)
REMARK    1  A    between atoms: C_1  and  C_2
REMARK    2  A    between atoms: C_2  and  C_3
REMARK    3  A    between atoms: C_3  and  C_4
REMARK    4  A    between atoms: C_6  and  C_7
REMARK    5  A    between atoms: C_9  and  C_10
REMARK    6  A    between atoms: N_12  and  C_13
REMARK    7  A    between atoms: N_12  and  C_18
REMARK    8  A    between atoms: C_13  and  C_14
REMARK    9  A    between atoms: C_14  and  N_15
REMARK   10  A    between atoms: N_15  and  C_16
REMARK   11  A    between atoms: N_15  and  C_17
REMARK   12  A    between atoms: C_18  and  C_19
REMARK   13  A    between atoms: C_26  and  C_27
REMARK   14  A    between atoms: C_33  and  C_34
REMARK                            x       y       z     vdW  Elec       q    Type
REMARK                         _______ _______ _______ _____ _____    ______ ____
ROOT
ATOM      1  C   UNL     1      -1.048  10.091  18.958  0.00  0.00    +0.000 A 
ATOM      2  C   UNL     1       0.030   9.425  18.338  0.00  0.00    +0.000 A 
ATOM      3  C   UNL     1       1.148   8.944  19.057  0.00  0.00    +0.000 A 
ATOM      4  C   UNL     1       1.194   9.191  20.431  0.00  0.00    +0.000 A 
ATOM      5  C   UNL     1       0.090   9.763  21.095  0.00  0.00    +0.000 A 
ATOM      6  C   UNL     1      -1.008  10.215  20.349  0.00  0.00    +0.000 A 
ENDROOT
BRANCH   1   9
ATOM      7  C   UNL     1      -3.479  10.891  16.238  0.00  0.00    +0.000 A 
ATOM      8  C   UNL     1      -2.347  10.381  16.845  0.00  0.00    +0.000 A 
ATOM      9  C   UNL     1      -2.189  10.625  18.195  0.00  0.00    +0.000 A 
ATOM     10  N   UNL     1      -3.072  11.373  18.893  0.00  0.00    +0.000 NA
ATOM     11  C   UNL     1      -4.134  11.841  18.208  0.00  0.00    +0.000 A 
ATOM     12  N   UNL     1      -4.390  11.620  16.908  0.00  0.00    +0.000 NA
BRANCH  11  13
ATOM     13  C   UNL     1      -5.106  12.606  18.948  0.00  0.00    +0.000 C 
ATOM     14  N   UNL     1      -5.891  13.218  19.550  0.00  0.00    +0.000 NA
ENDBRANCH  11  13
BRANCH   7  15
ATOM     15  C   UNL     1      -3.769  10.537  14.802  0.00  0.00    +0.000 C 
BRANCH  15  17
ATOM     16  C   UNL     1      -2.741   9.528  12.733  0.00  0.00    +0.000 C 
ATOM     17  C   UNL     1      -2.633   9.681  14.238  0.00  0.00    +0.000 C 
ENDBRANCH  15  17
ENDBRANCH   7  15
ENDBRANCH   1   9
BRANCH   5  18
ATOM     18  C   UNL     1       0.007   9.846  22.600  0.00  0.00    +0.000 C 
ATOM     19  F   UNL     1      -0.960   9.053  23.137  0.00  0.00    +0.000 F 
ATOM     20  F   UNL     1       1.169   9.499  23.214  0.00  0.00    +0.000 F 
ATOM     21  F   UNL     1      -0.277  11.111  23.018  0.00  0.00    +0.000 F 
ENDBRANCH   5  18
BRANCH   3  22
ATOM     22  C   UNL     1       2.194   8.225  18.248  0.00  0.00    +0.000 C 
ATOM     23  O   UNL     1       2.580   8.834  17.244  0.00  0.00    +0.000 OA
ATOM     24  N   UNL     1       2.663   6.928  18.527  0.00  0.00    +0.000 N 
BRANCH  24  25
ATOM     25  C   UNL     1       2.289   6.062  19.655  0.00  0.00    +0.000 C 
BRANCH  25  26
ATOM     26  C   UNL     1       1.972   4.601  19.261  0.00  0.00    +0.000 C 
BRANCH  26  27
ATOM     27  N   UNL     1       2.536   3.562  20.147  0.00  0.00    +0.000 NA
ATOM     28  C   UNL     1       1.596   3.097  21.169  0.00  0.00    +0.000 C 
ATOM     29  C   UNL     1       2.977   2.419  19.336  0.00  0.00    +0.000 C 
ENDBRANCH  26  27
ENDBRANCH  25  26
ENDBRANCH  24  25
BRANCH  24  30
ATOM     30  C   UNL     1       3.578   6.318  17.545  0.00  0.00    +0.000 C 
BRANCH  30  31
ATOM     31  C   UNL     1       5.045   6.343  17.932  0.00  0.00    +0.000 A 
ATOM     32  C   UNL     1       5.543   5.494  18.933  0.00  0.00    +0.000 A 
ATOM     33  C   UNL     1       6.918   5.420  19.194  0.00  0.00    +0.000 A 
ATOM     34  C   UNL     1       7.812   6.197  18.460  0.00  0.00    +0.000 A 
ATOM     35  C   UNL     1       7.331   7.055  17.475  0.00  0.00    +0.000 A 
ATOM     36  C   UNL     1       5.959   7.126  17.211  0.00  0.00    +0.000 A 
ENDBRANCH  30  31
ENDBRANCH  24  30
ENDBRANCH   3  22
TORSDOF 11
ENDMDL
MODEL 8
REMARK VINA RESULT:      -7.7      4.418      6.591
REMARK  Name = 
REMARK  14 active torsions:
REMARK  status: ('A' for Active; 'I' for Inactive)
REMARK    1  A    between atoms: C_1  and  C_2
REMARK    2  A    between atoms: C_2  and  C_3
REMARK    3  A    between atoms: C_3  and  C_4
REMARK    4  A    between atoms: C_6  and  C_7
REMARK    5  A    between atoms: C_9  and  C_10
REMARK    6  A    between atoms: N_12  and  C_13
REMARK    7  A    between atoms: N_12  and  C_18
REMARK    8  A    between atoms: C_13  and  C_14
REMARK    9  A    between atoms: C_14  and  N_15
REMARK   10  A    between atoms: N_15  and  C_16
REMARK   11  A    between atoms: N_15  and  C_17
REMARK   12  A    between atoms: C_18  and  C_19
REMARK   13  A    between atoms: C_26  and  C_27
REMARK   14  A    between atoms: C_33  and  C_34
REMARK                            x       y       z     vdW  Elec       q    Type
REMARK                         _______ _______ _______ _____ _____    ______ ____
ROOT
ATOM      1  C   UNL     1       0.398  12.505  18.533  0.00  0.00    +0.000 A 
ATOM      2  C   UNL     1       1.197  11.345  18.607  0.00  0.00    +0.000 A 
ATOM      3  C   UNL     1       0.666  10.041  18.482  0.00  0.00    +0.000 A 
ATOM      4  C   UNL     1      -0.717   9.912  18.330  0.00  0.00    +0.000 A 
ATOM      5  C   UNL     1      -1.528  11.051  18.151  0.00  0.00    +0.000 A 
ATOM      6  C   UNL     1      -0.962  12.330  18.266  0.00  0.00    +0.000 A 
ENDROOT
BRANCH   1   9
ATOM      7  C   UNL     1       2.618  15.507  18.423  0.00  0.00    +0.000 A 
ATOM      8  C   UNL     1       2.214  14.196  18.251  0.00  0.00    +0.000 A 
ATOM      9  C   UNL     1       0.954  13.859  18.704  0.00  0.00    +0.000 A 
ATOM     10  N   UNL     1       0.160  14.751  19.338  0.00  0.00    +0.000 NA
ATOM     11  C   UNL     1       0.650  15.998  19.473  0.00  0.00    +0.000 A 
ATOM     12  N   UNL     1       1.844  16.426  19.028  0.00  0.00    +0.000 NA
BRANCH  11  13
ATOM     13  C   UNL     1      -0.201  16.972  20.109  0.00  0.00    +0.000 C 
ATOM     14  N   UNL     1      -0.884  17.758  20.630  0.00  0.00    +0.000 NA
ENDBRANCH  11  13
BRANCH   7  15
ATOM     15  C   UNL     1       3.924  15.961  17.823  0.00  0.00    +0.000 C 
BRANCH  15  17
ATOM     16  C   UNL     1       6.098  15.205  18.849  0.00  0.00    +0.000 C 
ATOM     17  C   UNL     1       4.958  14.837  17.919  0.00  0.00    +0.000 C 
ENDBRANCH  15  17
ENDBRANCH   7  15
ENDBRANCH   1   9
BRANCH   5  18
ATOM     18  C   UNL     1      -2.985  10.953  17.764  0.00  0.00    +0.000 C 
ATOM     19  F   UNL     1      -3.262  11.491  16.546  0.00  0.00    +0.000 F 
ATOM     20  F   UNL     1      -3.436   9.672  17.727  0.00  0.00    +0.000 F 
ATOM     21  F   UNL     1      -3.785  11.609  18.651  0.00  0.00    +0.000 F 
ENDBRANCH   5  18
BRANCH   3  22
ATOM     22  C   UNL     1       1.661   8.914  18.551  0.00  0.00    +0.000 C 
ATOM     23  O   UNL     1       2.276   8.703  17.500  0.00  0.00    +0.000 OA
ATOM     24  N   UNL     1       1.849   8.086  19.672  0.00  0.00    +0.000 N 
BRANCH  24  25
ATOM     25  C   UNL     1       1.182   8.181  20.980  0.00  0.00    +0.000 C 
BRANCH  25  26
ATOM     26  C   UNL     1       1.547   9.445  21.792  0.00  0.00    +0.000 C 
BRANCH  26  27
ATOM     27  N   UNL     1       0.446  10.041  22.579  0.00  0.00    +0.000 NA
ATOM     28  C   UNL     1      -0.143  11.223  21.949  0.00  0.00    +0.000 C 
ATOM     29  C   UNL     1      -0.600   9.031  22.793  0.00  0.00    +0.000 C 
ENDBRANCH  26  27
ENDBRANCH  25  26
ENDBRANCH  24  25
BRANCH  24  30
ATOM     30  C   UNL     1       2.757   6.935  19.515  0.00  0.00    +0.000 C 
BRANCH  30  31
ATOM     31  C   UNL     1       2.070   5.592  19.346  0.00  0.00    +0.000 A 
ATOM     32  C   UNL     1       1.984   4.978  18.088  0.00  0.00    +0.000 A 
ATOM     33  C   UNL     1       1.473   3.680  17.955  0.00  0.00    +0.000 A 
ATOM     34  C   UNL     1       1.037   2.982  19.079  0.00  0.00    +0.000 A 
ATOM     35  C   UNL     1       1.102   3.585  20.332  0.00  0.00    +0.000 A 
ATOM     36  C   UNL     1       1.616   4.879  20.466  0.00  0.00    +0.000 A 
ENDBRANCH  30  31
ENDBRANCH  24  30
ENDBRANCH   3  22
TORSDOF 11
ENDMDL
MODEL 9
REMARK VINA RESULT:      -7.6      4.501      6.376
REMARK  Name = 
REMARK  14 active torsions:
REMARK  status: ('A' for Active; 'I' for Inactive)
REMARK    1  A    between atoms: C_1  and  C_2
REMARK    2  A    between atoms: C_2  and  C_3
REMARK    3  A    between atoms: C_3  and  C_4
REMARK    4  A    between atoms: C_6  and  C_7
REMARK    5  A    between atoms: C_9  and  C_10
REMARK    6  A    between atoms: N_12  and  C_13
REMARK    7  A    between atoms: N_12  and  C_18
REMARK    8  A    between atoms: C_13  and  C_14
REMARK    9  A    between atoms: C_14  and  N_15
REMARK   10  A    between atoms: N_15  and  C_16
REMARK   11  A    between atoms: N_15  and  C_17
REMARK   12  A    between atoms: C_18  and  C_19
REMARK   13  A    between atoms: C_26  and  C_27
REMARK   14  A    between atoms: C_33  and  C_34
REMARK                            x       y       z     vdW  Elec       q    Type
REMARK                         _______ _______ _______ _____ _____    ______ ____
ROOT
ATOM      1  C   UNL     1       0.188  12.382  18.747  0.00  0.00    +0.000 A 
ATOM      2  C   UNL     1       1.059  11.273  18.793  0.00  0.00    +0.000 A 
ATOM      3  C   UNL     1       0.680   9.984  18.354  0.00  0.00    +0.000 A 
ATOM      4  C   UNL     1      -0.632   9.808  17.909  0.00  0.00    +0.000 A 
ATOM      5  C   UNL     1      -1.494  10.913  17.757  0.00  0.00    +0.000 A 
ATOM      6  C   UNL     1      -1.076  12.181  18.189  0.00  0.00    +0.000 A 
ENDROOT
BRANCH   1   9
ATOM      7  C   UNL     1       1.430  15.897  18.978  0.00  0.00    +0.000 A 
ATOM      8  C   UNL     1       1.144  14.666  18.419  0.00  0.00    +0.000 A 
ATOM      9  C   UNL     1       0.579  13.713  19.244  0.00  0.00    +0.000 A 
ATOM     10  N   UNL     1       0.359  13.946  20.557  0.00  0.00    +0.000 NA
ATOM     11  C   UNL     1       0.687  15.170  21.012  0.00  0.00    +0.000 A 
ATOM     12  N   UNL     1       1.201  16.171  20.276  0.00  0.00    +0.000 NA
BRANCH  11  13
ATOM     13  C   UNL     1       0.419  15.448  22.400  0.00  0.00    +0.000 C 
ATOM     14  N   UNL     1       0.206  15.666  23.523  0.00  0.00    +0.000 NA
ENDBRANCH  11  13
BRANCH   7  15
ATOM     15  C   UNL     1       1.916  17.015  18.092  0.00  0.00    +0.000 C 
BRANCH  15  17
ATOM     16  C   UNL     1       0.820  18.485  16.362  0.00  0.00    +0.000 C 
ATOM     17  C   UNL     1       0.765  17.977  17.790  0.00  0.00    +0.000 C 
ENDBRANCH  15  17
ENDBRANCH   7  15
ENDBRANCH   1   9
BRANCH   5  18
ATOM     18  C   UNL     1      -2.837  10.804  17.075  0.00  0.00    +0.000 C 
ATOM     19  F   UNL     1      -3.429   9.589  17.229  0.00  0.00    +0.000 F 
ATOM     20  F   UNL     1      -3.732  11.724  17.522  0.00  0.00    +0.000 F 
ATOM     21  F   UNL     1      -2.734  10.999  15.731  0.00  0.00    +0.000 F 
ENDBRANCH   5  18
BRANCH   3  22
ATOM     22  C   UNL     1       1.740   8.920  18.438  0.00  0.00    +0.000 C 
ATOM     23  O   UNL     1       2.469   8.838  17.444  0.00  0.00    +0.000 OA
ATOM     24  N   UNL     1       1.874   8.013  19.505  0.00  0.00    +0.000 N 
BRANCH  24  25
ATOM     25  C   UNL     1       1.077   7.955  20.740  0.00  0.00    +0.000 C 
BRANCH  25  26
ATOM     26  C   UNL     1       1.077   9.265  21.561  0.00  0.00    +0.000 C 
BRANCH  26  27
ATOM     27  N   UNL     1      -0.160   9.544  22.321  0.00  0.00    +0.000 NA
ATOM     28  C   UNL     1       0.023   9.482  23.772  0.00  0.00    +0.000 C 
ATOM     29  C   UNL     1      -0.668  10.872  21.951  0.00  0.00    +0.000 C 
ENDBRANCH  26  27
ENDBRANCH  25  26
ENDBRANCH  24  25
BRANCH  24  30
ATOM     30  C   UNL     1       2.874   6.939  19.354  0.00  0.00    +0.000 C 
BRANCH  30  31
ATOM     31  C   UNL     1       2.302   5.533  19.303  0.00  0.00    +0.000 A 
ATOM     32  C   UNL     1       1.925   4.865  20.478  0.00  0.00    +0.000 A 
ATOM     33  C   UNL     1       1.272   3.626  20.422  0.00  0.00    +0.000 A 
ATOM     34  C   UNL     1       0.992   3.039  19.190  0.00  0.00    +0.000 A 
ATOM     35  C   UNL     1       1.374   3.683  18.017  0.00  0.00    +0.000 A 
ATOM     36  C   UNL     1       2.022   4.922  18.073  0.00  0.00    +0.000 A 
ENDBRANCH  30  31
ENDBRANCH  24  30
ENDBRANCH   3  22
TORSDOF 11
ENDMDL
