MODEL 1
REMARK VINA RESULT:      -8.0      0.000      0.000
REMARK  Name = 
REMARK  6 active torsions:
REMARK  status: ('A' for Active; 'I' for Inactive)
REMARK    1  A    between atoms: C_1  and  N_2
REMARK    2  A    between atoms: N_2  and  C_3
REMARK    3  A    between atoms: N_2  and  C_11
REMARK    4  A    between atoms: C_3  and  C_4
REMARK    5  A    between atoms: C_5  and  C_6
REMARK    6  A    between atoms: C_11  and  C_12
REMARK                            x       y       z     vdW  Elec       q    Type
REMARK                         _______ _______ _______ _____ _____    ______ ____
ROOT
ATOM      1  C   UNL     1       6.534   4.851  17.509  0.00  0.00    +0.000 C 
ENDROOT
BRANCH   1   2
ATOM      2  C   UNL     1       5.154   4.311  17.813  0.00  0.00    +0.000 A 
ATOM      3  C   UNL     1       4.287   3.975  16.760  0.00  0.00    +0.000 A 
ATOM      4  C   UNL     1       2.989   3.530  17.023  0.00  0.00    +0.000 A 
ATOM      5  C   UNL     1       2.539   3.415  18.343  0.00  0.00    +0.000 A 
ATOM      6  C   UNL     1       3.418   3.704  19.409  0.00  0.00    +0.000 A 
ATOM      7  C   UNL     1       4.716   4.161  19.140  0.00  0.00    +0.000 A 
ATOM      8  O   UNL     1       3.011   3.538  20.693  0.00  0.00    +0.000 OA
ATOM      9  C   UNL     1       1.872   2.816  21.017  0.00  0.00    +0.000 C 
ATOM     10  C   UNL     1       0.735   3.250  20.098  0.00  0.00    +0.000 C 
ATOM     11  C   UNL     1       1.122   2.973  18.634  0.00  0.00    +0.000 C 
ENDBRANCH   1   2
BRANCH   1  13
ATOM     12  C   UNL     1       7.992   5.790  19.217  0.00  0.00    +0.000 C 
ATOM     13  N   UNL     1       6.823   6.040  18.343  0.00  0.00    +0.000 NA
BRANCH  13  14
ATOM     14  C   UNL     1       7.049   7.235  17.498  0.00  0.00    +0.000 C 
BRANCH  14  15
ATOM     15  C   UNL     1       8.293   7.974  17.931  0.00  0.00    +0.000 C 
ATOM     16  C   UNL     1       8.258   9.282  18.218  0.00  0.00    +0.000 C 
BRANCH  16  17
ATOM     17  C   UNL     1       9.473  10.024  18.721  0.00  0.00    +0.000 C 
ATOM     18  C   UNL     1       9.775  11.283  17.911  0.00  0.00    +0.000 C 
ATOM     19  C   UNL     1      10.825  11.955  18.781  0.00  0.00    +0.000 C 
ATOM     20  C   UNL     1      10.354  11.710  20.224  0.00  0.00    +0.000 C 
ATOM     21  C   UNL     1       9.270  10.628  20.111  0.00  0.00    +0.000 C 
ENDBRANCH  16  17
ENDBRANCH  14  15
ENDBRANCH  13  14
ENDBRANCH   1  13
TORSDOF 5
ENDMDL
MODEL 2
REMARK VINA RESULT:      -7.8      1.448      1.716
REMARK  Name = 
REMARK  6 active torsions:
REMARK  status: ('A' for Active; 'I' for Inactive)
REMARK    1  A    between atoms: C_1  and  N_2
REMARK    2  A    between atoms: N_2  and  C_3
REMARK    3  A    between atoms: N_2  and  C_11
REMARK    4  A    between atoms: C_3  and  C_4
REMARK    5  A    between atoms: C_5  and  C_6
REMARK    6  A    between atoms: C_11  and  C_12
REMARK                            x       y       z     vdW  Elec       q    Type
REMARK                         _______ _______ _______ _____ _____    ______ ____
ROOT
ATOM      1  C   UNL     1       5.302   6.383  16.921  0.00  0.00    +0.000 C 
ENDROOT
BRANCH   1   2
ATOM      2  C   UNL     1       4.187   5.861  17.799  0.00  0.00    +0.000 A 
ATOM      3  C   UNL     1       3.416   6.759  18.557  0.00  0.00    +0.000 A 
ATOM      4  C   UNL     1       2.420   6.289  19.416  0.00  0.00    +0.000 A 
ATOM      5  C   UNL     1       2.180   4.915  19.531  0.00  0.00    +0.000 A 
ATOM      6  C   UNL     1       2.916   4.009  18.738  0.00  0.00    +0.000 A 
ATOM      7  C   UNL     1       3.922   4.484  17.885  0.00  0.00    +0.000 A 
ATOM      8  O   UNL     1       2.650   2.679  18.796  0.00  0.00    +0.000 OA
ATOM      9  C   UNL     1       1.490   2.185  19.376  0.00  0.00    +0.000 C 
ATOM     10  C   UNL     1       1.274   2.881  20.716  0.00  0.00    +0.000 C 
ATOM     11  C   UNL     1       1.131   4.398  20.490  0.00  0.00    +0.000 C 
ENDBRANCH   1   2
BRANCH   1  13
ATOM     12  C   UNL     1       7.496   5.738  17.757  0.00  0.00    +0.000 C 
ATOM     13  N   UNL     1       6.462   6.797  17.744  0.00  0.00    +0.000 NA
BRANCH  13  14
ATOM     14  C   UNL     1       7.029   8.074  17.252  0.00  0.00    +0.000 C 
BRANCH  14  15
ATOM     15  C   UNL     1       8.198   8.508  18.104  0.00  0.00    +0.000 C 
ATOM     16  C   UNL     1       8.480   9.805  18.285  0.00  0.00    +0.000 C 
BRANCH  16  17
ATOM     17  C   UNL     1       9.600  10.262  19.189  0.00  0.00    +0.000 C 
ATOM     18  C   UNL     1      10.538  11.258  18.511  0.00  0.00    +0.000 C 
ATOM     19  C   UNL     1      11.360  11.747  19.693  0.00  0.00    +0.000 C 
ATOM     20  C   UNL     1      10.354  11.858  20.851  0.00  0.00    +0.000 C 
ATOM     21  C   UNL     1       9.109  11.099  20.369  0.00  0.00    +0.000 C 
ENDBRANCH  16  17
ENDBRANCH  14  15
ENDBRANCH  13  14
ENDBRANCH   1  13
TORSDOF 5
ENDMDL
MODEL 3
REMARK VINA RESULT:      -7.5      3.911      4.769
REMARK  Name = 
REMARK  6 active torsions:
REMARK  status: ('A' for Active; 'I' for Inactive)
REMARK    1  A    between atoms: C_1  and  N_2
REMARK    2  A    between atoms: N_2  and  C_3
REMARK    3  A    between atoms: N_2  and  C_11
REMARK    4  A    between atoms: C_3  and  C_4
REMARK    5  A    between atoms: C_5  and  C_6
REMARK    6  A    between atoms: C_11  and  C_12
REMARK                            x       y       z     vdW  Elec       q    Type
REMARK                         _______ _______ _______ _____ _____    ______ ____
ROOT
ATOM      1  C   UNL     1       5.011   3.946  16.293  0.00  0.00    +0.000 C 
ENDROOT
BRANCH   1   2
ATOM      2  C   UNL     1       3.920   3.676  17.305  0.00  0.00    +0.000 A 
ATOM      3  C   UNL     1       2.573   3.834  16.940  0.00  0.00    +0.000 A 
ATOM      4  C   UNL     1       1.556   3.643  17.879  0.00  0.00    +0.000 A 
ATOM      5  C   UNL     1       1.871   3.294  19.197  0.00  0.00    +0.000 A 
ATOM      6  C   UNL     1       3.219   3.086  19.561  0.00  0.00    +0.000 A 
ATOM      7  C   UNL     1       4.237   3.288  18.618  0.00  0.00    +0.000 A 
ATOM      8  O   UNL     1       3.532   2.687  20.820  0.00  0.00    +0.000 OA
ATOM      9  C   UNL     1       2.576   2.186  21.692  0.00  0.00    +0.000 C 
ATOM     10  C   UNL     1       1.352   3.093  21.657  0.00  0.00    +0.000 C 
ATOM     11  C   UNL     1       0.778   3.127  20.228  0.00  0.00    +0.000 C 
ENDBRANCH   1   2
BRANCH   1  13
ATOM     12  C   UNL     1       7.283   4.813  16.189  0.00  0.00    +0.000 C 
ATOM     13  N   UNL     1       5.944   4.981  16.796  0.00  0.00    +0.000 NA
BRANCH  13  14
ATOM     14  C   UNL     1       5.417   6.340  16.531  0.00  0.00    +0.000 C 
BRANCH  14  15
ATOM     15  C   UNL     1       4.379   6.724  17.557  0.00  0.00    +0.000 C 
ATOM     16  C   UNL     1       3.230   7.310  17.195  0.00  0.00    +0.000 C 
BRANCH  16  17
ATOM     17  C   UNL     1       2.148   7.639  18.196  0.00  0.00    +0.000 C 
ATOM     18  C   UNL     1       2.516   7.229  19.621  0.00  0.00    +0.000 C 
ATOM     19  C   UNL     1       1.420   7.913  20.422  0.00  0.00    +0.000 C 
ATOM     20  C   UNL     1       1.217   9.271  19.728  0.00  0.00    +0.000 C 
ATOM     21  C   UNL     1       1.944   9.142  18.382  0.00  0.00    +0.000 C 
ENDBRANCH  16  17
ENDBRANCH  14  15
ENDBRANCH  13  14
ENDBRANCH   1  13
TORSDOF 5
ENDMDL
MODEL 4
REMARK VINA RESULT:      -7.5      1.025      1.380
REMARK  Name = 
REMARK  6 active torsions:
REMARK  status: ('A' for Active; 'I' for Inactive)
REMARK    1  A    between atoms: C_1  and  N_2
REMARK    2  A    between atoms: N_2  and  C_3
REMARK    3  A    between atoms: N_2  and  C_11
REMARK    4  A    between atoms: C_3  and  C_4
REMARK    5  A    between atoms: C_5  and  C_6
REMARK    6  A    between atoms: C_11  and  C_12
REMARK                            x       y       z     vdW  Elec       q    Type
REMARK                         _______ _______ _______ _____ _____    ______ ____
ROOT
ATOM      1  C   UNL     1       5.552   6.735  17.070  0.00  0.00    +0.000 C 
ENDROOT
BRANCH   1   2
ATOM      2  C   UNL     1       4.650   5.665  17.645  0.00  0.00    +0.000 A 
ATOM      3  C   UNL     1       4.356   4.519  16.888  0.00  0.00    +0.000 A 
ATOM      4  C   UNL     1       3.479   3.549  17.380  0.00  0.00    +0.000 A 
ATOM      5  C   UNL     1       2.884   3.711  18.636  0.00  0.00    +0.000 A 
ATOM      6  C   UNL     1       3.211   4.835  19.424  0.00  0.00    +0.000 A 
ATOM      7  C   UNL     1       4.082   5.811  18.922  0.00  0.00    +0.000 A 
ATOM      8  O   UNL     1       2.686   4.971  20.668  0.00  0.00    +0.000 OA
ATOM      9  C   UNL     1       2.074   3.916  21.329  0.00  0.00    +0.000 C 
ATOM     10  C   UNL     1       1.116   3.221  20.367  0.00  0.00    +0.000 C 
ATOM     11  C   UNL     1       1.903   2.684  19.157  0.00  0.00    +0.000 C 
ENDBRANCH   1   2
BRANCH   1  13
ATOM     12  C   UNL     1       7.305   5.661  18.373  0.00  0.00    +0.000 C 
ATOM     13  N   UNL     1       6.724   6.955  17.949  0.00  0.00    +0.000 NA
BRANCH  13  14
ATOM     14  C   UNL     1       7.744   7.787  17.269  0.00  0.00    +0.000 C 
BRANCH  14  15
ATOM     15  C   UNL     1       8.358   8.777  18.230  0.00  0.00    +0.000 C 
ATOM     16  C   UNL     1       8.665  10.022  17.841  0.00  0.00    +0.000 C 
BRANCH  16  17
ATOM     17  C   UNL     1       9.213  11.049  18.802  0.00  0.00    +0.000 C 
ATOM     18  C   UNL     1       9.234  10.556  20.247  0.00  0.00    +0.000 C 
ATOM     19  C   UNL     1      10.067  11.635  20.920  0.00  0.00    +0.000 C 
ATOM     20  C   UNL     1      11.167  11.974  19.900  0.00  0.00    +0.000 C 
ATOM     21  C   UNL     1      10.698  11.337  18.584  0.00  0.00    +0.000 C 
ENDBRANCH  16  17
ENDBRANCH  14  15
ENDBRANCH  13  14
ENDBRANCH   1  13
TORSDOF 5
ENDMDL
MODEL 5
REMARK VINA RESULT:      -7.4      2.843      5.632
REMARK  Name = 
REMARK  6 active torsions:
REMARK  status: ('A' for Active; 'I' for Inactive)
REMARK    1  A    between atoms: C_1  and  N_2
REMARK    2  A    between atoms: N_2  and  C_3
REMARK    3  A    between atoms: N_2  and  C_11
REMARK    4  A    between atoms: C_3  and  C_4
REMARK    5  A    between atoms: C_5  and  C_6
REMARK    6  A    between atoms: C_11  and  C_12
REMARK                            x       y       z     vdW  Elec       q    Type
REMARK                         _______ _______ _______ _____ _____    ______ ____
ROOT
ATOM      1  C   UNL     1       6.533   4.334  17.961  0.00  0.00    +0.000 C 
ENDROOT
BRANCH   1   2
ATOM      2  C   UNL     1       5.111   3.898  18.235  0.00  0.00    +0.000 A 
ATOM      3  C   UNL     1       4.285   3.497  17.171  0.00  0.00    +0.000 A 
ATOM      4  C   UNL     1       2.952   3.146  17.400  0.00  0.00    +0.000 A 
ATOM      5  C   UNL     1       2.425   3.192  18.696  0.00  0.00    +0.000 A 
ATOM      6  C   UNL     1       3.259   3.547  19.777  0.00  0.00    +0.000 A 
ATOM      7  C   UNL     1       4.593   3.908  19.542  0.00  0.00    +0.000 A 
ATOM      8  O   UNL     1       2.775   3.536  21.045  0.00  0.00    +0.000 OA
ATOM      9  C   UNL     1       1.581   2.909  21.371  0.00  0.00    +0.000 C 
ATOM     10  C   UNL     1       0.522   3.301  20.347  0.00  0.00    +0.000 C 
ATOM     11  C   UNL     1       0.972   2.854  18.944  0.00  0.00    +0.000 C 
ENDBRANCH   1   2
BRANCH   1  13
ATOM     12  C   UNL     1       7.740   6.262  18.827  0.00  0.00    +0.000 C 
ATOM     13  N   UNL     1       6.632   5.811  17.956  0.00  0.00    +0.000 NA
BRANCH  13  14
ATOM     14  C   UNL     1       6.812   6.323  16.577  0.00  0.00    +0.000 C 
BRANCH  14  15
ATOM     15  C   UNL     1       6.988   5.186  15.600  0.00  0.00    +0.000 C 
ATOM     16  C   UNL     1       6.048   4.903  14.687  0.00  0.00    +0.000 C 
BRANCH  16  17
ATOM     17  C   UNL     1       6.235   3.818  13.655  0.00  0.00    +0.000 C 
ATOM     18  C   UNL     1       4.995   3.606  12.789  0.00  0.00    +0.000 C 
ATOM     19  C   UNL     1       5.544   2.700  11.698  0.00  0.00    +0.000 C 
ATOM     20  C   UNL     1       6.956   3.238  11.415  0.00  0.00    +0.000 C 
ATOM     21  C   UNL     1       7.265   4.182  12.586  0.00  0.00    +0.000 C 
ENDBRANCH  16  17
ENDBRANCH  14  15
ENDBRANCH  13  14
ENDBRANCH   1  13
TORSDOF 5
ENDMDL
MODEL 6
REMARK VINA RESULT:      -7.2      2.933      4.626
REMARK  Name = 
REMARK  6 active torsions:
REMARK  status: ('A' for Active; 'I' for Inactive)
REMARK    1  A    between atoms: C_1  and  N_2
REMARK    2  A    between atoms: N_2  and  C_3
REMARK    3  A    between atoms: N_2  and  C_11
REMARK    4  A    between atoms: C_3  and  C_4
REMARK    5  A    between atoms: C_5  and  C_6
REMARK    6  A    between atoms: C_11  and  C_12
REMARK                            x       y       z     vdW  Elec       q    Type
REMARK                         _______ _______ _______ _____ _____    ______ ____
ROOT
ATOM      1  C   UNL     1       6.361   4.711  17.814  0.00  0.00    +0.000 C 
ENDROOT
BRANCH   1   2
ATOM      2  C   UNL     1       4.993   4.133  18.101  0.00  0.00    +0.000 A 
ATOM      3  C   UNL     1       4.213   3.627  17.047  0.00  0.00    +0.000 A 
ATOM      4  C   UNL     1       2.925   3.141  17.286  0.00  0.00    +0.000 A 
ATOM      5  C   UNL     1       2.397   3.156  18.582  0.00  0.00    +0.000 A 
ATOM      6  C   UNL     1       3.190   3.619  19.654  0.00  0.00    +0.000 A 
ATOM      7  C   UNL     1       4.478   4.114  19.408  0.00  0.00    +0.000 A 
ATOM      8  O   UNL     1       2.710   3.581  20.923  0.00  0.00    +0.000 OA
ATOM      9  C   UNL     1       1.589   2.838  21.265  0.00  0.00    +0.000 C 
ATOM     10  C   UNL     1       0.494   3.096  20.236  0.00  0.00    +0.000 C 
ATOM     11  C   UNL     1       0.988   2.671  18.841  0.00  0.00    +0.000 C 
ENDBRANCH   1   2
BRANCH   1  13
ATOM     12  C   UNL     1       7.715   6.734  17.835  0.00  0.00    +0.000 C 
ATOM     13  N   UNL     1       6.350   6.182  17.983  0.00  0.00    +0.000 NA
BRANCH  13  14
ATOM     14  C   UNL     1       5.423   6.818  17.018  0.00  0.00    +0.000 C 
BRANCH  14  15
ATOM     15  C   UNL     1       4.316   7.550  17.736  0.00  0.00    +0.000 C 
ATOM     16  C   UNL     1       3.031   7.373  17.396  0.00  0.00    +0.000 C 
BRANCH  16  17
ATOM     17  C   UNL     1       1.905   8.040  18.147  0.00  0.00    +0.000 C 
ATOM     18  C   UNL     1       2.089   7.987  19.662  0.00  0.00    +0.000 C 
ATOM     19  C   UNL     1       1.006   8.946  20.130  0.00  0.00    +0.000 C 
ATOM     20  C   UNL     1       1.022  10.087  19.100  0.00  0.00    +0.000 C 
ATOM     21  C   UNL     1       1.853   9.551  17.925  0.00  0.00    +0.000 C 
ENDBRANCH  16  17
ENDBRANCH  14  15
ENDBRANCH  13  14
ENDBRANCH   1  13
TORSDOF 5
ENDMDL
MODEL 7
REMARK VINA RESULT:      -7.2      3.246      6.703
REMARK  Name = 
REMARK  6 active torsions:
REMARK  status: ('A' for Active; 'I' for Inactive)
REMARK    1  A    between atoms: C_1  and  N_2
REMARK    2  A    between atoms: N_2  and  C_3
REMARK    3  A    between atoms: N_2  and  C_11
REMARK    4  A    between atoms: C_3  and  C_4
REMARK    5  A    between atoms: C_5  and  C_6
REMARK    6  A    between atoms: C_11  and  C_12
REMARK                            x       y       z     vdW  Elec       q    Type
REMARK                         _______ _______ _______ _____ _____    ______ ____
ROOT
ATOM      1  C   UNL     1       2.811   2.654  18.671  0.00  0.00    +0.000 C 
ENDROOT
BRANCH   1   2
ATOM      2  C   UNL     1       3.724   3.819  18.360  0.00  0.00    +0.000 A 
ATOM      3  C   UNL     1       3.303   4.818  17.466  0.00  0.00    +0.000 A 
ATOM      4  C   UNL     1       4.156   5.870  17.124  0.00  0.00    +0.000 A 
ATOM      5  C   UNL     1       5.443   5.939  17.670  0.00  0.00    +0.000 A 
ATOM      6  C   UNL     1       5.857   4.967  18.605  0.00  0.00    +0.000 A 
ATOM      7  C   UNL     1       5.002   3.907  18.938  0.00  0.00    +0.000 A 
ATOM      8  O   UNL     1       7.080   5.058  19.187  0.00  0.00    +0.000 OA
ATOM      9  C   UNL     1       7.836   6.220  19.134  0.00  0.00    +0.000 C 
ATOM     10  C   UNL     1       7.832   6.747  17.703  0.00  0.00    +0.000 C 
ATOM     11  C   UNL     1       6.386   7.052  17.272  0.00  0.00    +0.000 C 
ENDBRANCH   1   2
BRANCH   1  13
ATOM     12  C   UNL     1       0.466   2.074  18.971  0.00  0.00    +0.000 C 
ATOM     13  N   UNL     1       1.484   3.138  19.118  0.00  0.00    +0.000 NA
BRANCH  13  14
ATOM     14  C   UNL     1       1.541   3.616  20.519  0.00  0.00    +0.000 C 
BRANCH  14  15
ATOM     15  C   UNL     1       1.282   5.102  20.591  0.00  0.00    +0.000 C 
ATOM     16  C   UNL     1       2.275   5.988  20.431  0.00  0.00    +0.000 C 
BRANCH  16  17
ATOM     17  C   UNL     1       2.027   7.477  20.429  0.00  0.00    +0.000 C 
ATOM     18  C   UNL     1       1.762   8.031  19.031  0.00  0.00    +0.000 C 
ATOM     19  C   UNL     1       1.279   9.436  19.352  0.00  0.00    +0.000 C 
ATOM     20  C   UNL     1       0.409   9.274  20.610  0.00  0.00    +0.000 C 
ATOM     21  C   UNL     1       0.728   7.866  21.135  0.00  0.00    +0.000 C 
ENDBRANCH  16  17
ENDBRANCH  14  15
ENDBRANCH  13  14
ENDBRANCH   1  13
TORSDOF 5
ENDMDL
MODEL 8
REMARK VINA RESULT:      -7.2      2.743      5.702
REMARK  Name = 
REMARK  6 active torsions:
REMARK  status: ('A' for Active; 'I' for Inactive)
REMARK    1  A    between atoms: C_1  and  N_2
REMARK    2  A    between atoms: N_2  and  C_3
REMARK    3  A    between atoms: N_2  and  C_11
REMARK    4  A    between atoms: C_3  and  C_4
REMARK    5  A    between atoms: C_5  and  C_6
REMARK    6  A    between atoms: C_11  and  C_12
REMARK                            x       y       z     vdW  Elec       q    Type
REMARK                         _______ _______ _______ _____ _____    ______ ____
ROOT
ATOM      1  C   UNL     1       6.331   5.669  18.519  0.00  0.00    +0.000 C 
ENDROOT
BRANCH   1   2
ATOM      2  C   UNL     1       4.934   5.258  18.930  0.00  0.00    +0.000 A 
ATOM      3  C   UNL     1       4.026   6.228  19.385  0.00  0.00    +0.000 A 
ATOM      4  C   UNL     1       2.751   5.858  19.822  0.00  0.00    +0.000 A 
ATOM      5  C   UNL     1       2.367   4.512  19.812  0.00  0.00    +0.000 A 
ATOM      6  C   UNL     1       3.256   3.536  19.312  0.00  0.00    +0.000 A 
ATOM      7  C   UNL     1       4.537   3.911  18.884  0.00  0.00    +0.000 A 
ATOM      8  O   UNL     1       2.871   2.237  19.240  0.00  0.00    +0.000 OA
ATOM      9  C   UNL     1       1.542   1.854  19.358  0.00  0.00    +0.000 C 
ATOM     10  C   UNL     1       0.924   2.579  20.548  0.00  0.00    +0.000 C 
ATOM     11  C   UNL     1       1.004   4.100  20.322  0.00  0.00    +0.000 C 
ENDBRANCH   1   2
BRANCH   1  13
ATOM     12  C   UNL     1       7.658   7.307  17.302  0.00  0.00    +0.000 C 
ATOM     13  N   UNL     1       6.292   6.910  17.712  0.00  0.00    +0.000 NA
BRANCH  13  14
ATOM     14  C   UNL     1       5.419   6.741  16.527  0.00  0.00    +0.000 C 
BRANCH  14  15
ATOM     15  C   UNL     1       6.052   5.812  15.520  0.00  0.00    +0.000 C 
ATOM     16  C   UNL     1       5.380   4.764  15.024  0.00  0.00    +0.000 C 
BRANCH  16  17
ATOM     17  C   UNL     1       5.968   3.864  13.964  0.00  0.00    +0.000 C 
ATOM     18  C   UNL     1       4.970   3.518  12.862  0.00  0.00    +0.000 C 
ATOM     19  C   UNL     1       5.878   2.871  11.828  0.00  0.00    +0.000 C 
ATOM     20  C   UNL     1       7.169   3.704  11.864  0.00  0.00    +0.000 C 
ATOM     21  C   UNL     1       7.064   4.545  13.145  0.00  0.00    +0.000 C 
ENDBRANCH  16  17
ENDBRANCH  14  15
ENDBRANCH  13  14
ENDBRANCH   1  13
TORSDOF 5
ENDMDL
MODEL 9
REMARK VINA RESULT:      -7.1      4.294      7.293
REMARK  Name = 
REMARK  6 active torsions:
REMARK  status: ('A' for Active; 'I' for Inactive)
REMARK    1  A    between atoms: C_1  and  N_2
REMARK    2  A    between atoms: N_2  and  C_3
REMARK    3  A    between atoms: N_2  and  C_11
REMARK    4  A    between atoms: C_3  and  C_4
REMARK    5  A    between atoms: C_5  and  C_6
REMARK    6  A    between atoms: C_11  and  C_12
REMARK                            x       y       z     vdW  Elec       q    Type
REMARK                         _______ _______ _______ _____ _____    ______ ____
ROOT
ATOM      1  C   UNL     1       4.610   5.994  17.936  0.00  0.00    +0.000 C 
ENDROOT
BRANCH   1   2
ATOM      2  C   UNL     1       3.503   6.953  18.312  0.00  0.00    +0.000 A 
ATOM      3  C   UNL     1       3.117   7.961  17.414  0.00  0.00    +0.000 A 
ATOM      4  C   UNL     1       2.135   8.891  17.768  0.00  0.00    +0.000 A 
ATOM      5  C   UNL     1       1.527   8.826  19.027  0.00  0.00    +0.000 A 
ATOM      6  C   UNL     1       1.875   7.788  19.918  0.00  0.00    +0.000 A 
ATOM      7  C   UNL     1       2.867   6.864  19.562  0.00  0.00    +0.000 A 
ATOM      8  O   UNL     1       1.248   7.680  21.117  0.00  0.00    +0.000 OA
ATOM      9  C   UNL     1       0.072   8.361  21.397  0.00  0.00    +0.000 C 
ATOM     10  C   UNL     1       0.223   9.811  20.948  0.00  0.00    +0.000 C 
ATOM     11  C   UNL     1       0.495   9.854  19.433  0.00  0.00    +0.000 C 
ENDBRANCH   1   2
BRANCH   1  13
ATOM     12  C   UNL     1       5.688   5.904  15.755  0.00  0.00    +0.000 C 
ATOM     13  N   UNL     1       4.470   5.565  16.525  0.00  0.00    +0.000 NA
BRANCH  13  14
ATOM     14  C   UNL     1       4.185   4.114  16.440  0.00  0.00    +0.000 C 
BRANCH  14  15
ATOM     15  C   UNL     1       3.801   3.561  17.791  0.00  0.00    +0.000 C 
ATOM     16  C   UNL     1       2.539   3.198  18.058  0.00  0.00    +0.000 C 
BRANCH  16  17
ATOM     17  C   UNL     1       2.147   2.577  19.377  0.00  0.00    +0.000 C 
ATOM     18  C   UNL     1       3.244   2.688  20.433  0.00  0.00    +0.000 C 
ATOM     19  C   UNL     1       2.498   2.260  21.687  0.00  0.00    +0.000 C 
ATOM     20  C   UNL     1       1.099   2.882  21.542  0.00  0.00    +0.000 C 
ATOM     21  C   UNL     1       1.011   3.325  20.074  0.00  0.00    +0.000 C 
ENDBRANCH  16  17
ENDBRANCH  14  15
ENDBRANCH  13  14
ENDBRANCH   1  13
TORSDOF 5
ENDMDL
