MODEL 1
REMARK VINA RESULT:      -7.5      0.000      0.000
REMARK  Name = 
REMARK  3 active torsions:
REMARK  status: ('A' for Active; 'I' for Inactive)
REMARK    1  A    between atoms: C_1  and  C_2
REMARK    2  A    between atoms: C_8  and  C_9
REMARK    3  A    between atoms: C_15  and  C_16
REMARK                            x       y       z     vdW  Elec       q    Type
REMARK                         _______ _______ _______ _____ _____    ______ ____
ROOT
ATOM      1  C   UNL     1       3.551   5.681  18.988  0.00  0.00    +0.000 C 
ATOM      2  O   UNL     1       4.541   5.568  19.713  0.00  0.00    +0.000 OA
ATOM      3  N   UNL     1       3.191   4.656  18.112  0.00  0.00    +0.000 N 
ATOM      4  C   UNL     1       1.975   4.536  17.302  0.00  0.00    +0.000 C 
ATOM      5  C   UNL     1       1.130   3.302  17.665  0.00  0.00    +0.000 C 
ATOM      6  O   UNL     1       1.898   2.101  17.804  0.00  0.00    +0.000 OA
ATOM      7  C   UNL     1       3.015   2.255  18.722  0.00  0.00    +0.000 C 
ATOM      8  C   UNL     1       3.929   3.389  18.223  0.00  0.00    +0.000 C 
ENDROOT
BRANCH   1  16
ATOM      9  C   UNL     1       0.155   9.011  22.260  0.00  0.00    +0.000 C 
ATOM     10  C   UNL     1       0.533   9.321  20.833  0.00  0.00    +0.000 A 
ATOM     11  C   UNL     1       0.077  10.458  20.251  0.00  0.00    +0.000 A 
ATOM     12  C   UNL     1       0.408  10.830  18.884  0.00  0.00    +0.000 A 
ATOM     13  C   UNL     1       1.223  10.036  18.173  0.00  0.00    +0.000 A 
ATOM     14  N   UNL     1       1.717   8.875  18.759  0.00  0.00    +0.000 N 
ATOM     15  C   UNL     1       2.588   7.955  18.218  0.00  0.00    +0.000 A 
ATOM     16  C   UNL     1       2.743   6.897  19.099  0.00  0.00    +0.000 A 
ATOM     17  C   UNL     1       2.005   7.263  20.271  0.00  0.00    +0.000 A 
ATOM     18  C   UNL     1       1.385   8.471  20.043  0.00  0.00    +0.000 A 
ENDBRANCH   1  16
BRANCH   7  19
ATOM     19  C   UNL     1       2.611   2.420  20.163  0.00  0.00    +0.000 A 
ATOM     20  N   UNL     1       1.296   2.508  20.573  0.00  0.00    +0.000 NA
ATOM     21  C   UNL     1       1.421   2.670  21.865  0.00  0.00    +0.000 A 
ATOM     22  O   UNL     1       2.708   2.674  22.295  0.00  0.00    +0.000 OA
ATOM     23  N   UNL     1       3.506   2.505  21.158  0.00  0.00    +0.000 NA
ENDBRANCH   7  19
TORSDOF 2
ENDMDL
MODEL 2
REMARK VINA RESULT:      -7.5      2.115      3.481
REMARK  Name = 
REMARK  3 active torsions:
REMARK  status: ('A' for Active; 'I' for Inactive)
REMARK    1  A    between atoms: C_1  and  C_2
REMARK    2  A    between atoms: C_8  and  C_9
REMARK    3  A    between atoms: C_15  and  C_16
REMARK                            x       y       z     vdW  Elec       q    Type
REMARK                         _______ _______ _______ _____ _____    ______ ____
ROOT
ATOM      1  C   UNL     1       3.318   6.783  17.594  0.00  0.00    +0.000 C 
ATOM      2  O   UNL     1       4.103   7.381  16.856  0.00  0.00    +0.000 OA
ATOM      3  N   UNL     1       3.209   5.392  17.537  0.00  0.00    +0.000 N 
ATOM      4  C   UNL     1       2.466   4.500  18.432  0.00  0.00    +0.000 C 
ATOM      5  C   UNL     1       3.371   3.500  19.171  0.00  0.00    +0.000 C 
ATOM      6  O   UNL     1       4.332   2.860  18.323  0.00  0.00    +0.000 OA
ATOM      7  C   UNL     1       5.123   3.810  17.559  0.00  0.00    +0.000 C 
ATOM      8  C   UNL     1       4.184   4.677  16.701  0.00  0.00    +0.000 C 
ENDROOT
BRANCH   1  16
ATOM      9  C   UNL     1      -0.071  11.352  18.575  0.00  0.00    +0.000 C 
ATOM     10  C   UNL     1       0.339  10.353  19.629  0.00  0.00    +0.000 A 
ATOM     11  C   UNL     1      -0.112  10.496  20.899  0.00  0.00    +0.000 A 
ATOM     12  C   UNL     1       0.231   9.568  21.966  0.00  0.00    +0.000 A 
ATOM     13  C   UNL     1       1.000   8.507  21.681  0.00  0.00    +0.000 A 
ATOM     14  N   UNL     1       1.458   8.332  20.380  0.00  0.00    +0.000 N 
ATOM     15  C   UNL     1       2.219   7.299  19.878  0.00  0.00    +0.000 A 
ATOM     16  C   UNL     1       2.536   7.562  18.556  0.00  0.00    +0.000 A 
ATOM     17  C   UNL     1       1.834   8.767  18.226  0.00  0.00    +0.000 A 
ATOM     18  C   UNL     1       1.185   9.222  19.352  0.00  0.00    +0.000 A 
ENDBRANCH   1  16
BRANCH   7  19
ATOM     19  C   UNL     1       6.078   4.627  18.389  0.00  0.00    +0.000 A 
ATOM     20  N   UNL     1       7.091   5.389  17.844  0.00  0.00    +0.000 NA
ATOM     21  C   UNL     1       7.665   5.885  18.909  0.00  0.00    +0.000 A 
ATOM     22  O   UNL     1       7.081   5.506  20.074  0.00  0.00    +0.000 OA
ATOM     23  N   UNL     1       6.018   4.666  19.729  0.00  0.00    +0.000 NA
ENDBRANCH   7  19
TORSDOF 2
ENDMDL
MODEL 3
REMARK VINA RESULT:      -7.4      2.883      4.623
REMARK  Name = 
REMARK  3 active torsions:
REMARK  status: ('A' for Active; 'I' for Inactive)
REMARK    1  A    between atoms: C_1  and  C_2
REMARK    2  A    between atoms: C_8  and  C_9
REMARK    3  A    between atoms: C_15  and  C_16
REMARK                            x       y       z     vdW  Elec       q    Type
REMARK                         _______ _______ _______ _____ _____    ______ ____
ROOT
ATOM      1  C   UNL     1       3.720   6.954  17.257  0.00  0.00    +0.000 C 
ATOM      2  O   UNL     1       4.017   7.582  16.239  0.00  0.00    +0.000 OA
ATOM      3  N   UNL     1       4.228   5.672  17.475  0.00  0.00    +0.000 N 
ATOM      4  C   UNL     1       4.125   4.844  18.681  0.00  0.00    +0.000 C 
ATOM      5  C   UNL     1       5.493   4.517  19.304  0.00  0.00    +0.000 C 
ATOM      6  O   UNL     1       6.473   4.093  18.348  0.00  0.00    +0.000 OA
ATOM      7  C   UNL     1       6.616   5.027  17.243  0.00  0.00    +0.000 C 
ATOM      8  C   UNL     1       5.256   5.190  16.539  0.00  0.00    +0.000 C 
ENDROOT
BRANCH   1  16
ATOM      9  C   UNL     1       0.025  11.218  18.474  0.00  0.00    +0.000 C 
ATOM     10  C   UNL     1       0.454  10.156  19.456  0.00  0.00    +0.000 A 
ATOM     11  C   UNL     1      -0.053  10.162  20.714  0.00  0.00    +0.000 A 
ATOM     12  C   UNL     1       0.305   9.166  21.711  0.00  0.00    +0.000 A 
ATOM     13  C   UNL     1       1.147   8.179  21.371  0.00  0.00    +0.000 A 
ATOM     14  N   UNL     1       1.664   8.145  20.081  0.00  0.00    +0.000 N 
ATOM     15  C   UNL     1       2.505   7.205  19.527  0.00  0.00    +0.000 A 
ATOM     16  C   UNL     1       2.855   7.600  18.247  0.00  0.00    +0.000 A 
ATOM     17  C   UNL     1       2.095   8.787  17.990  0.00  0.00    +0.000 A 
ATOM     18  C   UNL     1       1.376   9.104  19.121  0.00  0.00    +0.000 A 
ENDBRANCH   1  16
BRANCH   7  19
ATOM     19  C   UNL     1       7.240   6.343  17.623  0.00  0.00    +0.000 A 
ATOM     20  N   UNL     1       7.113   7.487  16.861  0.00  0.00    +0.000 NA
ATOM     21  C   UNL     1       7.822   8.350  17.542  0.00  0.00    +0.000 A 
ATOM     22  O   UNL     1       8.366   7.841  18.676  0.00  0.00    +0.000 OA
ATOM     23  N   UNL     1       7.976   6.498  18.734  0.00  0.00    +0.000 NA
ENDBRANCH   7  19
TORSDOF 2
ENDMDL
MODEL 4
REMARK VINA RESULT:      -7.1      2.686      4.457
REMARK  Name = 
REMARK  3 active torsions:
REMARK  status: ('A' for Active; 'I' for Inactive)
REMARK    1  A    between atoms: C_1  and  C_2
REMARK    2  A    between atoms: C_8  and  C_9
REMARK    3  A    between atoms: C_15  and  C_16
REMARK                            x       y       z     vdW  Elec       q    Type
REMARK                         _______ _______ _______ _____ _____    ______ ____
ROOT
ATOM      1  C   UNL     1       3.701   5.137  18.222  0.00  0.00    +0.000 C 
ATOM      2  O   UNL     1       3.114   4.298  17.537  0.00  0.00    +0.000 OA
ATOM      3  N   UNL     1       4.964   4.865  18.752  0.00  0.00    +0.000 N 
ATOM      4  C   UNL     1       5.878   5.779  19.443  0.00  0.00    +0.000 C 
ATOM      5  C   UNL     1       7.216   5.962  18.707  0.00  0.00    +0.000 C 
ATOM      6  O   UNL     1       7.798   4.731  18.260  0.00  0.00    +0.000 OA
ATOM      7  C   UNL     1       6.876   3.931  17.471  0.00  0.00    +0.000 C 
ATOM      8  C   UNL     1       5.623   3.626  18.312  0.00  0.00    +0.000 C 
ENDROOT
BRANCH   1  16
ATOM      9  C   UNL     1       0.601   8.550  21.696  0.00  0.00    +0.000 C 
ATOM     10  C   UNL     1       1.099   8.952  20.330  0.00  0.00    +0.000 A 
ATOM     11  C   UNL     1       0.834  10.195  19.859  0.00  0.00    +0.000 A 
ATOM     12  C   UNL     1       1.291  10.658  18.557  0.00  0.00    +0.000 A 
ATOM     13  C   UNL     1       2.032   9.836  17.798  0.00  0.00    +0.000 A 
ATOM     14  N   UNL     1       2.330   8.563  18.271  0.00  0.00    +0.000 N 
ATOM     15  C   UNL     1       3.099   7.591  17.670  0.00  0.00    +0.000 A 
ATOM     16  C   UNL     1       3.059   6.436  18.433  0.00  0.00    +0.000 A 
ATOM     17  C   UNL     1       2.311   6.778  19.606  0.00  0.00    +0.000 A 
ATOM     18  C   UNL     1       1.873   8.077  19.487  0.00  0.00    +0.000 A 
ENDBRANCH   1  16
BRANCH   7  19
ATOM     19  C   UNL     1       6.548   4.517  16.123  0.00  0.00    +0.000 A 
ATOM     20  N   UNL     1       5.512   4.060  15.333  0.00  0.00    +0.000 NA
ATOM     21  C   UNL     1       5.618   4.821  14.275  0.00  0.00    +0.000 A 
ATOM     22  O   UNL     1       6.627   5.726  14.348  0.00  0.00    +0.000 OA
ATOM     23  N   UNL     1       7.249   5.526  15.585  0.00  0.00    +0.000 NA
ENDBRANCH   7  19
TORSDOF 2
ENDMDL
MODEL 5
REMARK VINA RESULT:      -7.0      1.094      1.929
REMARK  Name = 
REMARK  3 active torsions:
REMARK  status: ('A' for Active; 'I' for Inactive)
REMARK    1  A    between atoms: C_1  and  C_2
REMARK    2  A    between atoms: C_8  and  C_9
REMARK    3  A    between atoms: C_15  and  C_16
REMARK                            x       y       z     vdW  Elec       q    Type
REMARK                         _______ _______ _______ _____ _____    ______ ____
ROOT
ATOM      1  C   UNL     1       3.504   5.759  18.570  0.00  0.00    +0.000 C 
ATOM      2  O   UNL     1       4.724   5.771  18.744  0.00  0.00    +0.000 OA
ATOM      3  N   UNL     1       2.911   4.785  17.763  0.00  0.00    +0.000 N 
ATOM      4  C   UNL     1       1.484   4.510  17.569  0.00  0.00    +0.000 C 
ATOM      5  C   UNL     1       1.078   3.097  18.023  0.00  0.00    +0.000 C 
ATOM      6  O   UNL     1       1.970   2.071  17.573  0.00  0.00    +0.000 OA
ATOM      7  C   UNL     1       3.356   2.346  17.913  0.00  0.00    +0.000 C 
ATOM      8  C   UNL     1       3.772   3.692  17.290  0.00  0.00    +0.000 C 
ENDROOT
BRANCH   1  16
ATOM      9  C   UNL     1       0.891  10.902  18.372  0.00  0.00    +0.000 C 
ATOM     10  C   UNL     1       0.873   9.983  19.568  0.00  0.00    +0.000 A 
ATOM     11  C   UNL     1       0.196  10.349  20.684  0.00  0.00    +0.000 A 
ATOM     12  C   UNL     1       0.125   9.511  21.871  0.00  0.00    +0.000 A 
ATOM     13  C   UNL     1       0.727   8.312  21.858  0.00  0.00    +0.000 A 
ATOM     14  N   UNL     1       1.411   7.911  20.716  0.00  0.00    +0.000 N 
ATOM     15  C   UNL     1       2.057   6.716  20.488  0.00  0.00    +0.000 A 
ATOM     16  C   UNL     1       2.692   6.764  19.258  0.00  0.00    +0.000 A 
ATOM     17  C   UNL     1       2.313   8.019  18.681  0.00  0.00    +0.000 A 
ATOM     18  C   UNL     1       1.534   8.705  19.585  0.00  0.00    +0.000 A 
ENDBRANCH   1  16
BRANCH   7  19
ATOM     19  C   UNL     1       3.658   2.265  19.385  0.00  0.00    +0.000 A 
ATOM     20  N   UNL     1       2.709   2.476  20.364  0.00  0.00    +0.000 NA
ATOM     21  C   UNL     1       3.408   2.337  21.460  0.00  0.00    +0.000 A 
ATOM     22  O   UNL     1       4.714   2.040  21.244  0.00  0.00    +0.000 OA
ATOM     23  N   UNL     1       4.884   1.989  19.856  0.00  0.00    +0.000 NA
ENDBRANCH   7  19
TORSDOF 2
ENDMDL
MODEL 6
REMARK VINA RESULT:      -6.6      3.619      7.714
REMARK  Name = 
REMARK  3 active torsions:
REMARK  status: ('A' for Active; 'I' for Inactive)
REMARK    1  A    between atoms: C_1  and  C_2
REMARK    2  A    between atoms: C_8  and  C_9
REMARK    3  A    between atoms: C_15  and  C_16
REMARK                            x       y       z     vdW  Elec       q    Type
REMARK                         _______ _______ _______ _____ _____    ______ ____
ROOT
ATOM      1  C   UNL     1       0.679   9.752  21.209  0.00  0.00    +0.000 C 
ATOM      2  O   UNL     1       1.142  10.105  22.295  0.00  0.00    +0.000 OA
ATOM      3  N   UNL     1      -0.409  10.424  20.648  0.00  0.00    +0.000 N 
ATOM      4  C   UNL     1      -0.988  10.262  19.311  0.00  0.00    +0.000 C 
ATOM      5  C   UNL     1      -0.909  11.542  18.462  0.00  0.00    +0.000 C 
ATOM      6  O   UNL     1      -1.309  12.723  19.166  0.00  0.00    +0.000 OA
ATOM      7  C   UNL     1      -0.600  12.890  20.425  0.00  0.00    +0.000 C 
ATOM      8  C   UNL     1      -0.851  11.658  21.314  0.00  0.00    +0.000 C 
ENDROOT
BRANCH   1  16
ATOM      9  C   UNL     1       1.914   4.115  21.081  0.00  0.00    +0.000 C 
ATOM     10  C   UNL     1       2.332   5.103  20.021  0.00  0.00    +0.000 A 
ATOM     11  C   UNL     1       3.033   4.673  18.943  0.00  0.00    +0.000 A 
ATOM     12  C   UNL     1       3.461   5.564  17.875  0.00  0.00    +0.000 A 
ATOM     13  C   UNL     1       3.126   6.862  17.938  0.00  0.00    +0.000 A 
ATOM     14  N   UNL     1       2.392   7.319  19.026  0.00  0.00    +0.000 N 
ATOM     15  C   UNL     1       1.920   8.592  19.258  0.00  0.00    +0.000 A 
ATOM     16  C   UNL     1       1.322   8.640  20.507  0.00  0.00    +0.000 A 
ATOM     17  C   UNL     1       1.349   7.294  20.996  0.00  0.00    +0.000 A 
ATOM     18  C   UNL     1       2.007   6.504  20.080  0.00  0.00    +0.000 A 
ENDBRANCH   1  16
BRANCH   7  19
ATOM     19  C   UNL     1       0.862  13.214  20.272  0.00  0.00    +0.000 A 
ATOM     20  N   UNL     1       1.451  13.490  19.055  0.00  0.00    +0.000 NA
ATOM     21  C   UNL     1       2.701  13.678  19.391  0.00  0.00    +0.000 A 
ATOM     22  O   UNL     1       2.935  13.558  20.722  0.00  0.00    +0.000 OA
ATOM     23  N   UNL     1       1.706  13.250  21.314  0.00  0.00    +0.000 NA
ENDBRANCH   7  19
TORSDOF 2
ENDMDL
MODEL 7
REMARK VINA RESULT:      -6.5      3.782      6.103
REMARK  Name = 
REMARK  3 active torsions:
REMARK  status: ('A' for Active; 'I' for Inactive)
REMARK    1  A    between atoms: C_1  and  C_2
REMARK    2  A    between atoms: C_8  and  C_9
REMARK    3  A    between atoms: C_15  and  C_16
REMARK                            x       y       z     vdW  Elec       q    Type
REMARK                         _______ _______ _______ _____ _____    ______ ____
ROOT
ATOM      1  C   UNL     1       3.995   6.202  17.316  0.00  0.00    +0.000 C 
ATOM      2  O   UNL     1       3.919   7.428  17.410  0.00  0.00    +0.000 OA
ATOM      3  N   UNL     1       4.701   5.613  16.265  0.00  0.00    +0.000 N 
ATOM      4  C   UNL     1       5.040   4.200  16.075  0.00  0.00    +0.000 C 
ATOM      5  C   UNL     1       6.557   3.943  16.047  0.00  0.00    +0.000 C 
ATOM      6  O   UNL     1       7.280   4.865  15.223  0.00  0.00    +0.000 OA
ATOM      7  C   UNL     1       6.994   6.252  15.552  0.00  0.00    +0.000 C 
ATOM      8  C   UNL     1       5.483   6.507  15.398  0.00  0.00    +0.000 C 
ENDROOT
BRANCH   1  16
ATOM      9  C   UNL     1       0.363   1.907  18.611  0.00  0.00    +0.000 C 
ATOM     10  C   UNL     1       1.138   2.704  19.631  0.00  0.00    +0.000 A 
ATOM     11  C   UNL     1       1.011   2.410  20.948  0.00  0.00    +0.000 A 
ATOM     12  C   UNL     1       1.735   3.126  21.988  0.00  0.00    +0.000 A 
ATOM     13  C   UNL     1       2.588   4.099  21.633  0.00  0.00    +0.000 A 
ATOM     14  N   UNL     1       2.746   4.403  20.286  0.00  0.00    +0.000 N 
ATOM     15  C   UNL     1       3.591   5.331  19.717  0.00  0.00    +0.000 A 
ATOM     16  C   UNL     1       3.364   5.383  18.352  0.00  0.00    +0.000 A 
ATOM     17  C   UNL     1       2.405   4.353  18.084  0.00  0.00    +0.000 A 
ATOM     18  C   UNL     1       2.039   3.769  19.275  0.00  0.00    +0.000 A 
ENDBRANCH   1  16
BRANCH   7  19
ATOM     19  C   UNL     1       7.527   6.692  16.889  0.00  0.00    +0.000 A 
ATOM     20  N   UNL     1       7.754   5.822  17.936  0.00  0.00    +0.000 NA
ATOM     21  C   UNL     1       8.176   6.627  18.876  0.00  0.00    +0.000 A 
ATOM     22  O   UNL     1       8.247   7.927  18.494  0.00  0.00    +0.000 OA
ATOM     23  N   UNL     1       7.815   7.973  17.165  0.00  0.00    +0.000 NA
ENDBRANCH   7  19
TORSDOF 2
ENDMDL
MODEL 8
REMARK VINA RESULT:      -6.5      2.005      3.098
REMARK  Name = 
REMARK  3 active torsions:
REMARK  status: ('A' for Active; 'I' for Inactive)
REMARK    1  A    between atoms: C_1  and  C_2
REMARK    2  A    between atoms: C_8  and  C_9
REMARK    3  A    between atoms: C_15  and  C_16
REMARK                            x       y       z     vdW  Elec       q    Type
REMARK                         _______ _______ _______ _____ _____    ______ ____
ROOT
ATOM      1  C   UNL     1       3.300   6.649  17.346  0.00  0.00    +0.000 C 
ATOM      2  O   UNL     1       4.101   6.962  16.464  0.00  0.00    +0.000 OA
ATOM      3  N   UNL     1       3.099   5.308  17.680  0.00  0.00    +0.000 N 
ATOM      4  C   UNL     1       2.325   4.755  18.795  0.00  0.00    +0.000 C 
ATOM      5  C   UNL     1       3.183   3.938  19.776  0.00  0.00    +0.000 C 
ATOM      6  O   UNL     1       4.076   3.022  19.132  0.00  0.00    +0.000 OA
ATOM      7  C   UNL     1       4.907   3.664  18.127  0.00  0.00    +0.000 C 
ATOM      8  C   UNL     1       4.002   4.322  17.068  0.00  0.00    +0.000 C 
ENDROOT
BRANCH   1  16
ATOM      9  C   UNL     1       1.038   8.551  22.304  0.00  0.00    +0.000 C 
ATOM     10  C   UNL     1       1.028   9.326  21.010  0.00  0.00    +0.000 A 
ATOM     11  C   UNL     1       0.472  10.562  20.974  0.00  0.00    +0.000 A 
ATOM     12  C   UNL     1       0.434  11.374  19.767  0.00  0.00    +0.000 A 
ATOM     13  C   UNL     1       0.997  10.898  18.647  0.00  0.00    +0.000 A 
ATOM     14  N   UNL     1       1.589   9.639  18.668  0.00  0.00    +0.000 N 
ATOM     15  C   UNL     1       2.247   8.993  17.645  0.00  0.00    +0.000 A 
ATOM     16  C   UNL     1       2.597   7.718  18.058  0.00  0.00    +0.000 A 
ATOM     17  C   UNL     1       2.217   7.644  19.437  0.00  0.00    +0.000 A 
ATOM     18  C   UNL     1       1.602   8.825  19.790  0.00  0.00    +0.000 A 
ENDBRANCH   1  16
BRANCH   7  19
ATOM     19  C   UNL     1       5.934   4.611  18.688  0.00  0.00    +0.000 A 
ATOM     20  N   UNL     1       6.685   5.462  17.903  0.00  0.00    +0.000 NA
ATOM     21  C   UNL     1       7.443   6.055  18.788  0.00  0.00    +0.000 A 
ATOM     22  O   UNL     1       7.214   5.654  20.064  0.00  0.00    +0.000 OA
ATOM     23  N   UNL     1       6.203   4.689  20.000  0.00  0.00    +0.000 NA
ENDBRANCH   7  19
TORSDOF 2
ENDMDL
MODEL 9
REMARK VINA RESULT:      -6.4      1.501      2.159
REMARK  Name = 
REMARK  3 active torsions:
REMARK  status: ('A' for Active; 'I' for Inactive)
REMARK    1  A    between atoms: C_1  and  C_2
REMARK    2  A    between atoms: C_8  and  C_9
REMARK    3  A    between atoms: C_15  and  C_16
REMARK                            x       y       z     vdW  Elec       q    Type
REMARK                         _______ _______ _______ _____ _____    ______ ____
ROOT
ATOM      1  C   UNL     1       2.939   5.878  20.341  0.00  0.00    +0.000 C 
ATOM      2  O   UNL     1       2.650   5.223  21.344  0.00  0.00    +0.000 OA
ATOM      3  N   UNL     1       3.930   5.432  19.463  0.00  0.00    +0.000 N 
ATOM      4  C   UNL     1       4.296   5.977  18.152  0.00  0.00    +0.000 C 
ATOM      5  C   UNL     1       4.091   4.972  17.006  0.00  0.00    +0.000 C 
ATOM      6  O   UNL     1       4.598   3.663  17.292  0.00  0.00    +0.000 OA
ATOM      7  C   UNL     1       4.092   3.130  18.546  0.00  0.00    +0.000 C 
ATOM      8  C   UNL     1       4.473   4.085  19.693  0.00  0.00    +0.000 C 
ENDROOT
BRANCH   1  16
ATOM      9  C   UNL     1      -0.441  10.085  22.389  0.00  0.00    +0.000 C 
ATOM     10  C   UNL     1       0.027   9.989  20.958  0.00  0.00    +0.000 A 
ATOM     11  C   UNL     1      -0.337  10.944  20.068  0.00  0.00    +0.000 A 
ATOM     12  C   UNL     1       0.084  10.925  18.675  0.00  0.00    +0.000 A 
ATOM     13  C   UNL     1       0.892   9.939  18.254  0.00  0.00    +0.000 A 
ATOM     14  N   UNL     1       1.292   8.960  19.156  0.00  0.00    +0.000 N 
ATOM     15  C   UNL     1       2.139   7.897  18.936  0.00  0.00    +0.000 A 
ATOM     16  C   UNL     1       2.192   7.108  20.073  0.00  0.00    +0.000 A 
ATOM     17  C   UNL     1       1.415   7.802  21.057  0.00  0.00    +0.000 A 
ATOM     18  C   UNL     1       0.872   8.927  20.478  0.00  0.00    +0.000 A 
ENDBRANCH   1  16
BRANCH   7  19
ATOM     19  C   UNL     1       2.625   2.794  18.527  0.00  0.00    +0.000 A 
ATOM     20  N   UNL     1       1.965   2.233  19.601  0.00  0.00    +0.000 NA
ATOM     21  C   UNL     1       0.751   2.094  19.135  0.00  0.00    +0.000 A 
ATOM     22  O   UNL     1       0.597   2.538  17.862  0.00  0.00    +0.000 OA
ATOM     23  N   UNL     1       1.850   3.009  17.453  0.00  0.00    +0.000 NA
ENDBRANCH   7  19
TORSDOF 2
ENDMDL
