MODEL 1
REMARK VINA RESULT:      -8.8      0.000      0.000
REMARK  Name = 
REMARK  4 active torsions:
REMARK  status: ('A' for Active; 'I' for Inactive)
REMARK    1  A    between atoms: C_1  and  C_2
REMARK    2  A    between atoms: C_7  and  O_8
REMARK    3  A    between atoms: O_8  and  C_9
REMARK    4  A    between atoms: C_12  and  N_13
REMARK                            x       y       z     vdW  Elec       q    Type
REMARK                         _______ _______ _______ _____ _____    ______ ____
ROOT
ATOM      1  C   UNL     1       4.071   4.146  17.978  0.00  0.00    +0.000 A 
ATOM      2  C   UNL     1       2.743   4.355  17.647  0.00  0.00    +0.000 A 
ATOM      3  C   UNL     1       2.021   5.292  18.385  0.00  0.00    +0.000 A 
ATOM      4  C   UNL     1       2.618   5.951  19.452  0.00  0.00    +0.000 A 
ATOM      5  C   UNL     1       3.925   5.594  19.762  0.00  0.00    +0.000 A 
ATOM      6  N   UNL     1       4.671   4.749  19.024  0.00  0.00    +0.000 NA
ENDROOT
BRANCH   4   7
ATOM      7  N   UNL     1       1.992   6.965  20.207  0.00  0.00    +0.000 N 
ATOM      8  C   UNL     1       1.746   8.274  19.797  0.00  0.00    +0.000 C 
ATOM      9  O   UNL     1       2.069   8.730  18.729  0.00  0.00    +0.000 OA
ATOM     10  N   UNL     1       1.038   9.009  20.747  0.00  0.00    +0.000 N 
ATOM     11  C   UNL     1       0.692   8.499  22.066  0.00  0.00    +0.000 C 
ATOM     12  C   UNL     1      -0.103   9.577  22.786  0.00  0.00    +0.000 C 
ATOM     13  C   UNL     1      -0.291  10.597  21.711  0.00  0.00    +0.000 A 
ATOM     14  C   UNL     1      -1.048  11.758  21.787  0.00  0.00    +0.000 A 
ATOM     15  C   UNL     1      -1.148  12.555  20.646  0.00  0.00    +0.000 A 
ATOM     16  C   UNL     1      -0.516  12.169  19.455  0.00  0.00    +0.000 A 
ATOM     17 CL   UNL     1      -0.686  13.150  18.049  0.00  0.00    +0.000 Cl
ATOM     18  C   UNL     1       0.244  10.992  19.385  0.00  0.00    +0.000 A 
ATOM     19  C   UNL     1       0.376  10.232  20.536  0.00  0.00    +0.000 A 
ATOM     20  H   UNL     1       1.601   6.674  21.085  0.00  0.00    +0.000 HD
ENDBRANCH   4   7
BRANCH   1  21
ATOM     21  O   UNL     1       4.845   3.363  17.148  0.00  0.00    +0.000 OA
BRANCH  21  28
ATOM     22  C   UNL     1       7.674   4.670  17.668  0.00  0.00    +0.000 C 
ATOM     23  C   UNL     1       6.931   4.533  16.374  0.00  0.00    +0.000 A 
ATOM     24  N   UNL     1       7.639   5.041  15.321  0.00  0.00    +0.000 NA
ATOM     25  C   UNL     1       7.108   4.955  14.087  0.00  0.00    +0.000 A 
ATOM     26  C   UNL     1       5.883   4.380  13.826  0.00  0.00    +0.000 A 
ATOM     27  C   UNL     1       5.154   3.884  14.903  0.00  0.00    +0.000 A 
ATOM     28  C   UNL     1       5.655   3.967  16.208  0.00  0.00    +0.000 A 
ENDBRANCH  21  28
ENDBRANCH   1  21
TORSDOF 3
ENDMDL
MODEL 2
REMARK VINA RESULT:      -8.6      1.993      2.468
REMARK  Name = 
REMARK  4 active torsions:
REMARK  status: ('A' for Active; 'I' for Inactive)
REMARK    1  A    between atoms: C_1  and  C_2
REMARK    2  A    between atoms: C_7  and  O_8
REMARK    3  A    between atoms: O_8  and  C_9
REMARK    4  A    between atoms: C_12  and  N_13
REMARK                            x       y       z     vdW  Elec       q    Type
REMARK                         _______ _______ _______ _____ _____    ______ ____
ROOT
ATOM      1  C   UNL     1       3.819   6.000  18.337  0.00  0.00    +0.000 A 
ATOM      2  C   UNL     1       3.764   7.088  17.484  0.00  0.00    +0.000 A 
ATOM      3  C   UNL     1       2.942   8.158  17.836  0.00  0.00    +0.000 A 
ATOM      4  C   UNL     1       2.168   8.095  18.987  0.00  0.00    +0.000 A 
ATOM      5  C   UNL     1       2.222   6.915  19.719  0.00  0.00    +0.000 A 
ATOM      6  N   UNL     1       3.060   5.896  19.446  0.00  0.00    +0.000 NA
ENDROOT
BRANCH   4   7
ATOM      7  N   UNL     1       1.366   9.155  19.461  0.00  0.00    +0.000 N 
ATOM      8  C   UNL     1       0.285   9.737  18.803  0.00  0.00    +0.000 C 
ATOM      9  O   UNL     1      -0.099   9.423  17.704  0.00  0.00    +0.000 OA
ATOM     10  N   UNL     1      -0.350  10.710  19.572  0.00  0.00    +0.000 N 
ATOM     11  C   UNL     1       0.132  11.149  20.874  0.00  0.00    +0.000 C 
ATOM     12  C   UNL     1      -0.845  12.188  21.404  0.00  0.00    +0.000 C 
ATOM     13  C   UNL     1      -1.937  12.138  20.386  0.00  0.00    +0.000 A 
ATOM     14  C   UNL     1      -3.149  12.814  20.430  0.00  0.00    +0.000 A 
ATOM     15  C   UNL     1      -4.069  12.585  19.406  0.00  0.00    +0.000 A 
ATOM     16  C   UNL     1      -3.774  11.674  18.381  0.00  0.00    +0.000 A 
ATOM     17 CL   UNL     1      -4.942  11.380  17.149  0.00  0.00    +0.000 Cl
ATOM     18  C   UNL     1      -2.549  10.993  18.345  0.00  0.00    +0.000 A 
ATOM     19  C   UNL     1      -1.624  11.262  19.341  0.00  0.00    +0.000 A 
ATOM     20  H   UNL     1       1.540   9.441  20.408  0.00  0.00    +0.000 HD
ENDBRANCH   4   7
BRANCH   1  21
ATOM     21  O   UNL     1       4.759   5.018  18.099  0.00  0.00    +0.000 OA
BRANCH  21  28
ATOM     22  C   UNL     1       7.454   6.632  17.762  0.00  0.00    +0.000 C 
ATOM     23  C   UNL     1       6.756   5.758  16.764  0.00  0.00    +0.000 A 
ATOM     24  N   UNL     1       7.444   5.676  15.587  0.00  0.00    +0.000 NA
ATOM     25  C   UNL     1       6.952   4.895  14.607  0.00  0.00    +0.000 A 
ATOM     26  C   UNL     1       5.787   4.169  14.728  0.00  0.00    +0.000 A 
ATOM     27  C   UNL     1       5.076   4.271  15.920  0.00  0.00    +0.000 A 
ATOM     28  C   UNL     1       5.537   5.086  16.962  0.00  0.00    +0.000 A 
ENDBRANCH  21  28
ENDBRANCH   1  21
TORSDOF 3
ENDMDL
MODEL 3
REMARK VINA RESULT:      -8.2      0.986      1.137
REMARK  Name = 
REMARK  4 active torsions:
REMARK  status: ('A' for Active; 'I' for Inactive)
REMARK    1  A    between atoms: C_1  and  C_2
REMARK    2  A    between atoms: C_7  and  O_8
REMARK    3  A    between atoms: O_8  and  C_9
REMARK    4  A    between atoms: C_12  and  N_13
REMARK                            x       y       z     vdW  Elec       q    Type
REMARK                         _______ _______ _______ _____ _____    ______ ____
ROOT
ATOM      1  C   UNL     1       3.813   4.746  17.649  0.00  0.00    +0.000 A 
ATOM      2  C   UNL     1       4.169   6.075  17.500  0.00  0.00    +0.000 A 
ATOM      3  C   UNL     1       3.583   7.012  18.350  0.00  0.00    +0.000 A 
ATOM      4  C   UNL     1       2.632   6.613  19.279  0.00  0.00    +0.000 A 
ATOM      5  C   UNL     1       2.274   5.271  19.278  0.00  0.00    +0.000 A 
ATOM      6  N   UNL     1       2.874   4.330  18.522  0.00  0.00    +0.000 NA
ENDROOT
BRANCH   4   7
ATOM      7  N   UNL     1       2.041   7.475  20.227  0.00  0.00    +0.000 N 
ATOM      8  C   UNL     1       1.392   8.680  19.964  0.00  0.00    +0.000 C 
ATOM      9  O   UNL     1       1.273   9.169  18.869  0.00  0.00    +0.000 OA
ATOM     10  N   UNL     1       0.847   9.256  21.110  0.00  0.00    +0.000 N 
ATOM     11  C   UNL     1       1.031   8.716  22.450  0.00  0.00    +0.000 C 
ATOM     12  C   UNL     1       0.259   9.600  23.416  0.00  0.00    +0.000 C 
ATOM     13  C   UNL     1      -0.466  10.520  22.488  0.00  0.00    +0.000 A 
ATOM     14  C   UNL     1      -1.411  11.476  22.832  0.00  0.00    +0.000 A 
ATOM     15  C   UNL     1      -2.023  12.197  21.806  0.00  0.00    +0.000 A 
ATOM     16  C   UNL     1      -1.699  11.934  20.467  0.00  0.00    +0.000 A 
ATOM     17 CL   UNL     1      -2.496  12.811  19.216  0.00  0.00    +0.000 Cl
ATOM     18  C   UNL     1      -0.745  10.965  20.127  0.00  0.00    +0.000 A 
ATOM     19  C   UNL     1      -0.110  10.287  21.155  0.00  0.00    +0.000 A 
ATOM     20  H   UNL     1       2.004   7.126  21.168  0.00  0.00    +0.000 HD
ENDBRANCH   4   7
BRANCH   1  21
ATOM     21  O   UNL     1       4.515   3.789  16.946  0.00  0.00    +0.000 OA
BRANCH  21  28
ATOM     22  C   UNL     1       7.476   4.634  17.650  0.00  0.00    +0.000 C 
ATOM     23  C   UNL     1       6.826   4.537  16.303  0.00  0.00    +0.000 A 
ATOM     24  N   UNL     1       7.693   4.846  15.293  0.00  0.00    +0.000 NA
ATOM     25  C   UNL     1       7.257   4.768  14.022  0.00  0.00    +0.000 A 
ATOM     26  C   UNL     1       5.975   4.390  13.683  0.00  0.00    +0.000 A 
ATOM     27  C   UNL     1       5.087   4.098  14.713  0.00  0.00    +0.000 A 
ATOM     28  C   UNL     1       5.489   4.183  16.053  0.00  0.00    +0.000 A 
ENDBRANCH  21  28
ENDBRANCH   1  21
TORSDOF 3
ENDMDL
MODEL 4
REMARK VINA RESULT:      -8.1      3.696     10.197
REMARK  Name = 
REMARK  4 active torsions:
REMARK  status: ('A' for Active; 'I' for Inactive)
REMARK    1  A    between atoms: C_1  and  C_2
REMARK    2  A    between atoms: C_7  and  O_8
REMARK    3  A    between atoms: O_8  and  C_9
REMARK    4  A    between atoms: C_12  and  N_13
REMARK                            x       y       z     vdW  Elec       q    Type
REMARK                         _______ _______ _______ _____ _____    ______ ____
ROOT
ATOM      1  C   UNL     1      -1.447  11.981  20.087  0.00  0.00    +0.000 A 
ATOM      2  C   UNL     1      -0.384  11.844  20.961  0.00  0.00    +0.000 A 
ATOM      3  C   UNL     1       0.583  10.881  20.674  0.00  0.00    +0.000 A 
ATOM      4  C   UNL     1       0.441  10.057  19.566  0.00  0.00    +0.000 A 
ATOM      5  C   UNL     1      -0.714  10.212  18.810  0.00  0.00    +0.000 A 
ATOM      6  N   UNL     1      -1.628  11.180  19.018  0.00  0.00    +0.000 NA
ENDROOT
BRANCH   4   7
ATOM      7  N   UNL     1       1.402   9.108  19.156  0.00  0.00    +0.000 N 
ATOM      8  C   UNL     1       1.769   7.950  19.838  0.00  0.00    +0.000 C 
ATOM      9  O   UNL     1       1.325   7.613  20.907  0.00  0.00    +0.000 OA
ATOM     10  N   UNL     1       2.691   7.181  19.130  0.00  0.00    +0.000 N 
ATOM     11  C   UNL     1       3.288   7.597  17.868  0.00  0.00    +0.000 C 
ATOM     12  C   UNL     1       4.207   6.480  17.399  0.00  0.00    +0.000 C 
ATOM     13  C   UNL     1       3.923   5.403  18.395  0.00  0.00    +0.000 A 
ATOM     14  C   UNL     1       4.414   4.105  18.381  0.00  0.00    +0.000 A 
ATOM     15  C   UNL     1       3.979   3.225  19.373  0.00  0.00    +0.000 A 
ATOM     16  C   UNL     1       3.051   3.648  20.336  0.00  0.00    +0.000 A 
ATOM     17 CL   UNL     1       2.500   2.532  21.527  0.00  0.00    +0.000 Cl
ATOM     18  C   UNL     1       2.557   4.960  20.341  0.00  0.00    +0.000 A 
ATOM     19  C   UNL     1       3.031   5.839  19.381  0.00  0.00    +0.000 A 
ATOM     20  H   UNL     1       1.778   9.242  18.234  0.00  0.00    +0.000 HD
ENDBRANCH   4   7
BRANCH   1  21
ATOM     21  O   UNL     1      -2.310  13.044  20.255  0.00  0.00    +0.000 OA
BRANCH  21  28
ATOM     22  C   UNL     1      -2.988  12.843  23.333  0.00  0.00    +0.000 C 
ATOM     23  C   UNL     1      -3.921  12.759  22.163  0.00  0.00    +0.000 A 
ATOM     24  N   UNL     1      -5.220  12.598  22.554  0.00  0.00    +0.000 NA
ATOM     25  C   UNL     1      -6.175  12.542  21.608  0.00  0.00    +0.000 A 
ATOM     26  C   UNL     1      -5.913  12.640  20.258  0.00  0.00    +0.000 A 
ATOM     27  C   UNL     1      -4.587  12.781  19.860  0.00  0.00    +0.000 A 
ATOM     28  C   UNL     1      -3.555  12.825  20.807  0.00  0.00    +0.000 A 
ENDBRANCH  21  28
ENDBRANCH   1  21
TORSDOF 3
ENDMDL
MODEL 5
REMARK VINA RESULT:      -8.1      3.621      9.926
REMARK  Name = 
REMARK  4 active torsions:
REMARK  status: ('A' for Active; 'I' for Inactive)
REMARK    1  A    between atoms: C_1  and  C_2
REMARK    2  A    between atoms: C_7  and  O_8
REMARK    3  A    between atoms: O_8  and  C_9
REMARK    4  A    between atoms: C_12  and  N_13
REMARK                            x       y       z     vdW  Elec       q    Type
REMARK                         _______ _______ _______ _____ _____    ______ ____
ROOT
ATOM      1  C   UNL     1      -0.827  12.311  19.419  0.00  0.00    +0.000 A 
ATOM      2  C   UNL     1      -1.395  11.209  18.804  0.00  0.00    +0.000 A 
ATOM      3  C   UNL     1      -0.565  10.137  18.477  0.00  0.00    +0.000 A 
ATOM      4  C   UNL     1       0.799  10.211  18.721  0.00  0.00    +0.000 A 
ATOM      5  C   UNL     1       1.281  11.403  19.249  0.00  0.00    +0.000 A 
ATOM      6  N   UNL     1       0.497  12.425  19.644  0.00  0.00    +0.000 NA
ENDROOT
BRANCH   4   7
ATOM      7  N   UNL     1       1.704   9.152  18.492  0.00  0.00    +0.000 N 
ATOM      8  C   UNL     1       1.940   8.066  19.332  0.00  0.00    +0.000 C 
ATOM      9  O   UNL     1       1.412   7.900  20.403  0.00  0.00    +0.000 OA
ATOM     10  N   UNL     1       2.836   7.150  18.784  0.00  0.00    +0.000 N 
ATOM     11  C   UNL     1       3.533   7.360  17.522  0.00  0.00    +0.000 C 
ATOM     12  C   UNL     1       4.385   6.130  17.253  0.00  0.00    +0.000 C 
ATOM     13  C   UNL     1       3.962   5.210  18.352  0.00  0.00    +0.000 A 
ATOM     14  C   UNL     1       4.349   3.889  18.528  0.00  0.00    +0.000 A 
ATOM     15  C   UNL     1       3.792   3.175  19.589  0.00  0.00    +0.000 A 
ATOM     16  C   UNL     1       2.849   3.781  20.432  0.00  0.00    +0.000 A 
ATOM     17 CL   UNL     1       2.147   2.866  21.712  0.00  0.00    +0.000 Cl
ATOM     18  C   UNL     1       2.460   5.115  20.245  0.00  0.00    +0.000 A 
ATOM     19  C   UNL     1       3.054   5.829  19.218  0.00  0.00    +0.000 A 
ATOM     20  H   UNL     1       2.139   9.141  17.587  0.00  0.00    +0.000 HD
ENDBRANCH   4   7
BRANCH   1  21
ATOM     21  O   UNL     1      -1.657  13.296  19.912  0.00  0.00    +0.000 OA
BRANCH  21  28
ATOM     22  C   UNL     1      -4.761  12.730  20.072  0.00  0.00    +0.000 C 
ATOM     23  C   UNL     1      -3.758  12.767  21.185  0.00  0.00    +0.000 A 
ATOM     24  N   UNL     1      -4.327  12.486  22.396  0.00  0.00    +0.000 NA
ATOM     25  C   UNL     1      -3.538  12.449  23.485  0.00  0.00    +0.000 A 
ATOM     26  C   UNL     1      -2.179  12.679  23.446  0.00  0.00    +0.000 A 
ATOM     27  C   UNL     1      -1.605  12.986  22.216  0.00  0.00    +0.000 A 
ATOM     28  C   UNL     1      -2.389  13.055  21.056  0.00  0.00    +0.000 A 
ENDBRANCH  21  28
ENDBRANCH   1  21
TORSDOF 3
ENDMDL
MODEL 6
REMARK VINA RESULT:      -8.1      2.613      3.842
REMARK  Name = 
REMARK  4 active torsions:
REMARK  status: ('A' for Active; 'I' for Inactive)
REMARK    1  A    between atoms: C_1  and  C_2
REMARK    2  A    between atoms: C_7  and  O_8
REMARK    3  A    between atoms: O_8  and  C_9
REMARK    4  A    between atoms: C_12  and  N_13
REMARK                            x       y       z     vdW  Elec       q    Type
REMARK                         _______ _______ _______ _____ _____    ______ ____
ROOT
ATOM      1  C   UNL     1       2.946   7.225  18.110  0.00  0.00    +0.000 A 
ATOM      2  C   UNL     1       2.529   7.062  19.419  0.00  0.00    +0.000 A 
ATOM      3  C   UNL     1       1.709   8.043  19.975  0.00  0.00    +0.000 A 
ATOM      4  C   UNL     1       1.373   9.172  19.239  0.00  0.00    +0.000 A 
ATOM      5  C   UNL     1       1.927   9.284  17.970  0.00  0.00    +0.000 A 
ATOM      6  N   UNL     1       2.660   8.321  17.378  0.00  0.00    +0.000 NA
ENDROOT
BRANCH   4   7
ATOM      7  N   UNL     1       0.492  10.178  19.691  0.00  0.00    +0.000 N 
ATOM      8  C   UNL     1      -0.666  10.615  19.052  0.00  0.00    +0.000 C 
ATOM      9  O   UNL     1      -1.062  10.202  17.991  0.00  0.00    +0.000 OA
ATOM     10  N   UNL     1      -1.359  11.569  19.795  0.00  0.00    +0.000 N 
ATOM     11  C   UNL     1      -0.869  12.128  21.047  0.00  0.00    +0.000 C 
ATOM     12  C   UNL     1      -1.919  13.101  21.563  0.00  0.00    +0.000 C 
ATOM     13  C   UNL     1      -3.042  12.887  20.601  0.00  0.00    +0.000 A 
ATOM     14  C   UNL     1      -4.310  13.448  20.663  0.00  0.00    +0.000 A 
ATOM     15  C   UNL     1      -5.245  13.073  19.698  0.00  0.00    +0.000 A 
ATOM     16  C   UNL     1      -4.906  12.135  18.712  0.00  0.00    +0.000 A 
ATOM     17 CL   UNL     1      -6.089  11.660  17.554  0.00  0.00    +0.000 Cl
ATOM     18  C   UNL     1      -3.624  11.570  18.657  0.00  0.00    +0.000 A 
ATOM     19  C   UNL     1      -2.689  11.985  19.593  0.00  0.00    +0.000 A 
ATOM     20  H   UNL     1       0.677  10.535  20.611  0.00  0.00    +0.000 HD
ENDBRANCH   4   7
BRANCH   1  21
ATOM     21  O   UNL     1       3.602   6.183  17.488  0.00  0.00    +0.000 OA
BRANCH  21  28
ATOM     22  C   UNL     1       4.526   3.738  19.262  0.00  0.00    +0.000 C 
ATOM     23  C   UNL     1       5.369   4.794  18.613  0.00  0.00    +0.000 A 
ATOM     24  N   UNL     1       6.701   4.597  18.841  0.00  0.00    +0.000 NA
ATOM     25  C   UNL     1       7.582   5.451  18.287  0.00  0.00    +0.000 A 
ATOM     26  C   UNL     1       7.211   6.518  17.498  0.00  0.00    +0.000 A 
ATOM     27  C   UNL     1       5.852   6.731  17.286  0.00  0.00    +0.000 A 
ATOM     28  C   UNL     1       4.896   5.880  17.857  0.00  0.00    +0.000 A 
ENDBRANCH  21  28
ENDBRANCH   1  21
TORSDOF 3
ENDMDL
MODEL 7
REMARK VINA RESULT:      -8.1      3.665      9.958
REMARK  Name = 
REMARK  4 active torsions:
REMARK  status: ('A' for Active; 'I' for Inactive)
REMARK    1  A    between atoms: C_1  and  C_2
REMARK    2  A    between atoms: C_7  and  O_8
REMARK    3  A    between atoms: O_8  and  C_9
REMARK    4  A    between atoms: C_12  and  N_13
REMARK                            x       y       z     vdW  Elec       q    Type
REMARK                         _______ _______ _______ _____ _____    ______ ____
ROOT
ATOM      1  C   UNL     1      -1.001  12.436  19.723  0.00  0.00    +0.000 A 
ATOM      2  C   UNL     1      -1.586  11.343  19.109  0.00  0.00    +0.000 A 
ATOM      3  C   UNL     1      -0.769  10.266  18.767  0.00  0.00    +0.000 A 
ATOM      4  C   UNL     1       0.599  10.327  18.996  0.00  0.00    +0.000 A 
ATOM      5  C   UNL     1       1.097  11.511  19.526  0.00  0.00    +0.000 A 
ATOM      6  N   UNL     1       0.326  12.538  19.935  0.00  0.00    +0.000 NA
ENDROOT
BRANCH   4   7
ATOM      7  N   UNL     1       1.492   9.261  18.752  0.00  0.00    +0.000 N 
ATOM      8  C   UNL     1       1.709   8.156  19.572  0.00  0.00    +0.000 C 
ATOM      9  O   UNL     1       1.172   7.975  20.636  0.00  0.00    +0.000 OA
ATOM     10  N   UNL     1       2.597   7.240  19.011  0.00  0.00    +0.000 N 
ATOM     11  C   UNL     1       3.304   7.465  17.758  0.00  0.00    +0.000 C 
ATOM     12  C   UNL     1       4.142   6.230  17.470  0.00  0.00    +0.000 C 
ATOM     13  C   UNL     1       3.701   5.294  18.548  0.00  0.00    +0.000 A 
ATOM     14  C   UNL     1       4.071   3.965  18.700  0.00  0.00    +0.000 A 
ATOM     15  C   UNL     1       3.498   3.237  19.743  0.00  0.00    +0.000 A 
ATOM     16  C   UNL     1       2.558   3.839  20.593  0.00  0.00    +0.000 A 
ATOM     17 CL   UNL     1       1.836   2.908  21.850  0.00  0.00    +0.000 Cl
ATOM     18  C   UNL     1       2.187   5.181  20.430  0.00  0.00    +0.000 A 
ATOM     19  C   UNL     1       2.796   5.908  19.420  0.00  0.00    +0.000 A 
ATOM     20  H   UNL     1       1.932   9.262  17.850  0.00  0.00    +0.000 HD
ENDBRANCH   4   7
BRANCH   1  21
ATOM     21  O   UNL     1      -1.817  13.426  20.231  0.00  0.00    +0.000 OA
BRANCH  21  28
ATOM     22  C   UNL     1      -1.483  12.116  23.086  0.00  0.00    +0.000 C 
ATOM     23  C   UNL     1      -2.743  12.535  22.390  0.00  0.00    +0.000 A 
ATOM     24  N   UNL     1      -3.850  12.314  23.160  0.00  0.00    +0.000 NA
ATOM     25  C   UNL     1      -5.053  12.675  22.677  0.00  0.00    +0.000 A 
ATOM     26  C   UNL     1      -5.230  13.260  21.441  0.00  0.00    +0.000 A 
ATOM     27  C   UNL     1      -4.104  13.464  20.650  0.00  0.00    +0.000 A 
ATOM     28  C   UNL     1      -2.832  13.088  21.101  0.00  0.00    +0.000 A 
ENDBRANCH  21  28
ENDBRANCH   1  21
TORSDOF 3
ENDMDL
MODEL 8
REMARK VINA RESULT:      -8.0      1.470      1.695
REMARK  Name = 
REMARK  4 active torsions:
REMARK  status: ('A' for Active; 'I' for Inactive)
REMARK    1  A    between atoms: C_1  and  C_2
REMARK    2  A    between atoms: C_7  and  O_8
REMARK    3  A    between atoms: O_8  and  C_9
REMARK    4  A    between atoms: C_12  and  N_13
REMARK                            x       y       z     vdW  Elec       q    Type
REMARK                         _______ _______ _______ _____ _____    ______ ____
ROOT
ATOM      1  C   UNL     1       3.967   5.187  18.093  0.00  0.00    +0.000 A 
ATOM      2  C   UNL     1       3.358   4.937  19.310  0.00  0.00    +0.000 A 
ATOM      3  C   UNL     1       2.645   5.972  19.914  0.00  0.00    +0.000 A 
ATOM      4  C   UNL     1       2.601   7.227  19.322  0.00  0.00    +0.000 A 
ATOM      5  C   UNL     1       3.330   7.398  18.152  0.00  0.00    +0.000 A 
ATOM      6  N   UNL     1       3.966   6.400  17.506  0.00  0.00    +0.000 NA
ENDROOT
BRANCH   4   7
ATOM      7  N   UNL     1       1.846   8.311  19.820  0.00  0.00    +0.000 N 
ATOM      8  C   UNL     1       0.951   9.099  19.101  0.00  0.00    +0.000 C 
ATOM      9  O   UNL     1       0.718   8.973  17.925  0.00  0.00    +0.000 OA
ATOM     10  N   UNL     1       0.305  10.040  19.900  0.00  0.00    +0.000 N 
ATOM     11  C   UNL     1       0.614  10.252  21.307  0.00  0.00    +0.000 C 
ATOM     12  C   UNL     1      -0.322  11.330  21.831  0.00  0.00    +0.000 C 
ATOM     13  C   UNL     1      -1.237  11.541  20.668  0.00  0.00    +0.000 A 
ATOM     14  C   UNL     1      -2.363  12.351  20.631  0.00  0.00    +0.000 A 
ATOM     15  C   UNL     1      -3.126  12.366  19.463  0.00  0.00    +0.000 A 
ATOM     16  C   UNL     1      -2.766  11.561  18.373  0.00  0.00    +0.000 A 
ATOM     17 CL   UNL     1      -3.745  11.568  16.955  0.00  0.00    +0.000 Cl
ATOM     18  C   UNL     1      -1.628  10.742  18.419  0.00  0.00    +0.000 A 
ATOM     19  C   UNL     1      -0.852  10.770  19.567  0.00  0.00    +0.000 A 
ATOM     20  H   UNL     1       1.895   8.454  20.813  0.00  0.00    +0.000 HD
ENDBRANCH   4   7
BRANCH   1  21
ATOM     21  O   UNL     1       4.518   4.130  17.398  0.00  0.00    +0.000 OA
BRANCH  21  28
ATOM     22  C   UNL     1       7.576   4.765  17.876  0.00  0.00    +0.000 C 
ATOM     23  C   UNL     1       6.840   4.633  16.577  0.00  0.00    +0.000 A 
ATOM     24  N   UNL     1       7.666   4.799  15.502  0.00  0.00    +0.000 NA
ATOM     25  C   UNL     1       7.148   4.672  14.266  0.00  0.00    +0.000 A 
ATOM     26  C   UNL     1       5.822   4.384  14.025  0.00  0.00    +0.000 A 
ATOM     27  C   UNL     1       4.977   4.238  15.121  0.00  0.00    +0.000 A 
ATOM     28  C   UNL     1       5.465   4.379  16.427  0.00  0.00    +0.000 A 
ENDBRANCH  21  28
ENDBRANCH   1  21
TORSDOF 3
ENDMDL
MODEL 9
REMARK VINA RESULT:      -8.0      3.871     10.611
REMARK  Name = 
REMARK  4 active torsions:
REMARK  status: ('A' for Active; 'I' for Inactive)
REMARK    1  A    between atoms: C_1  and  C_2
REMARK    2  A    between atoms: C_7  and  O_8
REMARK    3  A    between atoms: O_8  and  C_9
REMARK    4  A    between atoms: C_12  and  N_13
REMARK                            x       y       z     vdW  Elec       q    Type
REMARK                         _______ _______ _______ _____ _____    ______ ____
ROOT
ATOM      1  C   UNL     1      -1.637  12.178  21.634  0.00  0.00    +0.000 A 
ATOM      2  C   UNL     1      -0.891  11.409  22.509  0.00  0.00    +0.000 A 
ATOM      3  C   UNL     1      -0.023  10.458  21.973  0.00  0.00    +0.000 A 
ATOM      4  C   UNL     1       0.041  10.266  20.600  0.00  0.00    +0.000 A 
ATOM      5  C   UNL     1      -0.824  11.021  19.817  0.00  0.00    +0.000 A 
ATOM      6  N   UNL     1      -1.618  11.998  20.298  0.00  0.00    +0.000 NA
ENDROOT
BRANCH   4   7
ATOM      7  N   UNL     1       0.939   9.382  19.964  0.00  0.00    +0.000 N 
ATOM      8  C   UNL     1       1.405   8.169  20.466  0.00  0.00    +0.000 C 
ATOM      9  O   UNL     1       1.118   7.718  21.547  0.00  0.00    +0.000 OA
ATOM     10  N   UNL     1       2.221   7.493  19.561  0.00  0.00    +0.000 N 
ATOM     11  C   UNL     1       2.631   8.045  18.277  0.00  0.00    +0.000 C 
ATOM     12  C   UNL     1       3.480   6.999  17.572  0.00  0.00    +0.000 C 
ATOM     13  C   UNL     1       3.346   5.822  18.483  0.00  0.00    +0.000 A 
ATOM     14  C   UNL     1       3.838   4.542  18.268  0.00  0.00    +0.000 A 
ATOM     15  C   UNL     1       3.552   3.559  19.216  0.00  0.00    +0.000 A 
ATOM     16  C   UNL     1       2.768   3.865  20.339  0.00  0.00    +0.000 A 
ATOM     17 CL   UNL     1       2.398   2.625  21.476  0.00  0.00    +0.000 Cl
ATOM     18  C   UNL     1       2.273   5.160  20.547  0.00  0.00    +0.000 A 
ATOM     19  C   UNL     1       2.601   6.140  19.624  0.00  0.00    +0.000 A 
ATOM     20  H   UNL     1       1.179   9.614  19.017  0.00  0.00    +0.000 HD
ENDBRANCH   4   7
BRANCH   1  21
ATOM     21  O   UNL     1      -2.359  13.241  22.135  0.00  0.00    +0.000 OA
BRANCH  21  28
ATOM     22  C   UNL     1      -5.107  12.879  20.621  0.00  0.00    +0.000 C 
ATOM     23  C   UNL     1      -4.834  12.811  22.094  0.00  0.00    +0.000 A 
ATOM     24  N   UNL     1      -5.963  12.529  22.811  0.00  0.00    +0.000 NA
ATOM     25  C   UNL     1      -5.861  12.402  24.147  0.00  0.00    +0.000 A 
ATOM     26  C   UNL     1      -4.675  12.541  24.835  0.00  0.00    +0.000 A 
ATOM     27  C   UNL     1      -3.531  12.851  24.105  0.00  0.00    +0.000 A 
ATOM     28  C   UNL     1      -3.589  13.012  22.714  0.00  0.00    +0.000 A 
ENDBRANCH  21  28
ENDBRANCH   1  21
TORSDOF 3
ENDMDL
