MODEL 1
REMARK VINA RESULT:      -8.9      0.000      0.000
REMARK  Name = 
REMARK  8 active torsions:
REMARK  status: ('A' for Active; 'I' for Inactive)
REMARK    1  A    between atoms: C_1  and  C_2
REMARK    2  A    between atoms: C_5  and  N_6
REMARK    3  A    between atoms: C_7  and  C_9
REMARK    4  A    between atoms: C_11  and  N_12
REMARK    5  A    between atoms: C_13  and  C_15
REMARK    6  A    between atoms: C_16  and  C_17
REMARK    7  A    between atoms: C_17  and  O_19
REMARK    8  A    between atoms: C_22  and  N_23
REMARK                            x       y       z     vdW  Elec       q    Type
REMARK                         _______ _______ _______ _____ _____    ______ ____
ROOT
ATOM      1  C   UNL     1       3.836   5.487  17.459  0.00  0.00    +0.000 A 
ATOM      2  C   UNL     1       4.565   5.557  16.250  0.00  0.00    +0.000 A 
ATOM      3  C   UNL     1       5.100   4.419  15.628  0.00  0.00    +0.000 A 
ATOM      4  C   UNL     1       5.003   3.199  16.275  0.00  0.00    +0.000 A 
ATOM      5  C   UNL     1       4.265   3.107  17.454  0.00  0.00    +0.000 A 
ATOM      6  C   UNL     1       3.616   4.216  18.067  0.00  0.00    +0.000 A 
ENDROOT
BRANCH   6   7
ATOM      7  N   UNL     1       2.849   3.882  19.203  0.00  0.00    +0.000 N 
ATOM      8  C   UNL     1       1.389   3.795  19.099  0.00  0.00    +0.000 C 
ATOM      9  C   UNL     1       0.706   3.723  20.462  0.00  0.00    +0.000 C 
ATOM     10  C   UNL     1       1.332   2.678  21.369  0.00  0.00    +0.000 C 
ATOM     11  C   UNL     1       2.835   2.902  21.456  0.00  0.00    +0.000 C 
ATOM     12  C   UNL     1       3.463   2.848  20.063  0.00  0.00    +0.000 C 
ENDBRANCH   6   7
BRANCH   1  14
ATOM     13  N   UNL     1       2.332   6.934  18.830  0.00  0.00    +0.000 N 
ATOM     14  C   UNL     1       3.491   6.828  18.058  0.00  0.00    +0.000 C 
ATOM     15  O   UNL     1       4.198   7.789  17.765  0.00  0.00    +0.000 OA
ATOM     16  H   UNL     1       1.771   6.101  18.969  0.00  0.00    +0.000 HD
BRANCH  13  21
ATOM     17  C   UNL     1      -0.501  11.475  20.908  0.00  0.00    +0.000 C 
ATOM     18  C   UNL     1       0.414  10.402  20.399  0.00  0.00    +0.000 A 
ATOM     19  C   UNL     1       0.779  10.362  19.055  0.00  0.00    +0.000 A 
ATOM     20  C   UNL     1       1.458   9.253  18.536  0.00  0.00    +0.000 A 
ATOM     21  C   UNL     1       1.780   8.151  19.337  0.00  0.00    +0.000 A 
ATOM     22  C   UNL     1       1.498   8.241  20.705  0.00  0.00    +0.000 A 
ATOM     23  C   UNL     1       0.829   9.359  21.233  0.00  0.00    +0.000 A 
ENDBRANCH  13  21
ENDBRANCH   1  14
BRANCH   3  24
ATOM     24  N   UNL     1       5.726   4.439  14.358  0.00  0.00    +0.000 N 
ATOM     25  C   UNL     1       7.007   4.863  14.147  0.00  0.00    +0.000 C 
ATOM     26  O   UNL     1       7.812   5.223  15.013  0.00  0.00    +0.000 OA
ATOM     27  H   UNL     1       5.141   4.243  13.553  0.00  0.00    +0.000 HD
BRANCH  25  28
ATOM     28  C   UNL     1       7.438   4.919  12.743  0.00  0.00    +0.000 C 
ATOM     29  C   UNL     1       6.967   4.076  11.817  0.00  0.00    +0.000 C 
BRANCH  29  30
ATOM     30  C   UNL     1       5.871   3.092  11.873  0.00  0.00    +0.000 C 
ATOM     31  O   UNL     1       4.723   3.494  11.923  0.00  0.00    +0.000 OA
BRANCH  30  32
ATOM     32  O   UNL     1       6.174   1.786  11.897  0.00  0.00    +0.000 OA
ATOM     33  H   UNL     1       6.365   1.411  12.787  0.00  0.00    +0.000 HD
ENDBRANCH  30  32
ENDBRANCH  29  30
ENDBRANCH  25  28
ENDBRANCH   3  24
TORSDOF 7
ENDMDL
MODEL 2
REMARK VINA RESULT:      -8.6      0.695      1.128
REMARK  Name = 
REMARK  8 active torsions:
REMARK  status: ('A' for Active; 'I' for Inactive)
REMARK    1  A    between atoms: C_1  and  C_2
REMARK    2  A    between atoms: C_5  and  N_6
REMARK    3  A    between atoms: C_7  and  C_9
REMARK    4  A    between atoms: C_11  and  N_12
REMARK    5  A    between atoms: C_13  and  C_15
REMARK    6  A    between atoms: C_16  and  C_17
REMARK    7  A    between atoms: C_17  and  O_19
REMARK    8  A    between atoms: C_22  and  N_23
REMARK                            x       y       z     vdW  Elec       q    Type
REMARK                         _______ _______ _______ _____ _____    ______ ____
ROOT
ATOM      1  C   UNL     1       3.526   5.881  17.680  0.00  0.00    +0.000 A 
ATOM      2  C   UNL     1       4.318   6.078  16.526  0.00  0.00    +0.000 A 
ATOM      3  C   UNL     1       5.063   5.043  15.939  0.00  0.00    +0.000 A 
ATOM      4  C   UNL     1       5.109   3.814  16.573  0.00  0.00    +0.000 A 
ATOM      5  C   UNL     1       4.314   3.593  17.697  0.00  0.00    +0.000 A 
ATOM      6  C   UNL     1       3.462   4.582  18.266  0.00  0.00    +0.000 A 
ENDROOT
BRANCH   6   7
ATOM      7  N   UNL     1       2.678   4.119  19.344  0.00  0.00    +0.000 N 
ATOM      8  C   UNL     1       1.303   3.671  19.108  0.00  0.00    +0.000 C 
ATOM      9  C   UNL     1       0.513   3.493  20.402  0.00  0.00    +0.000 C 
ATOM     10  C   UNL     1       1.268   2.673  21.434  0.00  0.00    +0.000 C 
ATOM     11  C   UNL     1       2.655   3.263  21.647  0.00  0.00    +0.000 C 
ATOM     12  C   UNL     1       3.426   3.305  20.328  0.00  0.00    +0.000 C 
ENDBRANCH   6   7
BRANCH   1  14
ATOM     13  N   UNL     1       2.290   7.073  19.492  0.00  0.00    +0.000 N 
ATOM     14  C   UNL     1       2.941   7.145  18.258  0.00  0.00    +0.000 C 
ATOM     15  O   UNL     1       2.985   8.165  17.575  0.00  0.00    +0.000 OA
ATOM     16  H   UNL     1       2.246   6.174  19.958  0.00  0.00    +0.000 HD
BRANCH  13  21
ATOM     17  C   UNL     1      -0.083  11.710  21.907  0.00  0.00    +0.000 C 
ATOM     18  C   UNL     1       0.340  10.424  21.265  0.00  0.00    +0.000 A 
ATOM     19  C   UNL     1       0.651   9.312  22.045  0.00  0.00    +0.000 A 
ATOM     20  C   UNL     1       1.242   8.181  21.468  0.00  0.00    +0.000 A 
ATOM     21  C   UNL     1       1.550   8.132  20.103  0.00  0.00    +0.000 A 
ATOM     22  C   UNL     1       1.147   9.212  19.309  0.00  0.00    +0.000 A 
ATOM     23  C   UNL     1       0.539  10.344  19.883  0.00  0.00    +0.000 A 
ENDBRANCH  13  21
ENDBRANCH   1  14
BRANCH   3  24
ATOM     24  N   UNL     1       5.765   5.177  14.716  0.00  0.00    +0.000 N 
ATOM     25  C   UNL     1       7.105   4.955  14.580  0.00  0.00    +0.000 C 
ATOM     26  O   UNL     1       7.875   4.555  15.459  0.00  0.00    +0.000 OA
ATOM     27  H   UNL     1       5.257   5.579  13.936  0.00  0.00    +0.000 HD
BRANCH  25  28
ATOM     28  C   UNL     1       7.671   5.258  13.257  0.00  0.00    +0.000 C 
ATOM     29  C   UNL     1       7.447   4.483  12.190  0.00  0.00    +0.000 C 
BRANCH  29  30
ATOM     30  C   UNL     1       6.527   3.349  11.995  0.00  0.00    +0.000 C 
ATOM     31  O   UNL     1       5.337   3.518  12.185  0.00  0.00    +0.000 OA
BRANCH  30  32
ATOM     32  O   UNL     1       7.033   2.158  11.640  0.00  0.00    +0.000 OA
ATOM     33  H   UNL     1       7.944   2.178  11.266  0.00  0.00    +0.000 HD
ENDBRANCH  30  32
ENDBRANCH  29  30
ENDBRANCH  25  28
ENDBRANCH   3  24
TORSDOF 7
ENDMDL
MODEL 3
REMARK VINA RESULT:      -8.5      1.292      1.482
REMARK  Name = 
REMARK  8 active torsions:
REMARK  status: ('A' for Active; 'I' for Inactive)
REMARK    1  A    between atoms: C_1  and  C_2
REMARK    2  A    between atoms: C_5  and  N_6
REMARK    3  A    between atoms: C_7  and  C_9
REMARK    4  A    between atoms: C_11  and  N_12
REMARK    5  A    between atoms: C_13  and  C_15
REMARK    6  A    between atoms: C_16  and  C_17
REMARK    7  A    between atoms: C_17  and  O_19
REMARK    8  A    between atoms: C_22  and  N_23
REMARK                            x       y       z     vdW  Elec       q    Type
REMARK                         _______ _______ _______ _____ _____    ______ ____
ROOT
ATOM      1  C   UNL     1       3.428   5.919  17.836  0.00  0.00    +0.000 A 
ATOM      2  C   UNL     1       4.234   6.185  16.706  0.00  0.00    +0.000 A 
ATOM      3  C   UNL     1       5.034   5.201  16.104  0.00  0.00    +0.000 A 
ATOM      4  C   UNL     1       5.118   3.955  16.701  0.00  0.00    +0.000 A 
ATOM      5  C   UNL     1       4.310   3.666  17.800  0.00  0.00    +0.000 A 
ATOM      6  C   UNL     1       3.406   4.601  18.380  0.00  0.00    +0.000 A 
ENDROOT
BRANCH   6   7
ATOM      7  N   UNL     1       2.620   4.072  19.426  0.00  0.00    +0.000 N 
ATOM      8  C   UNL     1       1.287   3.535  19.139  0.00  0.00    +0.000 C 
ATOM      9  C   UNL     1       0.468   3.288  20.403  0.00  0.00    +0.000 C 
ATOM     10  C   UNL     1       1.243   2.508  21.451  0.00  0.00    +0.000 C 
ATOM     11  C   UNL     1       2.578   3.188  21.718  0.00  0.00    +0.000 C 
ATOM     12  C   UNL     1       3.388   3.299  20.426  0.00  0.00    +0.000 C 
ENDBRANCH   6   7
BRANCH   1  14
ATOM     13  N   UNL     1       2.332   8.147  17.581  0.00  0.00    +0.000 N 
ATOM     14  C   UNL     1       2.778   7.139  18.439  0.00  0.00    +0.000 C 
ATOM     15  O   UNL     1       2.750   7.232  19.663  0.00  0.00    +0.000 OA
ATOM     16  H   UNL     1       2.453   8.015  16.583  0.00  0.00    +0.000 HD
BRANCH  13  21
ATOM     17  C   UNL     1       0.020  13.305  18.591  0.00  0.00    +0.000 C 
ATOM     18  C   UNL     1       0.680  11.960  18.530  0.00  0.00    +0.000 A 
ATOM     19  C   UNL     1       2.035  11.850  18.227  0.00  0.00    +0.000 A 
ATOM     20  C   UNL     1       2.606  10.598  17.966  0.00  0.00    +0.000 A 
ATOM     21  C   UNL     1       1.840   9.426  17.988  0.00  0.00    +0.000 A 
ATOM     22  C   UNL     1       0.504   9.533  18.388  0.00  0.00    +0.000 A 
ATOM     23  C   UNL     1      -0.070  10.787  18.665  0.00  0.00    +0.000 A 
ENDBRANCH  13  21
ENDBRANCH   1  14
BRANCH   3  24
ATOM     24  N   UNL     1       5.754   5.401  14.902  0.00  0.00    +0.000 N 
ATOM     25  C   UNL     1       7.073   5.085  14.743  0.00  0.00    +0.000 C 
ATOM     26  O   UNL     1       7.801   4.534  15.576  0.00  0.00    +0.000 OA
ATOM     27  H   UNL     1       5.288   5.922  14.167  0.00  0.00    +0.000 HD
BRANCH  25  28
ATOM     28  C   UNL     1       7.674   5.475  13.459  0.00  0.00    +0.000 C 
ATOM     29  C   UNL     1       7.538   4.735  12.353  0.00  0.00    +0.000 C 
BRANCH  29  30
ATOM     30  C   UNL     1       6.695   3.559  12.073  0.00  0.00    +0.000 C 
ATOM     31  O   UNL     1       5.494   3.640  12.258  0.00  0.00    +0.000 OA
BRANCH  30  32
ATOM     32  O   UNL     1       7.279   2.428  11.651  0.00  0.00    +0.000 OA
ATOM     33  H   UNL     1       7.346   1.710  12.321  0.00  0.00    +0.000 HD
ENDBRANCH  30  32
ENDBRANCH  29  30
ENDBRANCH  25  28
ENDBRANCH   3  24
TORSDOF 7
ENDMDL
MODEL 4
REMARK VINA RESULT:      -8.4      1.294      1.607
REMARK  Name = 
REMARK  8 active torsions:
REMARK  status: ('A' for Active; 'I' for Inactive)
REMARK    1  A    between atoms: C_1  and  C_2
REMARK    2  A    between atoms: C_5  and  N_6
REMARK    3  A    between atoms: C_7  and  C_9
REMARK    4  A    between atoms: C_11  and  N_12
REMARK    5  A    between atoms: C_13  and  C_15
REMARK    6  A    between atoms: C_16  and  C_17
REMARK    7  A    between atoms: C_17  and  O_19
REMARK    8  A    between atoms: C_22  and  N_23
REMARK                            x       y       z     vdW  Elec       q    Type
REMARK                         _______ _______ _______ _____ _____    ______ ____
ROOT
ATOM      1  C   UNL     1       3.447   5.976  17.798  0.00  0.00    +0.000 A 
ATOM      2  C   UNL     1       4.245   6.244  16.663  0.00  0.00    +0.000 A 
ATOM      3  C   UNL     1       5.078   5.274  16.083  0.00  0.00    +0.000 A 
ATOM      4  C   UNL     1       5.203   4.045  16.708  0.00  0.00    +0.000 A 
ATOM      5  C   UNL     1       4.404   3.754  17.813  0.00  0.00    +0.000 A 
ATOM      6  C   UNL     1       3.468   4.671  18.372  0.00  0.00    +0.000 A 
ENDROOT
BRANCH   6   7
ATOM      7  N   UNL     1       2.700   4.140  19.429  0.00  0.00    +0.000 N 
ATOM      8  C   UNL     1       1.281   3.836  19.220  0.00  0.00    +0.000 C 
ATOM      9  C   UNL     1       0.540   3.560  20.525  0.00  0.00    +0.000 C 
ATOM     10  C   UNL     1       1.271   2.559  21.405  0.00  0.00    +0.000 C 
ATOM     11  C   UNL     1       2.711   3.005  21.608  0.00  0.00    +0.000 C 
ATOM     12  C   UNL     1       3.420   3.152  20.261  0.00  0.00    +0.000 C 
ENDBRANCH   6   7
BRANCH   1  14
ATOM     13  N   UNL     1       2.250   8.145  17.492  0.00  0.00    +0.000 N 
ATOM     14  C   UNL     1       2.756   7.187  18.374  0.00  0.00    +0.000 C 
ATOM     15  O   UNL     1       2.747   7.321  19.594  0.00  0.00    +0.000 OA
ATOM     16  H   UNL     1       2.357   7.984  16.497  0.00  0.00    +0.000 HD
BRANCH  13  21
ATOM     17  C   UNL     1       0.427  13.160  19.611  0.00  0.00    +0.000 C 
ATOM     18  C   UNL     1       0.824  11.918  18.873  0.00  0.00    +0.000 A 
ATOM     19  C   UNL     1      -0.053  10.839  18.779  0.00  0.00    +0.000 A 
ATOM     20  C   UNL     1       0.386   9.608  18.277  0.00  0.00    +0.000 A 
ATOM     21  C   UNL     1       1.711   9.415  17.866  0.00  0.00    +0.000 A 
ATOM     22  C   UNL     1       2.559  10.528  17.871  0.00  0.00    +0.000 A 
ATOM     23  C   UNL     1       2.118  11.770  18.363  0.00  0.00    +0.000 A 
ENDBRANCH  13  21
ENDBRANCH   1  14
BRANCH   3  24
ATOM     24  N   UNL     1       5.793   5.472  14.877  0.00  0.00    +0.000 N 
ATOM     25  C   UNL     1       7.104   5.131  14.704  0.00  0.00    +0.000 C 
ATOM     26  O   UNL     1       7.827   4.558  15.526  0.00  0.00    +0.000 OA
ATOM     27  H   UNL     1       5.332   6.009  14.151  0.00  0.00    +0.000 HD
BRANCH  25  28
ATOM     28  C   UNL     1       7.702   5.522  13.419  0.00  0.00    +0.000 C 
ATOM     29  C   UNL     1       7.579   4.773  12.317  0.00  0.00    +0.000 C 
BRANCH  29  30
ATOM     30  C   UNL     1       6.752   3.584  12.043  0.00  0.00    +0.000 C 
ATOM     31  O   UNL     1       7.269   2.619  11.511  0.00  0.00    +0.000 OA
BRANCH  30  32
ATOM     32  O   UNL     1       5.450   3.614  12.362  0.00  0.00    +0.000 OA
ATOM     33  H   UNL     1       5.226   4.100  13.188  0.00  0.00    +0.000 HD
ENDBRANCH  30  32
ENDBRANCH  29  30
ENDBRANCH  25  28
ENDBRANCH   3  24
TORSDOF 7
ENDMDL
MODEL 5
REMARK VINA RESULT:      -8.2      1.010      1.215
REMARK  Name = 
REMARK  8 active torsions:
REMARK  status: ('A' for Active; 'I' for Inactive)
REMARK    1  A    between atoms: C_1  and  C_2
REMARK    2  A    between atoms: C_5  and  N_6
REMARK    3  A    between atoms: C_7  and  C_9
REMARK    4  A    between atoms: C_11  and  N_12
REMARK    5  A    between atoms: C_13  and  C_15
REMARK    6  A    between atoms: C_16  and  C_17
REMARK    7  A    between atoms: C_17  and  O_19
REMARK    8  A    between atoms: C_22  and  N_23
REMARK                            x       y       z     vdW  Elec       q    Type
REMARK                         _______ _______ _______ _____ _____    ______ ____
ROOT
ATOM      1  C   UNL     1       4.181   5.342  17.361  0.00  0.00    +0.000 A 
ATOM      2  C   UNL     1       5.073   5.359  16.265  0.00  0.00    +0.000 A 
ATOM      3  C   UNL     1       5.681   4.194  15.771  0.00  0.00    +0.000 A 
ATOM      4  C   UNL     1       5.483   3.002  16.447  0.00  0.00    +0.000 A 
ATOM      5  C   UNL     1       4.586   2.961  17.514  0.00  0.00    +0.000 A 
ATOM      6  C   UNL     1       3.867   4.098  17.983  0.00  0.00    +0.000 A 
ENDROOT
BRANCH   6   7
ATOM      7  N   UNL     1       2.945   3.814  19.013  0.00  0.00    +0.000 N 
ATOM      8  C   UNL     1       1.547   3.525  18.683  0.00  0.00    +0.000 C 
ATOM      9  C   UNL     1       0.638   3.539  19.909  0.00  0.00    +0.000 C 
ATOM     10  C   UNL     1       1.194   2.707  21.051  0.00  0.00    +0.000 C 
ATOM     11  C   UNL     1       2.624   3.133  21.352  0.00  0.00    +0.000 C 
ATOM     12  C   UNL     1       3.498   2.985  20.106  0.00  0.00    +0.000 C 
ENDBRANCH   6   7
BRANCH   1  14
ATOM     13  N   UNL     1       2.528   6.841  18.479  0.00  0.00    +0.000 N 
ATOM     14  C   UNL     1       3.768   6.708  17.850  0.00  0.00    +0.000 C 
ATOM     15  O   UNL     1       4.502   7.658  17.593  0.00  0.00    +0.000 OA
ATOM     16  H   UNL     1       1.957   6.012  18.594  0.00  0.00    +0.000 HD
BRANCH  13  21
ATOM     17  C   UNL     1      -0.515  11.437  20.087  0.00  0.00    +0.000 C 
ATOM     18  C   UNL     1       0.449  10.361  19.689  0.00  0.00    +0.000 A 
ATOM     19  C   UNL     1       0.816  10.198  18.354  0.00  0.00    +0.000 A 
ATOM     20  C   UNL     1       1.546   9.074  17.949  0.00  0.00    +0.000 A 
ATOM     21  C   UNL     1       1.920   8.078  18.859  0.00  0.00    +0.000 A 
ATOM     22  C   UNL     1       1.633   8.296  20.212  0.00  0.00    +0.000 A 
ATOM     23  C   UNL     1       0.912   9.431  20.624  0.00  0.00    +0.000 A 
ENDBRANCH  13  21
ENDBRANCH   1  14
BRANCH   3  24
ATOM     24  N   UNL     1       6.479   4.159  14.602  0.00  0.00    +0.000 N 
ATOM     25  C   UNL     1       5.981   3.975  13.345  0.00  0.00    +0.000 C 
ATOM     26  O   UNL     1       4.788   3.876  13.036  0.00  0.00    +0.000 OA
ATOM     27  H   UNL     1       7.485   4.148  14.732  0.00  0.00    +0.000 HD
BRANCH  25  28
ATOM     28  C   UNL     1       6.979   3.853  12.273  0.00  0.00    +0.000 C 
ATOM     29  C   UNL     1       7.001   2.812  11.433  0.00  0.00    +0.000 C 
BRANCH  29  30
ATOM     30  C   UNL     1       6.041   1.713  11.229  0.00  0.00    +0.000 C 
ATOM     31  O   UNL     1       6.459   0.572  11.158  0.00  0.00    +0.000 OA
BRANCH  30  32
ATOM     32  O   UNL     1       4.738   2.007  11.100  0.00  0.00    +0.000 OA
ATOM     33  H   UNL     1       4.538   2.861  10.654  0.00  0.00    +0.000 HD
ENDBRANCH  30  32
ENDBRANCH  29  30
ENDBRANCH  25  28
ENDBRANCH   3  24
TORSDOF 7
ENDMDL
MODEL 6
REMARK VINA RESULT:      -8.2      0.972      1.718
REMARK  Name = 
REMARK  8 active torsions:
REMARK  status: ('A' for Active; 'I' for Inactive)
REMARK    1  A    between atoms: C_1  and  C_2
REMARK    2  A    between atoms: C_5  and  N_6
REMARK    3  A    between atoms: C_7  and  C_9
REMARK    4  A    between atoms: C_11  and  N_12
REMARK    5  A    between atoms: C_13  and  C_15
REMARK    6  A    between atoms: C_16  and  C_17
REMARK    7  A    between atoms: C_17  and  O_19
REMARK    8  A    between atoms: C_22  and  N_23
REMARK                            x       y       z     vdW  Elec       q    Type
REMARK                         _______ _______ _______ _____ _____    ______ ____
ROOT
ATOM      1  C   UNL     1       4.124   5.109  17.324  0.00  0.00    +0.000 A 
ATOM      2  C   UNL     1       4.985   5.056  16.204  0.00  0.00    +0.000 A 
ATOM      3  C   UNL     1       5.528   3.852  15.730  0.00  0.00    +0.000 A 
ATOM      4  C   UNL     1       5.298   2.690  16.446  0.00  0.00    +0.000 A 
ATOM      5  C   UNL     1       4.431   2.719  17.538  0.00  0.00    +0.000 A 
ATOM      6  C   UNL     1       3.774   3.898  17.991  0.00  0.00    +0.000 A 
ENDROOT
BRANCH   6   7
ATOM      7  N   UNL     1       2.870   3.685  19.053  0.00  0.00    +0.000 N 
ATOM      8  C   UNL     1       1.481   3.312  18.766  0.00  0.00    +0.000 C 
ATOM      9  C   UNL     1       0.580   3.415  19.994  0.00  0.00    +0.000 C 
ATOM     10  C   UNL     1       1.175   2.723  21.209  0.00  0.00    +0.000 C 
ATOM     11  C   UNL     1       2.589   3.231  21.451  0.00  0.00    +0.000 C 
ATOM     12  C   UNL     1       3.461   2.991  20.218  0.00  0.00    +0.000 C 
ENDBRANCH   6   7
BRANCH   1  14
ATOM     13  N   UNL     1       2.586   6.704  18.475  0.00  0.00    +0.000 N 
ATOM     14  C   UNL     1       3.783   6.505  17.782  0.00  0.00    +0.000 C 
ATOM     15  O   UNL     1       4.530   7.420  17.447  0.00  0.00    +0.000 OA
ATOM     16  H   UNL     1       1.997   5.899  18.654  0.00  0.00    +0.000 HD
BRANCH  13  21
ATOM     17  C   UNL     1      -0.234  11.472  19.982  0.00  0.00    +0.000 C 
ATOM     18  C   UNL     1       0.678  10.339  19.622  0.00  0.00    +0.000 A 
ATOM     19  C   UNL     1       1.114  10.171  18.310  0.00  0.00    +0.000 A 
ATOM     20  C   UNL     1       1.791   9.006  17.929  0.00  0.00    +0.000 A 
ATOM     21  C   UNL     1       2.040   7.973  18.841  0.00  0.00    +0.000 A 
ATOM     22  C   UNL     1       1.687   8.191  20.177  0.00  0.00    +0.000 A 
ATOM     23  C   UNL     1       1.020   9.366  20.567  0.00  0.00    +0.000 A 
ENDBRANCH  13  21
ENDBRANCH   1  14
BRANCH   3  24
ATOM     24  N   UNL     1       6.292   3.748  14.542  0.00  0.00    +0.000 N 
ATOM     25  C   UNL     1       5.749   3.702  13.290  0.00  0.00    +0.000 C 
ATOM     26  O   UNL     1       4.551   3.803  13.006  0.00  0.00    +0.000 OA
ATOM     27  H   UNL     1       7.285   3.576  14.647  0.00  0.00    +0.000 HD
BRANCH  25  28
ATOM     28  C   UNL     1       6.698   3.477  12.190  0.00  0.00    +0.000 C 
ATOM     29  C   UNL     1       7.610   4.390  11.836  0.00  0.00    +0.000 C 
BRANCH  29  30
ATOM     30  C   UNL     1       8.016   5.651  12.480  0.00  0.00    +0.000 C 
ATOM     31  O   UNL     1       8.161   6.644  11.790  0.00  0.00    +0.000 OA
BRANCH  30  32
ATOM     32  O   UNL     1       8.241   5.661  13.802  0.00  0.00    +0.000 OA
ATOM     33  H   UNL     1       8.010   4.830  14.277  0.00  0.00    +0.000 HD
ENDBRANCH  30  32
ENDBRANCH  29  30
ENDBRANCH  25  28
ENDBRANCH   3  24
TORSDOF 7
ENDMDL
MODEL 7
REMARK VINA RESULT:      -8.0      0.638      1.358
REMARK  Name = 
REMARK  8 active torsions:
REMARK  status: ('A' for Active; 'I' for Inactive)
REMARK    1  A    between atoms: C_1  and  C_2
REMARK    2  A    between atoms: C_5  and  N_6
REMARK    3  A    between atoms: C_7  and  C_9
REMARK    4  A    between atoms: C_11  and  N_12
REMARK    5  A    between atoms: C_13  and  C_15
REMARK    6  A    between atoms: C_16  and  C_17
REMARK    7  A    between atoms: C_17  and  O_19
REMARK    8  A    between atoms: C_22  and  N_23
REMARK                            x       y       z     vdW  Elec       q    Type
REMARK                         _______ _______ _______ _____ _____    ______ ____
ROOT
ATOM      1  C   UNL     1       4.053   5.284  17.291  0.00  0.00    +0.000 A 
ATOM      2  C   UNL     1       4.828   5.373  16.112  0.00  0.00    +0.000 A 
ATOM      3  C   UNL     1       5.390   4.245  15.494  0.00  0.00    +0.000 A 
ATOM      4  C   UNL     1       5.270   3.015  16.119  0.00  0.00    +0.000 A 
ATOM      5  C   UNL     1       4.488   2.904  17.267  0.00  0.00    +0.000 A 
ATOM      6  C   UNL     1       3.813   4.004  17.870  0.00  0.00    +0.000 A 
ENDROOT
BRANCH   6   7
ATOM      7  N   UNL     1       3.004   3.652  18.971  0.00  0.00    +0.000 N 
ATOM      8  C   UNL     1       3.363   4.105  20.317  0.00  0.00    +0.000 C 
ATOM      9  C   UNL     1       2.567   3.396  21.409  0.00  0.00    +0.000 C 
ATOM     10  C   UNL     1       1.074   3.395  21.129  0.00  0.00    +0.000 C 
ATOM     11  C   UNL     1       0.811   2.846  19.734  0.00  0.00    +0.000 C 
ATOM     12  C   UNL     1       1.552   3.676  18.686  0.00  0.00    +0.000 C 
ENDBRANCH   6   7
BRANCH   1  14
ATOM     13  N   UNL     1       2.372   6.801  18.341  0.00  0.00    +0.000 N 
ATOM     14  C   UNL     1       3.683   6.615  17.895  0.00  0.00    +0.000 C 
ATOM     15  O   UNL     1       4.527   7.507  17.886  0.00  0.00    +0.000 OA
ATOM     16  H   UNL     1       1.722   6.029  18.252  0.00  0.00    +0.000 HD
BRANCH  13  21
ATOM     17  C   UNL     1       0.793  12.043  20.072  0.00  0.00    +0.000 C 
ATOM     18  C   UNL     1       0.998  10.631  19.615  0.00  0.00    +0.000 A 
ATOM     19  C   UNL     1       1.124   9.598  20.541  0.00  0.00    +0.000 A 
ATOM     20  C   UNL     1       1.522   8.319  20.131  0.00  0.00    +0.000 A 
ATOM     21  C   UNL     1       1.816   8.039  18.791  0.00  0.00    +0.000 A 
ATOM     22  C   UNL     1       1.594   9.054  17.854  0.00  0.00    +0.000 A 
ATOM     23  C   UNL     1       1.181  10.336  18.260  0.00  0.00    +0.000 A 
ENDBRANCH  13  21
ENDBRANCH   1  14
BRANCH   3  24
ATOM     24  N   UNL     1       6.064   4.285  14.250  0.00  0.00    +0.000 N 
ATOM     25  C   UNL     1       7.196   5.014  14.020  0.00  0.00    +0.000 C 
ATOM     26  O   UNL     1       7.821   5.680  14.853  0.00  0.00    +0.000 OA
ATOM     27  H   UNL     1       5.604   3.843  13.462  0.00  0.00    +0.000 HD
BRANCH  25  28
ATOM     28  C   UNL     1       7.682   5.019  12.632  0.00  0.00    +0.000 C 
ATOM     29  C   UNL     1       7.215   4.171  11.709  0.00  0.00    +0.000 C 
BRANCH  29  30
ATOM     30  C   UNL     1       6.082   3.229  11.746  0.00  0.00    +0.000 C 
ATOM     31  O   UNL     1       4.950   3.669  11.664  0.00  0.00    +0.000 OA
BRANCH  30  32
ATOM     32  O   UNL     1       6.332   1.920  11.897  0.00  0.00    +0.000 OA
ATOM     33  H   UNL     1       7.073   1.564  11.355  0.00  0.00    +0.000 HD
ENDBRANCH  30  32
ENDBRANCH  29  30
ENDBRANCH  25  28
ENDBRANCH   3  24
TORSDOF 7
ENDMDL
MODEL 8
REMARK VINA RESULT:      -7.8      4.249      7.705
REMARK  Name = 
REMARK  8 active torsions:
REMARK  status: ('A' for Active; 'I' for Inactive)
REMARK    1  A    between atoms: C_1  and  C_2
REMARK    2  A    between atoms: C_5  and  N_6
REMARK    3  A    between atoms: C_7  and  C_9
REMARK    4  A    between atoms: C_11  and  N_12
REMARK    5  A    between atoms: C_13  and  C_15
REMARK    6  A    between atoms: C_16  and  C_17
REMARK    7  A    between atoms: C_17  and  O_19
REMARK    8  A    between atoms: C_22  and  N_23
REMARK                            x       y       z     vdW  Elec       q    Type
REMARK                         _______ _______ _______ _____ _____    ______ ____
ROOT
ATOM      1  C   UNL     1       0.893   9.548  20.977  0.00  0.00    +0.000 A 
ATOM      2  C   UNL     1       1.314   8.243  21.319  0.00  0.00    +0.000 A 
ATOM      3  C   UNL     1       1.871   7.361  20.380  0.00  0.00    +0.000 A 
ATOM      4  C   UNL     1       1.911   7.744  19.050  0.00  0.00    +0.000 A 
ATOM      5  C   UNL     1       1.525   9.037  18.698  0.00  0.00    +0.000 A 
ATOM      6  C   UNL     1       1.052  10.000  19.634  0.00  0.00    +0.000 A 
ENDROOT
BRANCH   6   7
ATOM      7  N   UNL     1       0.804  11.273  19.078  0.00  0.00    +0.000 N 
ATOM      8  C   UNL     1      -0.574  11.702  18.823  0.00  0.00    +0.000 C 
ATOM      9  C   UNL     1      -0.648  12.956  17.955  0.00  0.00    +0.000 C 
ATOM     10  C   UNL     1       0.268  14.060  18.454  0.00  0.00    +0.000 C 
ATOM     11  C   UNL     1       1.682  13.522  18.621  0.00  0.00    +0.000 C 
ATOM     12  C   UNL     1       1.691  12.340  19.590  0.00  0.00    +0.000 C 
ENDBRANCH   6   7
BRANCH   1  14
ATOM     13  N   UNL     1      -0.720  11.298  21.728  0.00  0.00    +0.000 N 
ATOM     14  C   UNL     1       0.167  10.278  22.079  0.00  0.00    +0.000 C 
ATOM     15  O   UNL     1       0.455  10.002  23.240  0.00  0.00    +0.000 OA
ATOM     16  H   UNL     1      -0.850  11.503  20.744  0.00  0.00    +0.000 HD
BRANCH  13  21
ATOM     17  C   UNL     1      -3.742  15.040  24.864  0.00  0.00    +0.000 C 
ATOM     18  C   UNL     1      -2.868  14.003  24.228  0.00  0.00    +0.000 A 
ATOM     19  C   UNL     1      -1.579  14.325  23.808  0.00  0.00    +0.000 A 
ATOM     20  C   UNL     1      -0.839  13.425  23.031  0.00  0.00    +0.000 A 
ATOM     21  C   UNL     1      -1.366  12.187  22.643  0.00  0.00    +0.000 A 
ATOM     22  C   UNL     1      -2.621  11.830  23.150  0.00  0.00    +0.000 A 
ATOM     23  C   UNL     1      -3.362  12.726  23.942  0.00  0.00    +0.000 A 
ENDBRANCH  13  21
ENDBRANCH   1  14
BRANCH   3  24
ATOM     24  N   UNL     1       2.414   6.097  20.715  0.00  0.00    +0.000 N 
ATOM     25  C   UNL     1       1.689   4.941  20.749  0.00  0.00    +0.000 C 
ATOM     26  O   UNL     1       0.498   4.813  20.442  0.00  0.00    +0.000 OA
ATOM     27  H   UNL     1       3.366   6.083  21.065  0.00  0.00    +0.000 HD
BRANCH  25  28
ATOM     28  C   UNL     1       2.405   3.751  21.232  0.00  0.00    +0.000 C 
ATOM     29  C   UNL     1       2.786   2.766  20.412  0.00  0.00    +0.000 C 
BRANCH  29  30
ATOM     30  C   UNL     1       2.779   2.675  18.941  0.00  0.00    +0.000 C 
ATOM     31  O   UNL     1       3.545   3.377  18.305  0.00  0.00    +0.000 OA
BRANCH  30  32
ATOM     32  O   UNL     1       1.911   1.843  18.347  0.00  0.00    +0.000 OA
ATOM     33  H   UNL     1       0.961   2.085  18.438  0.00  0.00    +0.000 HD
ENDBRANCH  30  32
ENDBRANCH  29  30
ENDBRANCH  25  28
ENDBRANCH   3  24
TORSDOF 7
ENDMDL
MODEL 9
REMARK VINA RESULT:      -7.6      4.200      7.742
REMARK  Name = 
REMARK  8 active torsions:
REMARK  status: ('A' for Active; 'I' for Inactive)
REMARK    1  A    between atoms: C_1  and  C_2
REMARK    2  A    between atoms: C_5  and  N_6
REMARK    3  A    between atoms: C_7  and  C_9
REMARK    4  A    between atoms: C_11  and  N_12
REMARK    5  A    between atoms: C_13  and  C_15
REMARK    6  A    between atoms: C_16  and  C_17
REMARK    7  A    between atoms: C_17  and  O_19
REMARK    8  A    between atoms: C_22  and  N_23
REMARK                            x       y       z     vdW  Elec       q    Type
REMARK                         _______ _______ _______ _____ _____    ______ ____
ROOT
ATOM      1  C   UNL     1       0.811   9.458  21.204  0.00  0.00    +0.000 A 
ATOM      2  C   UNL     1       1.190   8.146  21.568  0.00  0.00    +0.000 A 
ATOM      3  C   UNL     1       1.773   7.251  20.657  0.00  0.00    +0.000 A 
ATOM      4  C   UNL     1       1.882   7.630  19.330  0.00  0.00    +0.000 A 
ATOM      5  C   UNL     1       1.537   8.929  18.958  0.00  0.00    +0.000 A 
ATOM      6  C   UNL     1       1.041   9.904  19.869  0.00  0.00    +0.000 A 
ENDROOT
BRANCH   6   7
ATOM      7  N   UNL     1       0.843  11.179  19.299  0.00  0.00    +0.000 N 
ATOM      8  C   UNL     1       1.955  11.862  18.632  0.00  0.00    +0.000 C 
ATOM      9  C   UNL     1       1.655  13.331  18.345  0.00  0.00    +0.000 C 
ATOM     10  C   UNL     1       0.308  13.526  17.672  0.00  0.00    +0.000 C 
ATOM     11  C   UNL     1      -0.779  12.833  18.481  0.00  0.00    +0.000 C 
ATOM     12  C   UNL     1      -0.466  11.345  18.630  0.00  0.00    +0.000 C 
ENDBRANCH   6   7
BRANCH   1  14
ATOM     13  N   UNL     1      -0.767  11.270  21.881  0.00  0.00    +0.000 N 
ATOM     14  C   UNL     1       0.049  10.205  22.270  0.00  0.00    +0.000 C 
ATOM     15  O   UNL     1       0.248   9.899  23.443  0.00  0.00    +0.000 OA
ATOM     16  H   UNL     1      -0.824  11.494  20.895  0.00  0.00    +0.000 HD
BRANCH  13  21
ATOM     17  C   UNL     1      -3.834  15.080  24.889  0.00  0.00    +0.000 C 
ATOM     18  C   UNL     1      -2.955  14.024  24.290  0.00  0.00    +0.000 A 
ATOM     19  C   UNL     1      -1.646  14.320  23.917  0.00  0.00    +0.000 A 
ATOM     20  C   UNL     1      -0.894  13.403  23.171  0.00  0.00    +0.000 A 
ATOM     21  C   UNL     1      -1.430  12.174  22.768  0.00  0.00    +0.000 A 
ATOM     22  C   UNL     1      -2.709  11.843  23.230  0.00  0.00    +0.000 A 
ATOM     23  C   UNL     1      -3.462  12.755  23.990  0.00  0.00    +0.000 A 
ENDBRANCH  13  21
ENDBRANCH   1  14
BRANCH   3  24
ATOM     24  N   UNL     1       2.276   5.978  21.018  0.00  0.00    +0.000 N 
ATOM     25  C   UNL     1       1.629   4.803  20.762  0.00  0.00    +0.000 C 
ATOM     26  O   UNL     1       0.570   4.669  20.140  0.00  0.00    +0.000 OA
ATOM     27  H   UNL     1       3.101   5.959  21.608  0.00  0.00    +0.000 HD
BRANCH  25  28
ATOM     28  C   UNL     1       2.256   3.595  21.319  0.00  0.00    +0.000 C 
ATOM     29  C   UNL     1       3.127   2.857  20.621  0.00  0.00    +0.000 C 
BRANCH  29  30
ATOM     30  C   UNL     1       3.786   3.105  19.327  0.00  0.00    +0.000 C 
ATOM     31  O   UNL     1       3.106   3.142  18.319  0.00  0.00    +0.000 OA
BRANCH  30  32
ATOM     32  O   UNL     1       5.119   3.254  19.297  0.00  0.00    +0.000 OA
ATOM     33  H   UNL     1       5.442   4.184  19.303  0.00  0.00    +0.000 HD
ENDBRANCH  30  32
ENDBRANCH  29  30
ENDBRANCH  25  28
ENDBRANCH   3  24
TORSDOF 7
ENDMDL
