MODEL 1
REMARK VINA RESULT:      -7.1      0.000      0.000
REMARK  Name = 
REMARK  9 active torsions:
REMARK  status: ('A' for Active; 'I' for Inactive)
REMARK    1  A    between atoms: N_1  and  C_2
REMARK    2  A    between atoms: C_2  and  C_3
REMARK    3  A    between atoms: C_3  and  N_4
REMARK    4  A    between atoms: N_4  and  C_5
REMARK    5  A    between atoms: C_5  and  C_6
REMARK    6  A    between atoms: C_18  and  N_19
REMARK    7  A    between atoms: N_19  and  C_20
REMARK    8  A    between atoms: C_20  and  C_21
REMARK    9  A    between atoms: C_21  and  N_22
REMARK                            x       y       z     vdW  Elec       q    Type
REMARK                         _______ _______ _______ _____ _____    ______ ____
ROOT
ATOM      1  C   UNL     1       2.211   8.207  18.067  0.00  0.00    +0.000 A 
ATOM      2  N   UNL     1       3.331   8.148  17.299  0.00  0.00    +0.000 NA
ATOM      3  N   UNL     1       3.949   7.047  17.794  0.00  0.00    +0.000 N 
ATOM      4  C   UNL     1       5.320   6.726  17.797  0.00  0.00    +0.000 A 
ATOM      5  C   UNL     1       6.284   7.609  17.313  0.00  0.00    +0.000 A 
ATOM      6  C   UNL     1       7.635   7.319  17.532  0.00  0.00    +0.000 A 
ATOM      7  C   UNL     1       8.016   6.158  18.219  0.00  0.00    +0.000 A 
ATOM      8  C   UNL     1       7.054   5.261  18.692  0.00  0.00    +0.000 A 
ATOM      9  C   UNL     1       5.696   5.537  18.475  0.00  0.00    +0.000 A 
ATOM     10  C   UNL     1       4.665   4.600  19.067  0.00  0.00    +0.000 A 
ATOM     11  O   UNL     1       4.966   3.507  19.543  0.00  0.00    +0.000 OA
ATOM     12  C   UNL     1       3.255   5.049  19.072  0.00  0.00    +0.000 A 
ATOM     13  C   UNL     1       2.267   4.677  20.000  0.00  0.00    +0.000 A 
ATOM     14  C   UNL     1       1.920   5.694  20.907  0.00  0.00    +0.000 A 
ATOM     15  C   UNL     1       1.766   6.994  20.394  0.00  0.00    +0.000 A 
ATOM     16  C   UNL     1       2.254   7.247  19.100  0.00  0.00    +0.000 A 
ATOM     17  C   UNL     1       3.088   6.306  18.543  0.00  0.00    +0.000 A 
ENDROOT
BRANCH  13  18
ATOM     18  N   UNL     1       0.960   4.083  19.475  0.00  0.00    +0.000 N 
ATOM     19  H   UNL     1       0.531   4.841  18.933  0.00  0.00    +0.000 HD
BRANCH  18  20
ATOM     20  C   UNL     1       1.189   2.998  18.498  0.00  0.00    +0.000 C 
BRANCH  20  21
ATOM     21  C   UNL     1       1.877   1.759  19.103  0.00  0.00    +0.000 C 
BRANCH  21  22
ATOM     22  N   UNL     1       3.108   1.357  18.406  0.00  0.00    +0.000 NA
ATOM     23  H   UNL     1       3.219   0.349  18.481  0.00  0.00    +0.000 HD
ATOM     24  H   UNL     1       3.911   1.760  18.896  0.00  0.00    +0.000 HD
ENDBRANCH  21  22
ENDBRANCH  20  21
ENDBRANCH  18  20
ENDBRANCH  13  18
BRANCH   1  25
ATOM     25  C   UNL     1       1.054   9.105  17.769  0.00  0.00    +0.000 C 
BRANCH  25  26
ATOM     26  N   UNL     1       1.412  10.522  17.885  0.00  0.00    +0.000 NA
ATOM     27  H   UNL     1       2.371  10.547  18.242  0.00  0.00    +0.000 HD
BRANCH  26  28
ATOM     28  C   UNL     1       0.576  11.211  18.880  0.00  0.00    +0.000 C 
BRANCH  28  29
ATOM     29  C   UNL     1      -0.880  11.437  18.428  0.00  0.00    +0.000 C 
BRANCH  29  30
ATOM     30  N   UNL     1      -1.005  12.643  17.602  0.00  0.00    +0.000 NA
ATOM     31  H   UNL     1      -1.641  13.291  18.067  0.00  0.00    +0.000 HD
ATOM     32  H   UNL     1      -1.457  12.392  16.722  0.00  0.00    +0.000 HD
ENDBRANCH  29  30
ENDBRANCH  28  29
ENDBRANCH  26  28
ENDBRANCH  25  26
ENDBRANCH   1  25
TORSDOF 9
ENDMDL
MODEL 2
REMARK VINA RESULT:      -6.8      4.112      6.331
REMARK  Name = 
REMARK  9 active torsions:
REMARK  status: ('A' for Active; 'I' for Inactive)
REMARK    1  A    between atoms: N_1  and  C_2
REMARK    2  A    between atoms: C_2  and  C_3
REMARK    3  A    between atoms: C_3  and  N_4
REMARK    4  A    between atoms: N_4  and  C_5
REMARK    5  A    between atoms: C_5  and  C_6
REMARK    6  A    between atoms: C_18  and  N_19
REMARK    7  A    between atoms: N_19  and  C_20
REMARK    8  A    between atoms: C_20  and  C_21
REMARK    9  A    between atoms: C_21  and  N_22
REMARK                            x       y       z     vdW  Elec       q    Type
REMARK                         _______ _______ _______ _____ _____    ______ ____
ROOT
ATOM      1  C   UNL     1       6.607   5.751  18.757  0.00  0.00    +0.000 A 
ATOM      2  N   UNL     1       5.901   5.140  19.745  0.00  0.00    +0.000 NA
ATOM      3  N   UNL     1       4.900   4.548  19.046  0.00  0.00    +0.000 N 
ATOM      4  C   UNL     1       3.606   4.197  19.474  0.00  0.00    +0.000 A 
ATOM      5  C   UNL     1       3.145   4.507  20.754  0.00  0.00    +0.000 A 
ATOM      6  C   UNL     1       1.790   4.316  21.046  0.00  0.00    +0.000 A 
ATOM      7  C   UNL     1       0.911   3.816  20.075  0.00  0.00    +0.000 A 
ATOM      8  C   UNL     1       1.372   3.489  18.797  0.00  0.00    +0.000 A 
ATOM      9  C   UNL     1       2.728   3.670  18.492  0.00  0.00    +0.000 A 
ATOM     10  C   UNL     1       3.194   3.391  17.079  0.00  0.00    +0.000 A 
ATOM     11  O   UNL     1       2.485   2.818  16.253  0.00  0.00    +0.000 OA
ATOM     12  C   UNL     1       4.550   3.850  16.702  0.00  0.00    +0.000 A 
ATOM     13  C   UNL     1       4.975   4.216  15.413  0.00  0.00    +0.000 A 
ATOM     14  C   UNL     1       5.161   5.599  15.242  0.00  0.00    +0.000 A 
ATOM     15  C   UNL     1       5.802   6.299  16.280  0.00  0.00    +0.000 A 
ATOM     16  C   UNL     1       5.938   5.649  17.519  0.00  0.00    +0.000 A 
ATOM     17  C   UNL     1       5.198   4.507  17.719  0.00  0.00    +0.000 A 
ENDROOT
BRANCH  13  18
ATOM     18  N   UNL     1       6.207   3.526  14.828  0.00  0.00    +0.000 N 
ATOM     19  H   UNL     1       5.933   2.541  14.737  0.00  0.00    +0.000 HD
BRANCH  18  20
ATOM     20  C   UNL     1       6.497   3.970  13.449  0.00  0.00    +0.000 C 
BRANCH  20  21
ATOM     21  C   UNL     1       5.617   3.288  12.382  0.00  0.00    +0.000 C 
BRANCH  21  22
ATOM     22  N   UNL     1       6.208   2.071  11.807  0.00  0.00    +0.000 NA
ATOM     23  H   UNL     1       5.476   1.523  11.363  0.00  0.00    +0.000 HD
ATOM     24  H   UNL     1       6.567   1.488  12.567  0.00  0.00    +0.000 HD
ENDBRANCH  21  22
ENDBRANCH  20  21
ENDBRANCH  18  20
ENDBRANCH  13  18
BRANCH   1  25
ATOM     25  C   UNL     1       7.961   6.349  18.962  0.00  0.00    +0.000 C 
BRANCH  25  26
ATOM     26  N   UNL     1       8.184   7.516  18.105  0.00  0.00    +0.000 NA
ATOM     27  H   UNL     1       8.923   7.253  17.448  0.00  0.00    +0.000 HD
BRANCH  26  28
ATOM     28  C   UNL     1       8.693   8.662  18.873  0.00  0.00    +0.000 C 
BRANCH  28  29
ATOM     29  C   UNL     1       8.636  10.003  18.116  0.00  0.00    +0.000 C 
BRANCH  29  30
ATOM     30  N   UNL     1       9.687  10.921  18.569  0.00  0.00    +0.000 NA
ATOM     31  H   UNL     1       9.259  11.645  19.145  0.00  0.00    +0.000 HD
ATOM     32  H   UNL     1      10.073  11.403  17.757  0.00  0.00    +0.000 HD
ENDBRANCH  29  30
ENDBRANCH  28  29
ENDBRANCH  26  28
ENDBRANCH  25  26
ENDBRANCH   1  25
TORSDOF 9
ENDMDL
MODEL 3
REMARK VINA RESULT:      -6.8      1.893      4.590
REMARK  Name = 
REMARK  9 active torsions:
REMARK  status: ('A' for Active; 'I' for Inactive)
REMARK    1  A    between atoms: N_1  and  C_2
REMARK    2  A    between atoms: C_2  and  C_3
REMARK    3  A    between atoms: C_3  and  N_4
REMARK    4  A    between atoms: N_4  and  C_5
REMARK    5  A    between atoms: C_5  and  C_6
REMARK    6  A    between atoms: C_18  and  N_19
REMARK    7  A    between atoms: N_19  and  C_20
REMARK    8  A    between atoms: C_20  and  C_21
REMARK    9  A    between atoms: C_21  and  N_22
REMARK                            x       y       z     vdW  Elec       q    Type
REMARK                         _______ _______ _______ _____ _____    ______ ____
ROOT
ATOM      1  C   UNL     1       2.657   8.114  18.130  0.00  0.00    +0.000 A 
ATOM      2  N   UNL     1       2.203   7.511  19.261  0.00  0.00    +0.000 NA
ATOM      3  N   UNL     1       2.972   6.394  19.307  0.00  0.00    +0.000 N 
ATOM      4  C   UNL     1       2.694   5.150  19.903  0.00  0.00    +0.000 A 
ATOM      5  C   UNL     1       1.465   4.880  20.505  0.00  0.00    +0.000 A 
ATOM      6  C   UNL     1       1.179   3.567  20.893  0.00  0.00    +0.000 A 
ATOM      7  C   UNL     1       2.111   2.540  20.690  0.00  0.00    +0.000 A 
ATOM      8  C   UNL     1       3.350   2.809  20.102  0.00  0.00    +0.000 A 
ATOM      9  C   UNL     1       3.653   4.121  19.712  0.00  0.00    +0.000 A 
ATOM     10  C   UNL     1       4.964   4.380  19.002  0.00  0.00    +0.000 A 
ATOM     11  O   UNL     1       5.856   3.536  18.940  0.00  0.00    +0.000 OA
ATOM     12  C   UNL     1       5.143   5.698  18.353  0.00  0.00    +0.000 A 
ATOM     13  C   UNL     1       5.941   5.970  17.228  0.00  0.00    +0.000 A 
ATOM     14  C   UNL     1       5.211   6.212  16.052  0.00  0.00    +0.000 A 
ATOM     15  C   UNL     1       4.067   7.023  16.154  0.00  0.00    +0.000 A 
ATOM     16  C   UNL     1       3.565   7.283  17.442  0.00  0.00    +0.000 A 
ATOM     17  C   UNL     1       4.043   6.512  18.475  0.00  0.00    +0.000 A 
ENDROOT
BRANCH  13  18
ATOM     18  N   UNL     1       6.995   7.072  17.332  0.00  0.00    +0.000 N 
ATOM     19  H   UNL     1       6.457   7.945  17.343  0.00  0.00    +0.000 HD
BRANCH  18  20
ATOM     20  C   UNL     1       7.707   7.047  18.627  0.00  0.00    +0.000 C 
BRANCH  20  21
ATOM     21  C   UNL     1       8.265   5.658  18.998  0.00  0.00    +0.000 C 
BRANCH  21  22
ATOM     22  N   UNL     1       8.135   5.322  20.423  0.00  0.00    +0.000 NA
ATOM     23  H   UNL     1       7.160   5.120  20.631  0.00  0.00    +0.000 HD
ATOM     24  H   UNL     1       8.370   6.147  20.980  0.00  0.00    +0.000 HD
ENDBRANCH  21  22
ENDBRANCH  20  21
ENDBRANCH  18  20
ENDBRANCH  13  18
BRANCH   1  25
ATOM     25  C   UNL     1       2.306   9.517  17.749  0.00  0.00    +0.000 C 
BRANCH  25  26
ATOM     26  N   UNL     1       0.857   9.740  17.743  0.00  0.00    +0.000 NA
ATOM     27  H   UNL     1       0.639  10.185  16.848  0.00  0.00    +0.000 HD
BRANCH  26  28
ATOM     28  C   UNL     1       0.452  10.687  18.793  0.00  0.00    +0.000 C 
BRANCH  28  29
ATOM     29  C   UNL     1      -0.308  10.038  19.965  0.00  0.00    +0.000 C 
BRANCH  29  30
ATOM     30  N   UNL     1       0.613   9.557  21.002  0.00  0.00    +0.000 NA
ATOM     31  H   UNL     1       1.510   9.346  20.567  0.00  0.00    +0.000 HD
ATOM     32  H   UNL     1       0.263   8.670  21.365  0.00  0.00    +0.000 HD
ENDBRANCH  29  30
ENDBRANCH  28  29
ENDBRANCH  26  28
ENDBRANCH  25  26
ENDBRANCH   1  25
TORSDOF 9
ENDMDL
MODEL 4
REMARK VINA RESULT:      -6.8      2.454      5.366
REMARK  Name = 
REMARK  9 active torsions:
REMARK  status: ('A' for Active; 'I' for Inactive)
REMARK    1  A    between atoms: N_1  and  C_2
REMARK    2  A    between atoms: C_2  and  C_3
REMARK    3  A    between atoms: C_3  and  N_4
REMARK    4  A    between atoms: N_4  and  C_5
REMARK    5  A    between atoms: C_5  and  C_6
REMARK    6  A    between atoms: C_18  and  N_19
REMARK    7  A    between atoms: N_19  and  C_20
REMARK    8  A    between atoms: C_20  and  C_21
REMARK    9  A    between atoms: C_21  and  N_22
REMARK                            x       y       z     vdW  Elec       q    Type
REMARK                         _______ _______ _______ _____ _____    ______ ____
ROOT
ATOM      1  C   UNL     1       3.669   5.257  17.451  0.00  0.00    +0.000 A 
ATOM      2  N   UNL     1       3.855   6.603  17.432  0.00  0.00    +0.000 NA
ATOM      3  N   UNL     1       3.037   7.010  18.434  0.00  0.00    +0.000 N 
ATOM      4  C   UNL     1       2.399   8.252  18.610  0.00  0.00    +0.000 A 
ATOM      5  C   UNL     1       2.488   9.267  17.657  0.00  0.00    +0.000 A 
ATOM      6  C   UNL     1       1.669  10.392  17.793  0.00  0.00    +0.000 A 
ATOM      7  C   UNL     1       0.779  10.506  18.870  0.00  0.00    +0.000 A 
ATOM      8  C   UNL     1       0.698   9.500  19.836  0.00  0.00    +0.000 A 
ATOM      9  C   UNL     1       1.516   8.368  19.716  0.00  0.00    +0.000 A 
ATOM     10  C   UNL     1       1.357   7.250  20.724  0.00  0.00    +0.000 A 
ATOM     11  O   UNL     1       0.697   7.381  21.753  0.00  0.00    +0.000 OA
ATOM     12  C   UNL     1       2.017   5.959  20.425  0.00  0.00    +0.000 A 
ATOM     13  C   UNL     1       1.589   4.689  20.850  0.00  0.00    +0.000 A 
ATOM     14  C   UNL     1       1.029   3.902  19.829  0.00  0.00    +0.000 A 
ATOM     15  C   UNL     1       1.676   3.903  18.580  0.00  0.00    +0.000 A 
ATOM     16  C   UNL     1       2.639   4.899  18.346  0.00  0.00    +0.000 A 
ATOM     17  C   UNL     1       2.679   5.959  19.222  0.00  0.00    +0.000 A 
ENDROOT
BRANCH  13  18
ATOM     18  N   UNL     1       2.580   3.802  21.603  0.00  0.00    +0.000 N 
ATOM     19  H   UNL     1       2.133   3.626  22.510  0.00  0.00    +0.000 HD
BRANCH  18  20
ATOM     20  C   UNL     1       2.722   2.467  20.983  0.00  0.00    +0.000 C 
BRANCH  20  21
ATOM     21  C   UNL     1       4.181   1.974  20.909  0.00  0.00    +0.000 C 
BRANCH  21  22
ATOM     22  N   UNL     1       4.837   2.236  19.620  0.00  0.00    +0.000 NA
ATOM     23  H   UNL     1       4.213   1.960  18.866  0.00  0.00    +0.000 HD
ATOM     24  H   UNL     1       5.655   1.626  19.537  0.00  0.00    +0.000 HD
ENDBRANCH  21  22
ENDBRANCH  20  21
ENDBRANCH  18  20
ENDBRANCH  13  18
BRANCH   1  25
ATOM     25  C   UNL     1       4.531   4.296  16.695  0.00  0.00    +0.000 C 
BRANCH  25  26
ATOM     26  N   UNL     1       5.754   3.959  17.429  0.00  0.00    +0.000 NA
ATOM     27  H   UNL     1       5.633   4.331  18.374  0.00  0.00    +0.000 HD
BRANCH  26  28
ATOM     28  C   UNL     1       6.930   4.633  16.859  0.00  0.00    +0.000 C 
BRANCH  28  29
ATOM     29  C   UNL     1       7.390   5.871  17.651  0.00  0.00    +0.000 C 
BRANCH  29  30
ATOM     30  N   UNL     1       7.059   7.114  16.947  0.00  0.00    +0.000 NA
ATOM     31  H   UNL     1       7.918   7.516  16.575  0.00  0.00    +0.000 HD
ATOM     32  H   UNL     1       6.704   7.790  17.624  0.00  0.00    +0.000 HD
ENDBRANCH  29  30
ENDBRANCH  28  29
ENDBRANCH  26  28
ENDBRANCH  25  26
ENDBRANCH   1  25
TORSDOF 9
ENDMDL
MODEL 5
REMARK VINA RESULT:      -6.8      1.723      4.510
REMARK  Name = 
REMARK  9 active torsions:
REMARK  status: ('A' for Active; 'I' for Inactive)
REMARK    1  A    between atoms: N_1  and  C_2
REMARK    2  A    between atoms: C_2  and  C_3
REMARK    3  A    between atoms: C_3  and  N_4
REMARK    4  A    between atoms: N_4  and  C_5
REMARK    5  A    between atoms: C_5  and  C_6
REMARK    6  A    between atoms: C_18  and  N_19
REMARK    7  A    between atoms: N_19  and  C_20
REMARK    8  A    between atoms: C_20  and  C_21
REMARK    9  A    between atoms: C_21  and  N_22
REMARK                            x       y       z     vdW  Elec       q    Type
REMARK                         _______ _______ _______ _____ _____    ______ ____
ROOT
ATOM      1  C   UNL     1       2.308   8.047  18.324  0.00  0.00    +0.000 A 
ATOM      2  N   UNL     1       1.781   7.354  19.369  0.00  0.00    +0.000 NA
ATOM      3  N   UNL     1       2.621   6.292  19.448  0.00  0.00    +0.000 N 
ATOM      4  C   UNL     1       2.373   5.001  19.952  0.00  0.00    +0.000 A 
ATOM      5  C   UNL     1       1.110   4.616  20.401  0.00  0.00    +0.000 A 
ATOM      6  C   UNL     1       0.882   3.268  20.695  0.00  0.00    +0.000 A 
ATOM      7  C   UNL     1       1.904   2.319  20.549  0.00  0.00    +0.000 A 
ATOM      8  C   UNL     1       3.175   2.703  20.115  0.00  0.00    +0.000 A 
ATOM      9  C   UNL     1       3.420   4.052  19.822  0.00  0.00    +0.000 A 
ATOM     10  C   UNL     1       4.777   4.437  19.274  0.00  0.00    +0.000 A 
ATOM     11  O   UNL     1       5.731   3.661  19.273  0.00  0.00    +0.000 OA
ATOM     12  C   UNL     1       4.927   5.798  18.710  0.00  0.00    +0.000 A 
ATOM     13  C   UNL     1       5.819   6.183  17.694  0.00  0.00    +0.000 A 
ATOM     14  C   UNL     1       5.203   6.437  16.456  0.00  0.00    +0.000 A 
ATOM     15  C   UNL     1       3.998   7.162  16.469  0.00  0.00    +0.000 A 
ATOM     16  C   UNL     1       3.344   7.318  17.703  0.00  0.00    +0.000 A 
ATOM     17  C   UNL     1       3.763   6.527  18.747  0.00  0.00    +0.000 A 
ENDROOT
BRANCH  13  18
ATOM     18  N   UNL     1       6.772   7.348  17.965  0.00  0.00    +0.000 N 
ATOM     19  H   UNL     1       6.377   7.821  18.785  0.00  0.00    +0.000 HD
BRANCH  18  20
ATOM     20  C   UNL     1       8.110   6.890  18.396  0.00  0.00    +0.000 C 
BRANCH  20  21
ATOM     21  C   UNL     1       8.113   5.467  18.991  0.00  0.00    +0.000 C 
BRANCH  21  22
ATOM     22  N   UNL     1       8.117   5.433  20.461  0.00  0.00    +0.000 NA
ATOM     23  H   UNL     1       8.925   4.906  20.780  0.00  0.00    +0.000 HD
ATOM     24  H   UNL     1       7.300   4.906  20.780  0.00  0.00    +0.000 HD
ENDBRANCH  21  22
ENDBRANCH  20  21
ENDBRANCH  18  20
ENDBRANCH  13  18
BRANCH   1  25
ATOM     25  C   UNL     1       1.898   9.441  17.971  0.00  0.00    +0.000 C 
BRANCH  25  26
ATOM     26  N   UNL     1       1.058  10.047  19.008  0.00  0.00    +0.000 NA
ATOM     27  H   UNL     1       0.852   9.305  19.681  0.00  0.00    +0.000 HD
BRANCH  26  28
ATOM     28  C   UNL     1      -0.234  10.493  18.465  0.00  0.00    +0.000 C 
BRANCH  28  29
ATOM     29  C   UNL     1      -0.500  12.001  18.634  0.00  0.00    +0.000 C 
BRANCH  29  30
ATOM     30  N   UNL     1      -1.252  12.545  17.498  0.00  0.00    +0.000 NA
ATOM     31  H   UNL     1      -1.318  13.557  17.607  0.00  0.00    +0.000 HD
ATOM     32  H   UNL     1      -2.210  12.197  17.542  0.00  0.00    +0.000 HD
ENDBRANCH  29  30
ENDBRANCH  28  29
ENDBRANCH  26  28
ENDBRANCH  25  26
ENDBRANCH   1  25
TORSDOF 9
ENDMDL
MODEL 6
REMARK VINA RESULT:      -6.7      2.715      6.280
REMARK  Name = 
REMARK  9 active torsions:
REMARK  status: ('A' for Active; 'I' for Inactive)
REMARK    1  A    between atoms: N_1  and  C_2
REMARK    2  A    between atoms: C_2  and  C_3
REMARK    3  A    between atoms: C_3  and  N_4
REMARK    4  A    between atoms: N_4  and  C_5
REMARK    5  A    between atoms: C_5  and  C_6
REMARK    6  A    between atoms: C_18  and  N_19
REMARK    7  A    between atoms: N_19  and  C_20
REMARK    8  A    between atoms: C_20  and  C_21
REMARK    9  A    between atoms: C_21  and  N_22
REMARK                            x       y       z     vdW  Elec       q    Type
REMARK                         _______ _______ _______ _____ _____    ______ ____
ROOT
ATOM      1  C   UNL     1       3.520   4.368  20.111  0.00  0.00    +0.000 A 
ATOM      2  N   UNL     1       2.338   4.899  20.520  0.00  0.00    +0.000 NA
ATOM      3  N   UNL     1       2.300   6.063  19.824  0.00  0.00    +0.000 N 
ATOM      4  C   UNL     1       1.636   7.263  20.138  0.00  0.00    +0.000 A 
ATOM      5  C   UNL     1       0.941   7.429  21.336  0.00  0.00    +0.000 A 
ATOM      6  C   UNL     1       0.481   8.704  21.678  0.00  0.00    +0.000 A 
ATOM      7  C   UNL     1       0.707   9.799  20.831  0.00  0.00    +0.000 A 
ATOM      8  C   UNL     1       1.388   9.635  19.622  0.00  0.00    +0.000 A 
ATOM      9  C   UNL     1       1.851   8.361  19.264  0.00  0.00    +0.000 A 
ATOM     10  C   UNL     1       2.660   8.216  17.993  0.00  0.00    +0.000 A 
ATOM     11  O   UNL     1       2.748   9.119  17.163  0.00  0.00    +0.000 OA
ATOM     12  C   UNL     1       3.372   6.937  17.776  0.00  0.00    +0.000 A 
ATOM     13  C   UNL     1       4.559   6.760  17.044  0.00  0.00    +0.000 A 
ATOM     14  C   UNL     1       5.691   6.512  17.840  0.00  0.00    +0.000 A 
ATOM     15  C   UNL     1       5.543   5.622  18.919  0.00  0.00    +0.000 A 
ATOM     16  C   UNL     1       4.236   5.283  19.309  0.00  0.00    +0.000 A 
ATOM     17  C   UNL     1       3.207   6.047  18.810  0.00  0.00    +0.000 A 
ENDROOT
BRANCH  13  18
ATOM     18  N   UNL     1       4.572   5.728  15.916  0.00  0.00    +0.000 N 
ATOM     19  H   UNL     1       4.027   6.161  15.163  0.00  0.00    +0.000 HD
BRANCH  18  20
ATOM     20  C   UNL     1       5.923   5.536  15.348  0.00  0.00    +0.000 C 
BRANCH  20  21
ATOM     21  C   UNL     1       6.362   4.059  15.287  0.00  0.00    +0.000 C 
BRANCH  21  22
ATOM     22  N   UNL     1       5.711   3.199  16.286  0.00  0.00    +0.000 NA
ATOM     23  H   UNL     1       5.875   2.225  16.045  0.00  0.00    +0.000 HD
ATOM     24  H   UNL     1       4.699   3.333  16.226  0.00  0.00    +0.000 HD
ENDBRANCH  21  22
ENDBRANCH  20  21
ENDBRANCH  18  20
ENDBRANCH  13  18
BRANCH   1  25
ATOM     25  C   UNL     1       3.933   2.960  20.397  0.00  0.00    +0.000 C 
BRANCH  25  26
ATOM     26  N   UNL     1       4.470   2.292  19.208  0.00  0.00    +0.000 NA
ATOM     27  H   UNL     1       4.701   3.033  18.542  0.00  0.00    +0.000 HD
BRANCH  26  28
ATOM     28  C   UNL     1       3.457   1.445  18.560  0.00  0.00    +0.000 C 
BRANCH  28  29
ATOM     29  C   UNL     1       2.257   2.226  17.990  0.00  0.00    +0.000 C 
BRANCH  29  30
ATOM     30  N   UNL     1       2.661   3.102  16.886  0.00  0.00    +0.000 NA
ATOM     31  H   UNL     1       2.689   2.552  16.028  0.00  0.00    +0.000 HD
ATOM     32  H   UNL     1       3.618   3.415  17.048  0.00  0.00    +0.000 HD
ENDBRANCH  29  30
ENDBRANCH  28  29
ENDBRANCH  26  28
ENDBRANCH  25  26
ENDBRANCH   1  25
TORSDOF 9
ENDMDL
MODEL 7
REMARK VINA RESULT:      -6.6      6.805     10.246
REMARK  Name = 
REMARK  9 active torsions:
REMARK  status: ('A' for Active; 'I' for Inactive)
REMARK    1  A    between atoms: N_1  and  C_2
REMARK    2  A    between atoms: C_2  and  C_3
REMARK    3  A    between atoms: C_3  and  N_4
REMARK    4  A    between atoms: N_4  and  C_5
REMARK    5  A    between atoms: C_5  and  C_6
REMARK    6  A    between atoms: C_18  and  N_19
REMARK    7  A    between atoms: N_19  and  C_20
REMARK    8  A    between atoms: C_20  and  C_21
REMARK    9  A    between atoms: C_21  and  N_22
REMARK                            x       y       z     vdW  Elec       q    Type
REMARK                         _______ _______ _______ _____ _____    ______ ____
ROOT
ATOM      1  C   UNL     1      -3.511  10.630  15.929  0.00  0.00    +0.000 A 
ATOM      2  N   UNL     1      -4.680  11.215  16.302  0.00  0.00    +0.000 NA
ATOM      3  N   UNL     1      -4.380  11.669  17.544  0.00  0.00    +0.000 N 
ATOM      4  C   UNL     1      -5.239  11.910  18.633  0.00  0.00    +0.000 A 
ATOM      5  C   UNL     1      -6.602  11.618  18.574  0.00  0.00    +0.000 A 
ATOM      6  C   UNL     1      -7.357  11.686  19.749  0.00  0.00    +0.000 A 
ATOM      7  C   UNL     1      -6.759  12.048  20.965  0.00  0.00    +0.000 A 
ATOM      8  C   UNL     1      -5.398  12.357  21.026  0.00  0.00    +0.000 A 
ATOM      9  C   UNL     1      -4.630  12.298  19.855  0.00  0.00    +0.000 A 
ATOM     10  C   UNL     1      -3.141  12.554  19.954  0.00  0.00    +0.000 A 
ATOM     11  O   UNL     1      -2.618  13.013  20.967  0.00  0.00    +0.000 OA
ATOM     12  C   UNL     1      -2.309  12.216  18.777  0.00  0.00    +0.000 A 
ATOM     13  C   UNL     1      -0.957  11.831  18.799  0.00  0.00    +0.000 A 
ATOM     14  C   UNL     1      -0.744  10.467  18.534  0.00  0.00    +0.000 A 
ATOM     15  C   UNL     1      -1.491   9.885  17.493  0.00  0.00    +0.000 A 
ATOM     16  C   UNL     1      -2.593  10.605  17.000  0.00  0.00    +0.000 A 
ATOM     17  C   UNL     1      -3.033  11.676  17.743  0.00  0.00    +0.000 A 
ENDROOT
BRANCH  13  18
ATOM     18  N   UNL     1       0.036  12.612  17.939  0.00  0.00    +0.000 N 
ATOM     19  H   UNL     1      -0.545  13.261  17.397  0.00  0.00    +0.000 HD
BRANCH  18  20
ATOM     20  C   UNL     1       0.921  13.477  18.748  0.00  0.00    +0.000 C 
BRANCH  20  21
ATOM     21  C   UNL     1       2.421  13.192  18.539  0.00  0.00    +0.000 C 
BRANCH  21  22
ATOM     22  N   UNL     1       2.701  12.173  17.518  0.00  0.00    +0.000 NA
ATOM     23  H   UNL     1       2.086  11.376  17.664  0.00  0.00    +0.000 HD
ATOM     24  H   UNL     1       3.650  11.817  17.658  0.00  0.00    +0.000 HD
ENDBRANCH  21  22
ENDBRANCH  20  21
ENDBRANCH  18  20
ENDBRANCH  13  18
BRANCH   1  25
ATOM     25  C   UNL     1      -3.224  10.181  14.533  0.00  0.00    +0.000 C 
BRANCH  25  26
ATOM     26  N   UNL     1      -4.439   9.759  13.829  0.00  0.00    +0.000 NA
ATOM     27  H   UNL     1      -4.555   8.763  14.032  0.00  0.00    +0.000 HD
BRANCH  26  28
ATOM     28  C   UNL     1      -4.288   9.877  12.371  0.00  0.00    +0.000 C 
BRANCH  28  29
ATOM     29  C   UNL     1      -5.475   9.311  11.569  0.00  0.00    +0.000 C 
BRANCH  29  30
ATOM     30  N   UNL     1      -6.221  10.375  10.890  0.00  0.00    +0.000 NA
ATOM     31  H   UNL     1      -5.725  11.256  11.022  0.00  0.00    +0.000 HD
ATOM     32  H   UNL     1      -7.123  10.491  11.354  0.00  0.00    +0.000 HD
ENDBRANCH  29  30
ENDBRANCH  28  29
ENDBRANCH  26  28
ENDBRANCH  25  26
ENDBRANCH   1  25
TORSDOF 9
ENDMDL
MODEL 8
REMARK VINA RESULT:      -6.6      2.494      5.449
REMARK  Name = 
REMARK  9 active torsions:
REMARK  status: ('A' for Active; 'I' for Inactive)
REMARK    1  A    between atoms: N_1  and  C_2
REMARK    2  A    between atoms: C_2  and  C_3
REMARK    3  A    between atoms: C_3  and  N_4
REMARK    4  A    between atoms: N_4  and  C_5
REMARK    5  A    between atoms: C_5  and  C_6
REMARK    6  A    between atoms: C_18  and  N_19
REMARK    7  A    between atoms: N_19  and  C_20
REMARK    8  A    between atoms: C_20  and  C_21
REMARK    9  A    between atoms: C_21  and  N_22
REMARK                            x       y       z     vdW  Elec       q    Type
REMARK                         _______ _______ _______ _____ _____    ______ ____
ROOT
ATOM      1  C   UNL     1       4.995   5.747  16.125  0.00  0.00    +0.000 A 
ATOM      2  N   UNL     1       4.871   7.026  16.569  0.00  0.00    +0.000 NA
ATOM      3  N   UNL     1       4.003   6.877  17.601  0.00  0.00    +0.000 N 
ATOM      4  C   UNL     1       3.104   7.813  18.146  0.00  0.00    +0.000 A 
ATOM      5  C   UNL     1       2.940   9.084  17.595  0.00  0.00    +0.000 A 
ATOM      6  C   UNL     1       1.891   9.887  18.052  0.00  0.00    +0.000 A 
ATOM      7  C   UNL     1       1.021   9.429  19.052  0.00  0.00    +0.000 A 
ATOM      8  C   UNL     1       1.190   8.163  19.618  0.00  0.00    +0.000 A 
ATOM      9  C   UNL     1       2.241   7.349  19.173  0.00  0.00    +0.000 A 
ATOM     10  C   UNL     1       2.360   5.950  19.737  0.00  0.00    +0.000 A 
ATOM     11  O   UNL     1       1.709   5.575  20.711  0.00  0.00    +0.000 OA
ATOM     12  C   UNL     1       3.289   5.016  19.062  0.00  0.00    +0.000 A 
ATOM     13  C   UNL     1       3.170   3.616  19.011  0.00  0.00    +0.000 A 
ATOM     14  C   UNL     1       2.781   3.119  17.755  0.00  0.00    +0.000 A 
ATOM     15  C   UNL     1       3.385   3.686  16.618  0.00  0.00    +0.000 A 
ATOM     16  C   UNL     1       4.092   4.889  16.787  0.00  0.00    +0.000 A 
ATOM     17  C   UNL     1       3.909   5.570  17.969  0.00  0.00    +0.000 A 
ENDROOT
BRANCH  13  18
ATOM     18  N   UNL     1       4.351   2.767  19.480  0.00  0.00    +0.000 N 
ATOM     19  H   UNL     1       5.132   3.428  19.554  0.00  0.00    +0.000 HD
BRANCH  18  20
ATOM     20  C   UNL     1       4.160   2.246  20.850  0.00  0.00    +0.000 C 
BRANCH  20  21
ATOM     21  C   UNL     1       2.680   2.154  21.274  0.00  0.00    +0.000 C 
BRANCH  21  22
ATOM     22  N   UNL     1       2.295   3.116  22.316  0.00  0.00    +0.000 NA
ATOM     23  H   UNL     1       2.053   2.610  23.164  0.00  0.00    +0.000 HD
ATOM     24  H   UNL     1       1.437   3.592  22.025  0.00  0.00    +0.000 HD
ENDBRANCH  21  22
ENDBRANCH  20  21
ENDBRANCH  18  20
ENDBRANCH  13  18
BRANCH   1  25
ATOM     25  C   UNL     1       6.036   5.315  15.143  0.00  0.00    +0.000 C 
BRANCH  25  26
ATOM     26  N   UNL     1       7.389   5.396  15.701  0.00  0.00    +0.000 NA
ATOM     27  H   UNL     1       8.016   5.013  14.990  0.00  0.00    +0.000 HD
BRANCH  26  28
ATOM     28  C   UNL     1       7.534   4.545  16.892  0.00  0.00    +0.000 C 
BRANCH  28  29
ATOM     29  C   UNL     1       7.647   5.328  18.214  0.00  0.00    +0.000 C 
BRANCH  29  30
ATOM     30  N   UNL     1       7.723   6.774  17.978  0.00  0.00    +0.000 NA
ATOM     31  H   UNL     1       7.178   7.249  18.697  0.00  0.00    +0.000 HD
ATOM     32  H   UNL     1       7.263   6.986  17.093  0.00  0.00    +0.000 HD
ENDBRANCH  29  30
ENDBRANCH  28  29
ENDBRANCH  26  28
ENDBRANCH  25  26
ENDBRANCH   1  25
TORSDOF 9
ENDMDL
MODEL 9
REMARK VINA RESULT:      -6.6      2.715      5.558
REMARK  Name = 
REMARK  9 active torsions:
REMARK  status: ('A' for Active; 'I' for Inactive)
REMARK    1  A    between atoms: N_1  and  C_2
REMARK    2  A    between atoms: C_2  and  C_3
REMARK    3  A    between atoms: C_3  and  N_4
REMARK    4  A    between atoms: N_4  and  C_5
REMARK    5  A    between atoms: C_5  and  C_6
REMARK    6  A    between atoms: C_18  and  N_19
REMARK    7  A    between atoms: N_19  and  C_20
REMARK    8  A    between atoms: C_20  and  C_21
REMARK    9  A    between atoms: C_21  and  N_22
REMARK                            x       y       z     vdW  Elec       q    Type
REMARK                         _______ _______ _______ _____ _____    ______ ____
ROOT
ATOM      1  C   UNL     1       3.566   5.033  17.439  0.00  0.00    +0.000 A 
ATOM      2  N   UNL     1       3.820   6.368  17.399  0.00  0.00    +0.000 NA
ATOM      3  N   UNL     1       3.044   6.828  18.412  0.00  0.00    +0.000 N 
ATOM      4  C   UNL     1       2.473   8.103  18.583  0.00  0.00    +0.000 A 
ATOM      5  C   UNL     1       2.595   9.101  17.616  0.00  0.00    +0.000 A 
ATOM      6  C   UNL     1       1.837  10.268  17.753  0.00  0.00    +0.000 A 
ATOM      7  C   UNL     1       0.974  10.439  18.845  0.00  0.00    +0.000 A 
ATOM      8  C   UNL     1       0.862   9.450  19.825  0.00  0.00    +0.000 A 
ATOM      9  C   UNL     1       1.619   8.276  19.704  0.00  0.00    +0.000 A 
ATOM     10  C   UNL     1       1.422   7.180  20.729  0.00  0.00    +0.000 A 
ATOM     11  O   UNL     1       0.790   7.356  21.768  0.00  0.00    +0.000 OA
ATOM     12  C   UNL     1       2.010   5.853  20.434  0.00  0.00    +0.000 A 
ATOM     13  C   UNL     1       1.527   4.612  20.883  0.00  0.00    +0.000 A 
ATOM     14  C   UNL     1       0.907   3.842  19.883  0.00  0.00    +0.000 A 
ATOM     15  C   UNL     1       1.529   3.796  18.622  0.00  0.00    +0.000 A 
ATOM     16  C   UNL     1       2.537   4.739  18.357  0.00  0.00    +0.000 A 
ATOM     17  C   UNL     1       2.648   5.805  19.219  0.00  0.00    +0.000 A 
ENDROOT
BRANCH  13  18
ATOM     18  N   UNL     1       2.486   3.684  21.629  0.00  0.00    +0.000 N 
ATOM     19  H   UNL     1       1.975   3.411  22.476  0.00  0.00    +0.000 HD
BRANCH  18  20
ATOM     20  C   UNL     1       2.723   2.419  20.901  0.00  0.00    +0.000 C 
BRANCH  20  21
ATOM     21  C   UNL     1       4.203   1.988  20.880  0.00  0.00    +0.000 C 
BRANCH  21  22
ATOM     22  N   UNL     1       4.885   2.249  19.604  0.00  0.00    +0.000 NA
ATOM     23  H   UNL     1       4.454   3.053  19.154  0.00  0.00    +0.000 HD
ATOM     24  H   UNL     1       4.720   1.459  18.975  0.00  0.00    +0.000 HD
ENDBRANCH  21  22
ENDBRANCH  20  21
ENDBRANCH  18  20
ENDBRANCH  13  18
BRANCH   1  25
ATOM     25  C   UNL     1       4.363   4.021  16.679  0.00  0.00    +0.000 C 
BRANCH  25  26
ATOM     26  N   UNL     1       5.760   3.976  17.120  0.00  0.00    +0.000 NA
ATOM     27  H   UNL     1       5.817   4.566  17.954  0.00  0.00    +0.000 HD
BRANCH  26  28
ATOM     28  C   UNL     1       6.662   4.572  16.122  0.00  0.00    +0.000 C 
BRANCH  28  29
ATOM     29  C   UNL     1       6.045   4.704  14.717  0.00  0.00    +0.000 C 
BRANCH  29  30
ATOM     30  N   UNL     1       6.396   3.562  13.866  0.00  0.00    +0.000 NA
ATOM     31  H   UNL     1       5.979   2.720  14.263  0.00  0.00    +0.000 HD
ATOM     32  H   UNL     1       7.405   3.419  13.908  0.00  0.00    +0.000 HD
ENDBRANCH  29  30
ENDBRANCH  28  29
ENDBRANCH  26  28
ENDBRANCH  25  26
ENDBRANCH   1  25
TORSDOF 9
ENDMDL
