MODEL 1
REMARK VINA RESULT:      -7.0      0.000      0.000
REMARK  Name = 
REMARK  9 active torsions:
REMARK  status: ('A' for Active; 'I' for Inactive)
REMARK    1  A    between atoms: C_1  and  C_2
REMARK    2  A    between atoms: C_2  and  O_3
REMARK    3  A    between atoms: O_3  and  C_4
REMARK    4  A    between atoms: C_4  and  C_6
REMARK    5  A    between atoms: C_7  and  C_8
REMARK    6  A    between atoms: N_9  and  C_10
REMARK    7  A    between atoms: C_14  and  O_15
REMARK    8  A    between atoms: O_15  and  C_16
REMARK    9  A    between atoms: C_16  and  C_17
REMARK                            x       y       z     vdW  Elec       q    Type
REMARK                         _______ _______ _______ _____ _____    ______ ____
ROOT
ATOM      1  C   UNL     1       3.910   4.029  18.563  0.00  0.00    +0.000 A 
ATOM      2  C   UNL     1       3.295   5.177  19.058  0.00  0.00    +0.000 A 
ATOM      3  C   UNL     1       2.543   5.379  20.333  0.00  0.00    +0.000 C 
ATOM      4  N   UNL     1       3.538   6.200  18.165  0.00  0.00    +0.000 N 
ATOM      5  C   UNL     1       3.108   7.576  18.305  0.00  0.00    +0.000 C 
ATOM      6  C   UNL     1       4.300   5.746  17.105  0.00  0.00    +0.000 A 
ATOM      7  C   UNL     1       4.801   6.409  15.972  0.00  0.00    +0.000 A 
ATOM      8  C   UNL     1       5.593   5.680  15.075  0.00  0.00    +0.000 A 
ATOM      9  C   UNL     1       5.879   4.337  15.295  0.00  0.00    +0.000 A 
ATOM     10  C   UNL     1       5.320   3.678  16.392  0.00  0.00    +0.000 A 
ATOM     11  C   UNL     1       4.544   4.392  17.332  0.00  0.00    +0.000 A 
ENDROOT
BRANCH   1  12
ATOM     12  C   UNL     1       3.955   2.737  19.237  0.00  0.00    +0.000 C 
ATOM     13  O   UNL     1       4.820   2.415  20.047  0.00  0.00    +0.000 OA
BRANCH  12  14
ATOM     14  O   UNL     1       3.004   1.881  18.760  0.00  0.00    +0.000 OA
BRANCH  14  16
ATOM     15  C   UNL     1       0.684   2.470  18.715  0.00  0.00    +0.000 C 
ATOM     16  C   UNL     1       1.796   1.829  19.528  0.00  0.00    +0.000 C 
ENDBRANCH  14  16
ENDBRANCH  12  14
ENDBRANCH   1  12
BRANCH   9  17
ATOM     17  O   UNL     1       6.723   3.742  14.390  0.00  0.00    +0.000 OA
BRANCH  17  18
ATOM     18  C   UNL     1       6.560   4.191  13.043  0.00  0.00    +0.000 C 
BRANCH  18  19
ATOM     19  C   UNL     1       5.746   3.214  12.202  0.00  0.00    +0.000 C 
ATOM     20  N   UNL     1       6.385   2.068  11.836  0.00  0.00    +0.000 N 
ATOM     21  O   UNL     1       4.589   3.429  11.860  0.00  0.00    +0.000 OA
ATOM     22  H   UNL     1       7.323   1.874  12.165  0.00  0.00    +0.000 HD
ATOM     23  H   UNL     1       5.880   1.372  11.304  0.00  0.00    +0.000 HD
ENDBRANCH  18  19
ENDBRANCH  17  18
ENDBRANCH   9  17
TORSDOF 6
ENDMDL
MODEL 2
REMARK VINA RESULT:      -6.9      1.468      1.498
REMARK  Name = 
REMARK  9 active torsions:
REMARK  status: ('A' for Active; 'I' for Inactive)
REMARK    1  A    between atoms: C_1  and  C_2
REMARK    2  A    between atoms: C_2  and  O_3
REMARK    3  A    between atoms: O_3  and  C_4
REMARK    4  A    between atoms: C_4  and  C_6
REMARK    5  A    between atoms: C_7  and  C_8
REMARK    6  A    between atoms: N_9  and  C_10
REMARK    7  A    between atoms: C_14  and  O_15
REMARK    8  A    between atoms: O_15  and  C_16
REMARK    9  A    between atoms: C_16  and  C_17
REMARK                            x       y       z     vdW  Elec       q    Type
REMARK                         _______ _______ _______ _____ _____    ______ ____
ROOT
ATOM      1  C   UNL     1       3.652   4.170  19.221  0.00  0.00    +0.000 A 
ATOM      2  C   UNL     1       2.847   5.195  19.713  0.00  0.00    +0.000 A 
ATOM      3  C   UNL     1       1.987   5.226  20.934  0.00  0.00    +0.000 C 
ATOM      4  N   UNL     1       3.005   6.286  18.883  0.00  0.00    +0.000 N 
ATOM      5  C   UNL     1       2.375   7.580  19.045  0.00  0.00    +0.000 C 
ATOM      6  C   UNL     1       3.896   5.996  17.867  0.00  0.00    +0.000 A 
ATOM      7  C   UNL     1       4.375   6.780  16.803  0.00  0.00    +0.000 A 
ATOM      8  C   UNL     1       5.323   6.214  15.941  0.00  0.00    +0.000 A 
ATOM      9  C   UNL     1       5.782   4.914  16.127  0.00  0.00    +0.000 A 
ATOM     10  C   UNL     1       5.246   4.129  17.151  0.00  0.00    +0.000 A 
ATOM     11  C   UNL     1       4.313   4.679  18.058  0.00  0.00    +0.000 A 
ENDROOT
BRANCH   1  12
ATOM     12  C   UNL     1       3.834   2.864  19.843  0.00  0.00    +0.000 C 
ATOM     13  O   UNL     1       4.928   2.383  20.123  0.00  0.00    +0.000 OA
BRANCH  12  14
ATOM     14  O   UNL     1       2.654   2.185  19.953  0.00  0.00    +0.000 OA
BRANCH  14  16
ATOM     15  C   UNL     1       0.563   2.428  18.814  0.00  0.00    +0.000 C 
ATOM     16  C   UNL     1       1.991   1.917  18.713  0.00  0.00    +0.000 C 
ENDBRANCH  14  16
ENDBRANCH  12  14
ENDBRANCH   1  12
BRANCH   9  17
ATOM     17  O   UNL     1       6.763   4.489  15.266  0.00  0.00    +0.000 OA
BRANCH  17  18
ATOM     18  C   UNL     1       6.324   4.287  13.920  0.00  0.00    +0.000 C 
BRANCH  18  19
ATOM     19  C   UNL     1       7.368   4.730  12.900  0.00  0.00    +0.000 C 
ATOM     20  N   UNL     1       8.224   5.707  13.310  0.00  0.00    +0.000 N 
ATOM     21  O   UNL     1       7.444   4.254  11.773  0.00  0.00    +0.000 OA
ATOM     22  H   UNL     1       8.187   6.059  14.259  0.00  0.00    +0.000 HD
ATOM     23  H   UNL     1       8.955   6.015  12.682  0.00  0.00    +0.000 HD
ENDBRANCH  18  19
ENDBRANCH  17  18
ENDBRANCH   9  17
TORSDOF 6
ENDMDL
MODEL 3
REMARK VINA RESULT:      -6.6      3.506      7.357
REMARK  Name = 
REMARK  9 active torsions:
REMARK  status: ('A' for Active; 'I' for Inactive)
REMARK    1  A    between atoms: C_1  and  C_2
REMARK    2  A    between atoms: C_2  and  O_3
REMARK    3  A    between atoms: O_3  and  C_4
REMARK    4  A    between atoms: C_4  and  C_6
REMARK    5  A    between atoms: C_7  and  C_8
REMARK    6  A    between atoms: N_9  and  C_10
REMARK    7  A    between atoms: C_14  and  O_15
REMARK    8  A    between atoms: O_15  and  C_16
REMARK    9  A    between atoms: C_16  and  C_17
REMARK                            x       y       z     vdW  Elec       q    Type
REMARK                         _______ _______ _______ _____ _____    ______ ____
ROOT
ATOM      1  C   UNL     1       4.394   5.551  17.183  0.00  0.00    +0.000 A 
ATOM      2  C   UNL     1       4.562   4.192  16.930  0.00  0.00    +0.000 A 
ATOM      3  C   UNL     1       5.467   3.510  15.957  0.00  0.00    +0.000 C 
ATOM      4  N   UNL     1       3.753   3.500  17.808  0.00  0.00    +0.000 N 
ATOM      5  C   UNL     1       3.643   2.060  17.914  0.00  0.00    +0.000 C 
ATOM      6  C   UNL     1       3.068   4.377  18.628  0.00  0.00    +0.000 A 
ATOM      7  C   UNL     1       2.150   4.148  19.668  0.00  0.00    +0.000 A 
ATOM      8  C   UNL     1       1.645   5.258  20.359  0.00  0.00    +0.000 A 
ATOM      9  C   UNL     1       2.037   6.551  20.029  0.00  0.00    +0.000 A 
ATOM     10  C   UNL     1       2.899   6.762  18.952  0.00  0.00    +0.000 A 
ATOM     11  C   UNL     1       3.452   5.664  18.255  0.00  0.00    +0.000 A 
ENDROOT
BRANCH   1  12
ATOM     12  C   UNL     1       5.119   6.630  16.522  0.00  0.00    +0.000 C 
ATOM     13  O   UNL     1       5.017   6.895  15.328  0.00  0.00    +0.000 OA
BRANCH  12  14
ATOM     14  O   UNL     1       6.024   7.221  17.358  0.00  0.00    +0.000 OA
BRANCH  14  16
ATOM     15  C   UNL     1       7.714   6.175  18.690  0.00  0.00    +0.000 C 
ATOM     16  C   UNL     1       7.346   6.675  17.304  0.00  0.00    +0.000 C 
ENDBRANCH  14  16
ENDBRANCH  12  14
ENDBRANCH   1  12
BRANCH   9  17
ATOM     17  O   UNL     1       1.534   7.555  20.819  0.00  0.00    +0.000 OA
BRANCH  17  18
ATOM     18  C   UNL     1       1.347   8.802  20.146  0.00  0.00    +0.000 C 
BRANCH  18  19
ATOM     19  C   UNL     1       0.665   9.840  21.031  0.00  0.00    +0.000 C 
ATOM     20  N   UNL     1      -0.481  10.384  20.535  0.00  0.00    +0.000 N 
ATOM     21  O   UNL     1       1.107  10.183  22.122  0.00  0.00    +0.000 OA
ATOM     22  H   UNL     1      -0.867  10.059  19.658  0.00  0.00    +0.000 HD
ATOM     23  H   UNL     1      -0.990  11.055  21.097  0.00  0.00    +0.000 HD
ENDBRANCH  18  19
ENDBRANCH  17  18
ENDBRANCH   9  17
TORSDOF 6
ENDMDL
MODEL 4
REMARK VINA RESULT:      -6.5      3.123      6.633
REMARK  Name = 
REMARK  9 active torsions:
REMARK  status: ('A' for Active; 'I' for Inactive)
REMARK    1  A    between atoms: C_1  and  C_2
REMARK    2  A    between atoms: C_2  and  O_3
REMARK    3  A    between atoms: O_3  and  C_4
REMARK    4  A    between atoms: C_4  and  C_6
REMARK    5  A    between atoms: C_7  and  C_8
REMARK    6  A    between atoms: N_9  and  C_10
REMARK    7  A    between atoms: C_14  and  O_15
REMARK    8  A    between atoms: O_15  and  C_16
REMARK    9  A    between atoms: C_16  and  C_17
REMARK                            x       y       z     vdW  Elec       q    Type
REMARK                         _______ _______ _______ _____ _____    ______ ____
ROOT
ATOM      1  C   UNL     1       4.198   4.372  18.286  0.00  0.00    +0.000 A 
ATOM      2  C   UNL     1       4.823   4.678  17.079  0.00  0.00    +0.000 A 
ATOM      3  C   UNL     1       5.642   3.807  16.184  0.00  0.00    +0.000 C 
ATOM      4  N   UNL     1       4.516   5.987  16.769  0.00  0.00    +0.000 N 
ATOM      5  C   UNL     1       4.933   6.704  15.582  0.00  0.00    +0.000 C 
ATOM      6  C   UNL     1       3.702   6.536  17.742  0.00  0.00    +0.000 A 
ATOM      7  C   UNL     1       3.130   7.814  17.858  0.00  0.00    +0.000 A 
ATOM      8  C   UNL     1       2.299   8.069  18.958  0.00  0.00    +0.000 A 
ATOM      9  C   UNL     1       2.044   7.088  19.911  0.00  0.00    +0.000 A 
ATOM     10  C   UNL     1       2.673   5.846  19.813  0.00  0.00    +0.000 A 
ATOM     11  C   UNL     1       3.491   5.545  18.700  0.00  0.00    +0.000 A 
ENDROOT
BRANCH   1  12
ATOM     12  C   UNL     1       4.208   3.067  18.936  0.00  0.00    +0.000 C 
ATOM     13  O   UNL     1       5.023   2.733  19.793  0.00  0.00    +0.000 OA
BRANCH  12  14
ATOM     14  O   UNL     1       3.294   2.216  18.384  0.00  0.00    +0.000 OA
BRANCH  14  16
ATOM     15  C   UNL     1       0.957   2.655  18.655  0.00  0.00    +0.000 C 
ATOM     16  C   UNL     1       2.164   1.919  19.212  0.00  0.00    +0.000 C 
ENDBRANCH  14  16
ENDBRANCH  12  14
ENDBRANCH   1  12
BRANCH   9  17
ATOM     17  O   UNL     1       1.160   7.425  20.905  0.00  0.00    +0.000 OA
BRANCH  17  18
ATOM     18  C   UNL     1       0.727   8.788  20.877  0.00  0.00    +0.000 C 
BRANCH  18  19
ATOM     19  C   UNL     1       0.837   9.457  22.243  0.00  0.00    +0.000 C 
ATOM     20  N   UNL     1      -0.304  10.026  22.721  0.00  0.00    +0.000 N 
ATOM     21  O   UNL     1       1.882   9.498  22.884  0.00  0.00    +0.000 OA
ATOM     22  H   UNL     1      -1.173   9.944  22.209  0.00  0.00    +0.000 HD
ATOM     23  H   UNL     1      -0.292  10.456  23.636  0.00  0.00    +0.000 HD
ENDBRANCH  18  19
ENDBRANCH  17  18
ENDBRANCH   9  17
TORSDOF 6
ENDMDL
MODEL 5
REMARK VINA RESULT:      -6.5      1.568      2.173
REMARK  Name = 
REMARK  9 active torsions:
REMARK  status: ('A' for Active; 'I' for Inactive)
REMARK    1  A    between atoms: C_1  and  C_2
REMARK    2  A    between atoms: C_2  and  O_3
REMARK    3  A    between atoms: O_3  and  C_4
REMARK    4  A    between atoms: C_4  and  C_6
REMARK    5  A    between atoms: C_7  and  C_8
REMARK    6  A    between atoms: N_9  and  C_10
REMARK    7  A    between atoms: C_14  and  O_15
REMARK    8  A    between atoms: O_15  and  C_16
REMARK    9  A    between atoms: C_16  and  C_17
REMARK                            x       y       z     vdW  Elec       q    Type
REMARK                         _______ _______ _______ _____ _____    ______ ____
ROOT
ATOM      1  C   UNL     1       3.573   3.885  19.404  0.00  0.00    +0.000 A 
ATOM      2  C   UNL     1       2.699   4.472  20.315  0.00  0.00    +0.000 A 
ATOM      3  C   UNL     1       2.060   3.889  21.532  0.00  0.00    +0.000 C 
ATOM      4  N   UNL     1       2.530   5.790  19.942  0.00  0.00    +0.000 N 
ATOM      5  C   UNL     1       1.725   6.776  20.633  0.00  0.00    +0.000 C 
ATOM      6  C   UNL     1       3.277   6.073  18.814  0.00  0.00    +0.000 A 
ATOM      7  C   UNL     1       3.433   7.261  18.081  0.00  0.00    +0.000 A 
ATOM      8  C   UNL     1       4.308   7.252  16.986  0.00  0.00    +0.000 A 
ATOM      9  C   UNL     1       5.005   6.101  16.630  0.00  0.00    +0.000 A 
ATOM     10  C   UNL     1       4.787   4.914  17.332  0.00  0.00    +0.000 A 
ATOM     11  C   UNL     1       3.936   4.897  18.460  0.00  0.00    +0.000 A 
ENDROOT
BRANCH   1  12
ATOM     12  C   UNL     1       4.074   2.517  19.475  0.00  0.00    +0.000 C 
ATOM     13  O   UNL     1       4.940   2.142  20.261  0.00  0.00    +0.000 OA
BRANCH  12  14
ATOM     14  O   UNL     1       3.566   1.737  18.475  0.00  0.00    +0.000 OA
BRANCH  14  16
ATOM     15  C   UNL     1       1.185   1.703  18.722  0.00  0.00    +0.000 C 
ATOM     16  C   UNL     1       2.350   2.216  17.891  0.00  0.00    +0.000 C 
ENDBRANCH  14  16
ENDBRANCH  12  14
ENDBRANCH   1  12
BRANCH   9  17
ATOM     17  O   UNL     1       5.888   6.227  15.587  0.00  0.00    +0.000 OA
BRANCH  17  18
ATOM     18  C   UNL     1       6.810   5.143  15.456  0.00  0.00    +0.000 C 
BRANCH  18  19
ATOM     19  C   UNL     1       7.084   4.790  13.998  0.00  0.00    +0.000 C 
ATOM     20  N   UNL     1       8.040   5.534  13.376  0.00  0.00    +0.000 N 
ATOM     21  O   UNL     1       6.488   3.900  13.402  0.00  0.00    +0.000 OA
ATOM     22  H   UNL     1       8.564   6.232  13.888  0.00  0.00    +0.000 HD
ATOM     23  H   UNL     1       8.283   5.320  12.417  0.00  0.00    +0.000 HD
ENDBRANCH  18  19
ENDBRANCH  17  18
ENDBRANCH   9  17
TORSDOF 6
ENDMDL
MODEL 6
REMARK VINA RESULT:      -6.4      1.327      1.752
REMARK  Name = 
REMARK  9 active torsions:
REMARK  status: ('A' for Active; 'I' for Inactive)
REMARK    1  A    between atoms: C_1  and  C_2
REMARK    2  A    between atoms: C_2  and  O_3
REMARK    3  A    between atoms: O_3  and  C_4
REMARK    4  A    between atoms: C_4  and  C_6
REMARK    5  A    between atoms: C_7  and  C_8
REMARK    6  A    between atoms: N_9  and  C_10
REMARK    7  A    between atoms: C_14  and  O_15
REMARK    8  A    between atoms: O_15  and  C_16
REMARK    9  A    between atoms: C_16  and  C_17
REMARK                            x       y       z     vdW  Elec       q    Type
REMARK                         _______ _______ _______ _____ _____    ______ ____
ROOT
ATOM      1  C   UNL     1       2.555   3.962  18.484  0.00  0.00    +0.000 A 
ATOM      2  C   UNL     1       2.054   5.100  19.111  0.00  0.00    +0.000 A 
ATOM      3  C   UNL     1       1.035   5.217  20.196  0.00  0.00    +0.000 C 
ATOM      4  N   UNL     1       2.718   6.191  18.590  0.00  0.00    +0.000 N 
ATOM      5  C   UNL     1       2.531   7.573  18.982  0.00  0.00    +0.000 C 
ATOM      6  C   UNL     1       3.642   5.789  17.644  0.00  0.00    +0.000 A 
ATOM      7  C   UNL     1       4.546   6.525  16.860  0.00  0.00    +0.000 A 
ATOM      8  C   UNL     1       5.403   5.821  16.002  0.00  0.00    +0.000 A 
ATOM      9  C   UNL     1       5.363   4.433  15.924  0.00  0.00    +0.000 A 
ATOM     10  C   UNL     1       4.413   3.724  16.662  0.00  0.00    +0.000 A 
ATOM     11  C   UNL     1       3.557   4.399  17.560  0.00  0.00    +0.000 A 
ENDROOT
BRANCH   1  12
ATOM     12  C   UNL     1       2.174   2.589  18.793  0.00  0.00    +0.000 C 
ATOM     13  O   UNL     1       1.045   2.135  18.624  0.00  0.00    +0.000 OA
BRANCH  12  14
ATOM     14  O   UNL     1       3.180   1.909  19.418  0.00  0.00    +0.000 OA
BRANCH  14  16
ATOM     15  C   UNL     1       2.581   2.402  21.683  0.00  0.00    +0.000 C 
ATOM     16  C   UNL     1       3.664   2.514  20.622  0.00  0.00    +0.000 C 
ENDBRANCH  14  16
ENDBRANCH  12  14
ENDBRANCH   1  12
BRANCH   9  17
ATOM     17  O   UNL     1       6.295   3.846  15.105  0.00  0.00    +0.000 OA
BRANCH  17  18
ATOM     18  C   UNL     1       6.784   4.691  14.061  0.00  0.00    +0.000 C 
BRANCH  18  19
ATOM     19  C   UNL     1       6.768   3.998  12.702  0.00  0.00    +0.000 C 
ATOM     20  N   UNL     1       6.012   2.868  12.619  0.00  0.00    +0.000 N 
ATOM     21  O   UNL     1       7.396   4.412  11.734  0.00  0.00    +0.000 OA
ATOM     22  H   UNL     1       5.456   2.562  13.407  0.00  0.00    +0.000 HD
ATOM     23  H   UNL     1       5.942   2.388  11.731  0.00  0.00    +0.000 HD
ENDBRANCH  18  19
ENDBRANCH  17  18
ENDBRANCH   9  17
TORSDOF 6
ENDMDL
MODEL 7
REMARK VINA RESULT:      -6.4      0.924      1.611
REMARK  Name = 
REMARK  9 active torsions:
REMARK  status: ('A' for Active; 'I' for Inactive)
REMARK    1  A    between atoms: C_1  and  C_2
REMARK    2  A    between atoms: C_2  and  O_3
REMARK    3  A    between atoms: O_3  and  C_4
REMARK    4  A    between atoms: C_4  and  C_6
REMARK    5  A    between atoms: C_7  and  C_8
REMARK    6  A    between atoms: N_9  and  C_10
REMARK    7  A    between atoms: C_14  and  O_15
REMARK    8  A    between atoms: O_15  and  C_16
REMARK    9  A    between atoms: C_16  and  C_17
REMARK                            x       y       z     vdW  Elec       q    Type
REMARK                         _______ _______ _______ _____ _____    ______ ____
ROOT
ATOM      1  C   UNL     1       3.070   3.791  18.235  0.00  0.00    +0.000 A 
ATOM      2  C   UNL     1       2.550   4.923  18.860  0.00  0.00    +0.000 A 
ATOM      3  C   UNL     1       1.608   5.024  20.014  0.00  0.00    +0.000 C 
ATOM      4  N   UNL     1       3.110   6.029  18.254  0.00  0.00    +0.000 N 
ATOM      5  C   UNL     1       2.873   7.412  18.613  0.00  0.00    +0.000 C 
ATOM      6  C   UNL     1       3.984   5.643  17.255  0.00  0.00    +0.000 A 
ATOM      7  C   UNL     1       4.785   6.398  16.381  0.00  0.00    +0.000 A 
ATOM      8  C   UNL     1       5.615   5.711  15.486  0.00  0.00    +0.000 A 
ATOM      9  C   UNL     1       5.650   4.320  15.457  0.00  0.00    +0.000 A 
ATOM     10  C   UNL     1       4.800   3.588  16.288  0.00  0.00    +0.000 A 
ATOM     11  C   UNL     1       3.974   4.249  17.225  0.00  0.00    +0.000 A 
ENDROOT
BRANCH   1  12
ATOM     12  C   UNL     1       2.792   2.412  18.618  0.00  0.00    +0.000 C 
ATOM     13  O   UNL     1       1.671   1.911  18.613  0.00  0.00    +0.000 OA
BRANCH  12  14
ATOM     14  O   UNL     1       3.902   1.787  19.111  0.00  0.00    +0.000 OA
BRANCH  14  16
ATOM     15  C   UNL     1       5.271   1.188  20.981  0.00  0.00    +0.000 C 
ATOM     16  C   UNL     1       4.317   2.224  20.409  0.00  0.00    +0.000 C 
ENDBRANCH  14  16
ENDBRANCH  12  14
ENDBRANCH   1  12
BRANCH   9  17
ATOM     17  O   UNL     1       6.553   3.755  14.591  0.00  0.00    +0.000 OA
BRANCH  17  18
ATOM     18  C   UNL     1       6.489   4.260  13.255  0.00  0.00    +0.000 C 
BRANCH  18  19
ATOM     19  C   UNL     1       5.782   3.297  12.307  0.00  0.00    +0.000 C 
ATOM     20  N   UNL     1       6.510   2.221  11.899  0.00  0.00    +0.000 N 
ATOM     21  O   UNL     1       4.631   3.467  11.918  0.00  0.00    +0.000 OA
ATOM     22  H   UNL     1       7.441   2.061  12.264  0.00  0.00    +0.000 HD
ATOM     23  H   UNL     1       6.078   1.535  11.294  0.00  0.00    +0.000 HD
ENDBRANCH  18  19
ENDBRANCH  17  18
ENDBRANCH   9  17
TORSDOF 6
ENDMDL
MODEL 8
REMARK VINA RESULT:      -6.3      2.575      3.953
REMARK  Name = 
REMARK  9 active torsions:
REMARK  status: ('A' for Active; 'I' for Inactive)
REMARK    1  A    between atoms: C_1  and  C_2
REMARK    2  A    between atoms: C_2  and  O_3
REMARK    3  A    between atoms: O_3  and  C_4
REMARK    4  A    between atoms: C_4  and  C_6
REMARK    5  A    between atoms: C_7  and  C_8
REMARK    6  A    between atoms: N_9  and  C_10
REMARK    7  A    between atoms: C_14  and  O_15
REMARK    8  A    between atoms: O_15  and  C_16
REMARK    9  A    between atoms: C_16  and  C_17
REMARK                            x       y       z     vdW  Elec       q    Type
REMARK                         _______ _______ _______ _____ _____    ______ ____
ROOT
ATOM      1  C   UNL     1       2.626   5.835  18.861  0.00  0.00    +0.000 A 
ATOM      2  C   UNL     1       2.047   4.711  19.448  0.00  0.00    +0.000 A 
ATOM      3  C   UNL     1       0.950   4.624  20.458  0.00  0.00    +0.000 C 
ATOM      4  N   UNL     1       2.635   3.597  18.886  0.00  0.00    +0.000 N 
ATOM      5  C   UNL     1       2.308   2.217  19.184  0.00  0.00    +0.000 C 
ATOM      6  C   UNL     1       3.577   3.969  17.946  0.00  0.00    +0.000 A 
ATOM      7  C   UNL     1       4.413   3.201  17.118  0.00  0.00    +0.000 A 
ATOM      8  C   UNL     1       5.250   3.873  16.218  0.00  0.00    +0.000 A 
ATOM      9  C   UNL     1       5.258   5.263  16.141  0.00  0.00    +0.000 A 
ATOM     10  C   UNL     1       4.468   6.010  17.017  0.00  0.00    +0.000 A 
ATOM     11  C   UNL     1       3.589   5.363  17.914  0.00  0.00    +0.000 A 
ENDROOT
BRANCH   1  12
ATOM     12  C   UNL     1       2.241   7.217  19.122  0.00  0.00    +0.000 C 
ATOM     13  O   UNL     1       2.194   7.717  20.242  0.00  0.00    +0.000 OA
BRANCH  12  14
ATOM     14  O   UNL     1       1.810   7.847  17.989  0.00  0.00    +0.000 OA
BRANCH  14  16
ATOM     15  C   UNL     1       0.546   9.877  18.083  0.00  0.00    +0.000 C 
ATOM     16  C   UNL     1       1.938   9.273  18.002  0.00  0.00    +0.000 C 
ENDBRANCH  14  16
ENDBRANCH  12  14
ENDBRANCH   1  12
BRANCH   9  17
ATOM     17  O   UNL     1       6.064   5.811  15.175  0.00  0.00    +0.000 OA
BRANCH  17  18
ATOM     18  C   UNL     1       7.191   5.009  14.816  0.00  0.00    +0.000 C 
BRANCH  18  19
ATOM     19  C   UNL     1       7.350   4.877  13.305  0.00  0.00    +0.000 C 
ATOM     20  N   UNL     1       8.189   5.773  12.715  0.00  0.00    +0.000 N 
ATOM     21  O   UNL     1       6.763   4.028  12.643  0.00  0.00    +0.000 OA
ATOM     22  H   UNL     1       8.708   6.437  13.274  0.00  0.00    +0.000 HD
ATOM     23  H   UNL     1       8.353   5.709  11.719  0.00  0.00    +0.000 HD
ENDBRANCH  18  19
ENDBRANCH  17  18
ENDBRANCH   9  17
TORSDOF 6
ENDMDL
MODEL 9
REMARK VINA RESULT:      -6.3      1.016      1.363
REMARK  Name = 
REMARK  9 active torsions:
REMARK  status: ('A' for Active; 'I' for Inactive)
REMARK    1  A    between atoms: C_1  and  C_2
REMARK    2  A    between atoms: C_2  and  O_3
REMARK    3  A    between atoms: O_3  and  C_4
REMARK    4  A    between atoms: C_4  and  C_6
REMARK    5  A    between atoms: C_7  and  C_8
REMARK    6  A    between atoms: N_9  and  C_10
REMARK    7  A    between atoms: C_14  and  O_15
REMARK    8  A    between atoms: O_15  and  C_16
REMARK    9  A    between atoms: C_16  and  C_17
REMARK                            x       y       z     vdW  Elec       q    Type
REMARK                         _______ _______ _______ _____ _____    ______ ____
ROOT
ATOM      1  C   UNL     1       2.958   4.245  18.011  0.00  0.00    +0.000 A 
ATOM      2  C   UNL     1       2.585   5.474  18.551  0.00  0.00    +0.000 A 
ATOM      3  C   UNL     1       1.650   5.774  19.676  0.00  0.00    +0.000 C 
ATOM      4  N   UNL     1       3.294   6.455  17.888  0.00  0.00    +0.000 N 
ATOM      5  C   UNL     1       3.237   7.877  18.154  0.00  0.00    +0.000 C 
ATOM      6  C   UNL     1       4.121   5.893  16.935  0.00  0.00    +0.000 A 
ATOM      7  C   UNL     1       5.026   6.477  16.032  0.00  0.00    +0.000 A 
ATOM      8  C   UNL     1       5.770   5.630  15.200  0.00  0.00    +0.000 A 
ATOM      9  C   UNL     1       5.621   4.248  15.260  0.00  0.00    +0.000 A 
ATOM     10  C   UNL     1       4.671   3.689  16.117  0.00  0.00    +0.000 A 
ATOM     11  C   UNL     1       3.928   4.513  16.993  0.00  0.00    +0.000 A 
ENDROOT
BRANCH   1  12
ATOM     12  C   UNL     1       2.495   2.943  18.475  0.00  0.00    +0.000 C 
ATOM     13  O   UNL     1       1.731   2.220  17.841  0.00  0.00    +0.000 OA
BRANCH  12  14
ATOM     14  O   UNL     1       2.903   2.683  19.752  0.00  0.00    +0.000 OA
BRANCH  14  16
ATOM     15  C   UNL     1       2.123   3.180  21.960  0.00  0.00    +0.000 C 
ATOM     16  C   UNL     1       1.848   2.408  20.680  0.00  0.00    +0.000 C 
ENDBRANCH  14  16
ENDBRANCH  12  14
ENDBRANCH   1  12
BRANCH   9  17
ATOM     17  O   UNL     1       6.452   3.514  14.451  0.00  0.00    +0.000 OA
BRANCH  17  18
ATOM     18  C   UNL     1       6.503   3.958  13.093  0.00  0.00    +0.000 C 
BRANCH  18  19
ATOM     19  C   UNL     1       5.654   3.091  12.169  0.00  0.00    +0.000 C 
ATOM     20  N   UNL     1       6.214   1.914  11.777  0.00  0.00    +0.000 N 
ATOM     21  O   UNL     1       4.536   3.419  11.785  0.00  0.00    +0.000 OA
ATOM     22  H   UNL     1       7.115   1.627  12.139  0.00  0.00    +0.000 HD
ATOM     23  H   UNL     1       5.680   1.287  11.189  0.00  0.00    +0.000 HD
ENDBRANCH  18  19
ENDBRANCH  17  18
ENDBRANCH   9  17
TORSDOF 6
ENDMDL
