MODEL 1
REMARK VINA RESULT:      -7.8      0.000      0.000
REMARK  Name = 
REMARK  6 active torsions:
REMARK  status: ('A' for Active; 'I' for Inactive)
REMARK    1  A    between atoms: C_1  and  C_2
REMARK    2  A    between atoms: C_4  and  N_5
REMARK    3  A    between atoms: N_5  and  C_6
REMARK    4  A    between atoms: C_12  and  C_13
REMARK    5  A    between atoms: C_16  and  C_17
REMARK    6  A    between atoms: N_21  and  C_22
REMARK                            x       y       z     vdW  Elec       q    Type
REMARK                         _______ _______ _______ _____ _____    ______ ____
ROOT
ATOM      1  C   UNL     1       2.354   5.955  19.775  0.00  0.00    +0.000 A 
ATOM      2  N   UNL     1       1.431   5.316  20.543  0.00  0.00    +0.000 NA
ATOM      3  C   UNL     1       1.151   4.027  20.336  0.00  0.00    +0.000 A 
ATOM      4  N   UNL     1       1.674   3.245  19.410  0.00  0.00    +0.000 NA
ATOM      5  C   UNL     1       2.578   3.880  18.650  0.00  0.00    +0.000 A 
ATOM      6  S   UNL     1       3.333   3.022  17.409  0.00  0.00    +0.000 S 
ATOM      7  C   UNL     1       4.280   4.367  16.938  0.00  0.00    +0.000 A 
ATOM      8  C   UNL     1       4.035   5.479  17.752  0.00  0.00    +0.000 A 
ATOM      9  C   UNL     1       4.734   6.801  17.627  0.00  0.00    +0.000 C 
ATOM     10  C   UNL     1       2.995   5.201  18.750  0.00  0.00    +0.000 A 
ENDROOT
BRANCH   7  11
ATOM     11  C   UNL     1       5.192   4.219  15.802  0.00  0.00    +0.000 C 
ATOM     12  N   UNL     1       6.019   3.126  15.816  0.00  0.00    +0.000 N 
ATOM     13  O   UNL     1       5.269   4.992  14.851  0.00  0.00    +0.000 OA
ATOM     14  H   UNL     1       5.990   2.448  16.564  0.00  0.00    +0.000 HD
ATOM     15  H   UNL     1       6.657   2.992  15.044  0.00  0.00    +0.000 HD
ENDBRANCH   7  11
BRANCH   1  16
ATOM     16  N   UNL     1       2.631   7.315  20.056  0.00  0.00    +0.000 N 
ATOM     17  H   UNL     1       3.402   7.427  20.708  0.00  0.00    +0.000 HD
BRANCH  16  21
ATOM     18  C   UNL     1      -0.414   9.619  23.246  0.00  0.00    +0.000 C 
ATOM     19  C   UNL     1       0.121   9.471  21.856  0.00  0.00    +0.000 A 
ATOM     20  C   UNL     1       1.035   8.385  21.583  0.00  0.00    +0.000 A 
ATOM     21  C   UNL     1       1.611   8.209  20.380  0.00  0.00    +0.000 A 
ATOM     22  C   UNL     1       1.155   9.114  19.250  0.00  0.00    +0.000 A 
ATOM     23  O   UNL     1       1.545   8.871  18.106  0.00  0.00    +0.000 OA
ATOM     24  N   UNL     1       0.363  10.204  19.608  0.00  0.00    +0.000 N 
ATOM     25  C   UNL     1       0.062  11.224  18.616  0.00  0.00    +0.000 C 
ATOM     26  C   UNL     1      -0.146  10.356  20.884  0.00  0.00    +0.000 A 
ENDBRANCH  16  21
ENDBRANCH   1  16
TORSDOF 3
ENDMDL
MODEL 2
REMARK VINA RESULT:      -7.6      3.748      7.800
REMARK  Name = 
REMARK  6 active torsions:
REMARK  status: ('A' for Active; 'I' for Inactive)
REMARK    1  A    between atoms: C_1  and  C_2
REMARK    2  A    between atoms: C_4  and  N_5
REMARK    3  A    between atoms: N_5  and  C_6
REMARK    4  A    between atoms: C_12  and  C_13
REMARK    5  A    between atoms: C_16  and  C_17
REMARK    6  A    between atoms: N_21  and  C_22
REMARK                            x       y       z     vdW  Elec       q    Type
REMARK                         _______ _______ _______ _____ _____    ______ ____
ROOT
ATOM      1  C   UNL     1       4.737   4.882  17.028  0.00  0.00    +0.000 A 
ATOM      2  N   UNL     1       4.852   6.124  16.483  0.00  0.00    +0.000 NA
ATOM      3  C   UNL     1       4.213   7.164  17.022  0.00  0.00    +0.000 A 
ATOM      4  N   UNL     1       3.414   7.140  18.074  0.00  0.00    +0.000 NA
ATOM      5  C   UNL     1       3.297   5.913  18.604  0.00  0.00    +0.000 A 
ATOM      6  S   UNL     1       2.300   5.709  19.949  0.00  0.00    +0.000 S 
ATOM      7  C   UNL     1       2.641   4.036  20.056  0.00  0.00    +0.000 A 
ATOM      8  C   UNL     1       3.546   3.632  19.067  0.00  0.00    +0.000 A 
ATOM      9  C   UNL     1       4.079   2.237  18.915  0.00  0.00    +0.000 C 
ATOM     10  C   UNL     1       3.909   4.742  18.178  0.00  0.00    +0.000 A 
ENDROOT
BRANCH   7  11
ATOM     11  C   UNL     1       1.991   3.253  21.108  0.00  0.00    +0.000 C 
ATOM     12  N   UNL     1       0.679   2.915  20.902  0.00  0.00    +0.000 N 
ATOM     13  O   UNL     1       2.529   2.882  22.148  0.00  0.00    +0.000 OA
ATOM     14  H   UNL     1       0.189   3.179  20.060  0.00  0.00    +0.000 HD
ATOM     15  H   UNL     1       0.203   2.370  21.608  0.00  0.00    +0.000 HD
ENDBRANCH   7  11
BRANCH   1  16
ATOM     16  N   UNL     1       5.460   3.821  16.431  0.00  0.00    +0.000 N 
ATOM     17  H   UNL     1       6.260   3.535  16.988  0.00  0.00    +0.000 HD
BRANCH  16  21
ATOM     18  C   UNL     1       4.577   3.172  11.576  0.00  0.00    +0.000 C 
ATOM     19  C   UNL     1       5.477   3.664  12.667  0.00  0.00    +0.000 A 
ATOM     20  C   UNL     1       5.102   3.404  14.038  0.00  0.00    +0.000 A 
ATOM     21  C   UNL     1       5.818   3.858  15.083  0.00  0.00    +0.000 A 
ATOM     22  C   UNL     1       7.138   4.541  14.778  0.00  0.00    +0.000 A 
ATOM     23  O   UNL     1       7.886   4.822  15.717  0.00  0.00    +0.000 OA
ATOM     24  N   UNL     1       7.381   4.858  13.443  0.00  0.00    +0.000 N 
ATOM     25  C   UNL     1       8.521   5.692  13.103  0.00  0.00    +0.000 C 
ATOM     26  C   UNL     1       6.565   4.408  12.421  0.00  0.00    +0.000 A 
ENDBRANCH  16  21
ENDBRANCH   1  16
TORSDOF 3
ENDMDL
MODEL 3
REMARK VINA RESULT:      -7.5      1.152      1.152
REMARK  Name = 
REMARK  6 active torsions:
REMARK  status: ('A' for Active; 'I' for Inactive)
REMARK    1  A    between atoms: C_1  and  C_2
REMARK    2  A    between atoms: C_4  and  N_5
REMARK    3  A    between atoms: N_5  and  C_6
REMARK    4  A    between atoms: C_12  and  C_13
REMARK    5  A    between atoms: C_16  and  C_17
REMARK    6  A    between atoms: N_21  and  C_22
REMARK                            x       y       z     vdW  Elec       q    Type
REMARK                         _______ _______ _______ _____ _____    ______ ____
ROOT
ATOM      1  C   UNL     1       2.517   6.461  19.615  0.00  0.00    +0.000 A 
ATOM      2  N   UNL     1       1.722   5.929  20.582  0.00  0.00    +0.000 NA
ATOM      3  C   UNL     1       1.885   4.664  20.976  0.00  0.00    +0.000 A 
ATOM      4  N   UNL     1       2.763   3.798  20.504  0.00  0.00    +0.000 NA
ATOM      5  C   UNL     1       3.540   4.323  19.545  0.00  0.00    +0.000 A 
ATOM      6  S   UNL     1       4.709   3.340  18.828  0.00  0.00    +0.000 S 
ATOM      7  C   UNL     1       5.264   4.597  17.808  0.00  0.00    +0.000 A 
ATOM      8  C   UNL     1       4.564   5.789  18.034  0.00  0.00    +0.000 A 
ATOM      9  C   UNL     1       4.839   7.087  17.332  0.00  0.00    +0.000 C 
ATOM     10  C   UNL     1       3.513   5.617  19.043  0.00  0.00    +0.000 A 
ENDROOT
BRANCH   7  11
ATOM     11  C   UNL     1       6.347   4.310  16.867  0.00  0.00    +0.000 C 
ATOM     12  N   UNL     1       6.036   3.514  15.796  0.00  0.00    +0.000 N 
ATOM     13  O   UNL     1       7.498   4.725  16.965  0.00  0.00    +0.000 OA
ATOM     14  H   UNL     1       5.102   3.156  15.654  0.00  0.00    +0.000 HD
ATOM     15  H   UNL     1       6.760   3.301  15.124  0.00  0.00    +0.000 HD
ENDBRANCH   7  11
BRANCH   1  16
ATOM     16  N   UNL     1       2.318   7.816  19.257  0.00  0.00    +0.000 N 
ATOM     17  H   UNL     1       3.192   8.327  19.174  0.00  0.00    +0.000 HD
BRANCH  16  21
ATOM     18  C   UNL     1      -0.020   9.511  23.309  0.00  0.00    +0.000 C 
ATOM     19  C   UNL     1       0.209   9.580  21.831  0.00  0.00    +0.000 A 
ATOM     20  C   UNL     1       1.064   8.588  21.220  0.00  0.00    +0.000 A 
ATOM     21  C   UNL     1       1.373   8.606  19.912  0.00  0.00    +0.000 A 
ATOM     22  C   UNL     1       0.670   9.633  19.044  0.00  0.00    +0.000 A 
ATOM     23  O   UNL     1       0.813   9.568  17.821  0.00  0.00    +0.000 OA
ATOM     24  N   UNL     1      -0.047  10.625  19.711  0.00  0.00    +0.000 N 
ATOM     25  C   UNL     1      -0.572  11.754  18.961  0.00  0.00    +0.000 C 
ATOM     26  C   UNL     1      -0.276  10.575  21.074  0.00  0.00    +0.000 A 
ENDBRANCH  16  21
ENDBRANCH   1  16
TORSDOF 3
ENDMDL
MODEL 4
REMARK VINA RESULT:      -7.5      3.811      7.826
REMARK  Name = 
REMARK  6 active torsions:
REMARK  status: ('A' for Active; 'I' for Inactive)
REMARK    1  A    between atoms: C_1  and  C_2
REMARK    2  A    between atoms: C_4  and  N_5
REMARK    3  A    between atoms: N_5  and  C_6
REMARK    4  A    between atoms: C_12  and  C_13
REMARK    5  A    between atoms: C_16  and  C_17
REMARK    6  A    between atoms: N_21  and  C_22
REMARK                            x       y       z     vdW  Elec       q    Type
REMARK                         _______ _______ _______ _____ _____    ______ ____
ROOT
ATOM      1  C   UNL     1       4.848   4.869  16.861  0.00  0.00    +0.000 A 
ATOM      2  N   UNL     1       5.189   6.169  16.650  0.00  0.00    +0.000 NA
ATOM      3  C   UNL     1       4.474   7.156  17.196  0.00  0.00    +0.000 A 
ATOM      4  N   UNL     1       3.397   7.026  17.948  0.00  0.00    +0.000 NA
ATOM      5  C   UNL     1       3.059   5.744  18.148  0.00  0.00    +0.000 A 
ATOM      6  S   UNL     1       1.694   5.406  19.080  0.00  0.00    +0.000 S 
ATOM      7  C   UNL     1       1.896   3.715  18.918  0.00  0.00    +0.000 A 
ATOM      8  C   UNL     1       3.033   3.403  18.163  0.00  0.00    +0.000 A 
ATOM      9  C   UNL     1       3.510   2.009  17.873  0.00  0.00    +0.000 C 
ATOM     10  C   UNL     1       3.706   4.611  17.672  0.00  0.00    +0.000 A 
ENDROOT
BRANCH   7  11
ATOM     11  C   UNL     1       0.918   2.828  19.551  0.00  0.00    +0.000 C 
ATOM     12  N   UNL     1       0.866   2.849  20.920  0.00  0.00    +0.000 N 
ATOM     13  O   UNL     1       0.153   2.077  18.953  0.00  0.00    +0.000 OA
ATOM     14  H   UNL     1       1.460   3.457  21.465  0.00  0.00    +0.000 HD
ATOM     15  H   UNL     1       0.197   2.252  21.388  0.00  0.00    +0.000 HD
ENDBRANCH   7  11
BRANCH   1  16
ATOM     16  N   UNL     1       5.657   3.864  16.280  0.00  0.00    +0.000 N 
ATOM     17  H   UNL     1       6.502   3.688  16.816  0.00  0.00    +0.000 HD
BRANCH  16  21
ATOM     18  C   UNL     1       4.612   3.055  11.482  0.00  0.00    +0.000 C 
ATOM     19  C   UNL     1       5.535   3.606  12.524  0.00  0.00    +0.000 A 
ATOM     20  C   UNL     1       5.222   3.371  13.915  0.00  0.00    +0.000 A 
ATOM     21  C   UNL     1       5.962   3.876  14.918  0.00  0.00    +0.000 A 
ATOM     22  C   UNL     1       7.244   4.596  14.545  0.00  0.00    +0.000 A 
ATOM     23  O   UNL     1       8.018   4.928  15.446  0.00  0.00    +0.000 OA
ATOM     24  N   UNL     1       7.424   4.885  13.193  0.00  0.00    +0.000 N 
ATOM     25  C   UNL     1       8.520   5.749  12.787  0.00  0.00    +0.000 C 
ATOM     26  C   UNL     1       6.586   4.381  12.216  0.00  0.00    +0.000 A 
ENDBRANCH  16  21
ENDBRANCH   1  16
TORSDOF 3
ENDMDL
MODEL 5
REMARK VINA RESULT:      -7.5      1.504      1.616
REMARK  Name = 
REMARK  6 active torsions:
REMARK  status: ('A' for Active; 'I' for Inactive)
REMARK    1  A    between atoms: C_1  and  C_2
REMARK    2  A    between atoms: C_4  and  N_5
REMARK    3  A    between atoms: N_5  and  C_6
REMARK    4  A    between atoms: C_12  and  C_13
REMARK    5  A    between atoms: C_16  and  C_17
REMARK    6  A    between atoms: N_21  and  C_22
REMARK                            x       y       z     vdW  Elec       q    Type
REMARK                         _______ _______ _______ _____ _____    ______ ____
ROOT
ATOM      1  C   UNL     1       2.770   5.248  19.063  0.00  0.00    +0.000 A 
ATOM      2  N   UNL     1       1.597   4.558  19.081  0.00  0.00    +0.000 NA
ATOM      3  C   UNL     1       1.390   3.549  18.232  0.00  0.00    +0.000 A 
ATOM      4  N   UNL     1       2.222   3.117  17.302  0.00  0.00    +0.000 NA
ATOM      5  C   UNL     1       3.374   3.805  17.281  0.00  0.00    +0.000 A 
ATOM      6  S   UNL     1       4.542   3.385  16.139  0.00  0.00    +0.000 S 
ATOM      7  C   UNL     1       5.635   4.580  16.691  0.00  0.00    +0.000 A 
ATOM      8  C   UNL     1       5.112   5.294  17.776  0.00  0.00    +0.000 A 
ATOM      9  C   UNL     1       5.838   6.380  18.515  0.00  0.00    +0.000 C 
ATOM     10  C   UNL     1       3.749   4.857  18.105  0.00  0.00    +0.000 A 
ENDROOT
BRANCH   7  11
ATOM     11  C   UNL     1       6.924   4.719  16.012  0.00  0.00    +0.000 C 
ATOM     12  N   UNL     1       6.899   5.242  14.746  0.00  0.00    +0.000 N 
ATOM     13  O   UNL     1       8.012   4.405  16.488  0.00  0.00    +0.000 OA
ATOM     14  H   UNL     1       6.036   5.533  14.309  0.00  0.00    +0.000 HD
ATOM     15  H   UNL     1       7.773   5.357  14.252  0.00  0.00    +0.000 HD
ENDBRANCH   7  11
BRANCH   1  16
ATOM     16  N   UNL     1       2.946   6.291  20.004  0.00  0.00    +0.000 N 
ATOM     17  H   UNL     1       3.166   5.942  20.933  0.00  0.00    +0.000 HD
BRANCH  16  21
ATOM     18  C   UNL     1      -0.462   9.007  22.407  0.00  0.00    +0.000 C 
ATOM     19  C   UNL     1       0.409   8.802  21.206  0.00  0.00    +0.000 A 
ATOM     20  C   UNL     1       1.179   7.583  21.114  0.00  0.00    +0.000 A 
ATOM     21  C   UNL     1       2.031   7.339  20.103  0.00  0.00    +0.000 A 
ATOM     22  C   UNL     1       2.057   8.336  18.959  0.00  0.00    +0.000 A 
ATOM     23  O   UNL     1       2.707   8.057  17.949  0.00  0.00    +0.000 OA
ATOM     24  N   UNL     1       1.381   9.537  19.165  0.00  0.00    +0.000 N 
ATOM     25  C   UNL     1       1.533  10.617  18.203  0.00  0.00    +0.000 C 
ATOM     26  C   UNL     1       0.567   9.743  20.264  0.00  0.00    +0.000 A 
ENDBRANCH  16  21
ENDBRANCH   1  16
TORSDOF 3
ENDMDL
MODEL 6
REMARK VINA RESULT:      -7.2      3.513      5.434
REMARK  Name = 
REMARK  6 active torsions:
REMARK  status: ('A' for Active; 'I' for Inactive)
REMARK    1  A    between atoms: C_1  and  C_2
REMARK    2  A    between atoms: C_4  and  N_5
REMARK    3  A    between atoms: N_5  and  C_6
REMARK    4  A    between atoms: C_12  and  C_13
REMARK    5  A    between atoms: C_16  and  C_17
REMARK    6  A    between atoms: N_21  and  C_22
REMARK                            x       y       z     vdW  Elec       q    Type
REMARK                         _______ _______ _______ _____ _____    ______ ____
ROOT
ATOM      1  C   UNL     1       6.217   4.675  18.185  0.00  0.00    +0.000 A 
ATOM      2  N   UNL     1       6.919   5.656  18.815  0.00  0.00    +0.000 NA
ATOM      3  C   UNL     1       7.618   6.549  18.112  0.00  0.00    +0.000 A 
ATOM      4  N   UNL     1       7.741   6.598  16.799  0.00  0.00    +0.000 NA
ATOM      5  C   UNL     1       7.055   5.625  16.181  0.00  0.00    +0.000 A 
ATOM      6  S   UNL     1       7.118   5.539  14.497  0.00  0.00    +0.000 S 
ATOM      7  C   UNL     1       6.077   4.182  14.441  0.00  0.00    +0.000 A 
ATOM      8  C   UNL     1       5.657   3.804  15.721  0.00  0.00    +0.000 A 
ATOM      9  C   UNL     1       4.707   2.678  16.011  0.00  0.00    +0.000 C 
ATOM     10  C   UNL     1       6.267   4.640  16.762  0.00  0.00    +0.000 A 
ENDROOT
BRANCH   7  11
ATOM     11  C   UNL     1       5.755   3.599  13.138  0.00  0.00    +0.000 C 
ATOM     12  N   UNL     1       6.765   2.929  12.497  0.00  0.00    +0.000 N 
ATOM     13  O   UNL     1       4.661   3.665  12.584  0.00  0.00    +0.000 OA
ATOM     14  H   UNL     1       7.681   2.829  12.911  0.00  0.00    +0.000 HD
ATOM     15  H   UNL     1       6.573   2.510  11.598  0.00  0.00    +0.000 HD
ENDBRANCH   7  11
BRANCH   1  16
ATOM     16  N   UNL     1       5.471   3.771  18.979  0.00  0.00    +0.000 N 
ATOM     17  H   UNL     1       5.516   2.818  18.628  0.00  0.00    +0.000 HD
BRANCH  16  21
ATOM     18  C   UNL     1       1.834   6.869  20.372  0.00  0.00    +0.000 C 
ATOM     19  C   UNL     1       2.275   5.491  19.985  0.00  0.00    +0.000 A 
ATOM     20  C   UNL     1       3.685   5.251  19.781  0.00  0.00    +0.000 A 
ATOM     21  C   UNL     1       4.166   4.062  19.375  0.00  0.00    +0.000 A 
ATOM     22  C   UNL     1       3.183   2.911  19.276  0.00  0.00    +0.000 A 
ATOM     23  O   UNL     1       3.622   1.778  19.063  0.00  0.00    +0.000 OA
ATOM     24  N   UNL     1       1.831   3.237  19.374  0.00  0.00    +0.000 N 
ATOM     25  C   UNL     1       0.829   2.224  19.084  0.00  0.00    +0.000 C 
ATOM     26  C   UNL     1       1.404   4.501  19.737  0.00  0.00    +0.000 A 
ENDBRANCH  16  21
ENDBRANCH   1  16
TORSDOF 3
ENDMDL
MODEL 7
REMARK VINA RESULT:      -7.2      1.160      2.012
REMARK  Name = 
REMARK  6 active torsions:
REMARK  status: ('A' for Active; 'I' for Inactive)
REMARK    1  A    between atoms: C_1  and  C_2
REMARK    2  A    between atoms: C_4  and  N_5
REMARK    3  A    between atoms: N_5  and  C_6
REMARK    4  A    between atoms: C_12  and  C_13
REMARK    5  A    between atoms: C_16  and  C_17
REMARK    6  A    between atoms: N_21  and  C_22
REMARK                            x       y       z     vdW  Elec       q    Type
REMARK                         _______ _______ _______ _____ _____    ______ ____
ROOT
ATOM      1  C   UNL     1       2.242   6.199  19.882  0.00  0.00    +0.000 A 
ATOM      2  N   UNL     1       1.300   5.555  20.623  0.00  0.00    +0.000 NA
ATOM      3  C   UNL     1       1.014   4.273  20.392  0.00  0.00    +0.000 A 
ATOM      4  N   UNL     1       1.547   3.500  19.463  0.00  0.00    +0.000 NA
ATOM      5  C   UNL     1       2.469   4.140  18.728  0.00  0.00    +0.000 A 
ATOM      6  S   UNL     1       3.237   3.295  17.486  0.00  0.00    +0.000 S 
ATOM      7  C   UNL     1       4.203   4.639  17.053  0.00  0.00    +0.000 A 
ATOM      8  C   UNL     1       3.954   5.740  17.881  0.00  0.00    +0.000 A 
ATOM      9  C   UNL     1       4.666   7.058  17.789  0.00  0.00    +0.000 C 
ATOM     10  C   UNL     1       2.894   5.455  18.856  0.00  0.00    +0.000 A 
ENDROOT
BRANCH   7  11
ATOM     11  C   UNL     1       5.134   4.502  15.931  0.00  0.00    +0.000 C 
ATOM     12  N   UNL     1       5.971   3.417  15.957  0.00  0.00    +0.000 N 
ATOM     13  O   UNL     1       5.217   5.277  14.982  0.00  0.00    +0.000 OA
ATOM     14  H   UNL     1       5.938   2.738  16.703  0.00  0.00    +0.000 HD
ATOM     15  H   UNL     1       6.622   3.291  15.194  0.00  0.00    +0.000 HD
ENDBRANCH   7  11
BRANCH   1  16
ATOM     16  N   UNL     1       2.525   7.551  20.189  0.00  0.00    +0.000 N 
ATOM     17  H   UNL     1       3.026   7.653  21.067  0.00  0.00    +0.000 HD
BRANCH  16  21
ATOM     18  C   UNL     1      -0.887  10.207  17.725  0.00  0.00    +0.000 C 
ATOM     19  C   UNL     1      -0.222   9.847  19.018  0.00  0.00    +0.000 A 
ATOM     20  C   UNL     1       0.918   8.959  18.981  0.00  0.00    +0.000 A 
ATOM     21  C   UNL     1       1.541   8.536  20.095  0.00  0.00    +0.000 A 
ATOM     22  C   UNL     1       1.100   9.143  21.414  0.00  0.00    +0.000 A 
ATOM     23  O   UNL     1       1.758   8.894  22.426  0.00  0.00    +0.000 OA
ATOM     24  N   UNL     1      -0.071   9.899  21.389  0.00  0.00    +0.000 N 
ATOM     25  C   UNL     1      -0.665  10.336  22.642  0.00  0.00    +0.000 C 
ATOM     26  C   UNL     1      -0.697  10.246  20.206  0.00  0.00    +0.000 A 
ENDBRANCH  16  21
ENDBRANCH   1  16
TORSDOF 3
ENDMDL
MODEL 8
REMARK VINA RESULT:      -6.9      2.967      7.020
REMARK  Name = 
REMARK  6 active torsions:
REMARK  status: ('A' for Active; 'I' for Inactive)
REMARK    1  A    between atoms: C_1  and  C_2
REMARK    2  A    between atoms: C_4  and  N_5
REMARK    3  A    between atoms: N_5  and  C_6
REMARK    4  A    between atoms: C_12  and  C_13
REMARK    5  A    between atoms: C_16  and  C_17
REMARK    6  A    between atoms: N_21  and  C_22
REMARK                            x       y       z     vdW  Elec       q    Type
REMARK                         _______ _______ _______ _____ _____    ______ ____
ROOT
ATOM      1  C   UNL     1       1.458   8.496  20.397  0.00  0.00    +0.000 A 
ATOM      2  N   UNL     1       1.821   8.301  21.694  0.00  0.00    +0.000 NA
ATOM      3  C   UNL     1       1.301   9.054  22.665  0.00  0.00    +0.000 A 
ATOM      4  N   UNL     1       0.438  10.043  22.520  0.00  0.00    +0.000 NA
ATOM      5  C   UNL     1       0.088  10.238  21.240  0.00  0.00    +0.000 A 
ATOM      6  S   UNL     1      -1.001  11.476  20.882  0.00  0.00    +0.000 S 
ATOM      7  C   UNL     1      -0.977  11.130  19.207  0.00  0.00    +0.000 A 
ATOM      8  C   UNL     1      -0.145  10.041  18.919  0.00  0.00    +0.000 A 
ATOM      9  C   UNL     1       0.060   9.461  17.550  0.00  0.00    +0.000 C 
ATOM     10  C   UNL     1       0.518   9.532  20.125  0.00  0.00    +0.000 A 
ENDROOT
BRANCH   7  11
ATOM     11  C   UNL     1      -1.782  11.958  18.308  0.00  0.00    +0.000 C 
ATOM     12  N   UNL     1      -1.110  12.899  17.572  0.00  0.00    +0.000 N 
ATOM     13  O   UNL     1      -2.999  11.873  18.167  0.00  0.00    +0.000 OA
ATOM     14  H   UNL     1      -0.107  13.005  17.635  0.00  0.00    +0.000 HD
ATOM     15  H   UNL     1      -1.636  13.484  16.938  0.00  0.00    +0.000 HD
ENDBRANCH   7  11
BRANCH   1  16
ATOM     16  N   UNL     1       2.021   7.651  19.411  0.00  0.00    +0.000 N 
ATOM     17  H   UNL     1       1.485   7.652  18.547  0.00  0.00    +0.000 HD
BRANCH  16  21
ATOM     18  C   UNL     1       1.397   3.203  21.554  0.00  0.00    +0.000 C 
ATOM     19  C   UNL     1       2.183   4.095  20.645  0.00  0.00    +0.000 A 
ATOM     20  C   UNL     1       1.803   5.486  20.548  0.00  0.00    +0.000 A 
ATOM     21  C   UNL     1       2.414   6.347  19.715  0.00  0.00    +0.000 A 
ATOM     22  C   UNL     1       3.636   5.845  18.967  0.00  0.00    +0.000 A 
ATOM     23  O   UNL     1       4.306   6.655  18.324  0.00  0.00    +0.000 OA
ATOM     24  N   UNL     1       3.876   4.472  19.019  0.00  0.00    +0.000 N 
ATOM     25  C   UNL     1       4.900   3.894  18.165  0.00  0.00    +0.000 C 
ATOM     26  C   UNL     1       3.164   3.633  19.857  0.00  0.00    +0.000 A 
ENDBRANCH  16  21
ENDBRANCH   1  16
TORSDOF 3
ENDMDL
MODEL 9
REMARK VINA RESULT:      -6.9      4.465      8.616
REMARK  Name = 
REMARK  6 active torsions:
REMARK  status: ('A' for Active; 'I' for Inactive)
REMARK    1  A    between atoms: C_1  and  C_2
REMARK    2  A    between atoms: C_4  and  N_5
REMARK    3  A    between atoms: N_5  and  C_6
REMARK    4  A    between atoms: C_12  and  C_13
REMARK    5  A    between atoms: C_16  and  C_17
REMARK    6  A    between atoms: N_21  and  C_22
REMARK                            x       y       z     vdW  Elec       q    Type
REMARK                         _______ _______ _______ _____ _____    ______ ____
ROOT
ATOM      1  C   UNL     1      -1.577  10.990  17.908  0.00  0.00    +0.000 A 
ATOM      2  N   UNL     1      -1.749  10.237  16.788  0.00  0.00    +0.000 NA
ATOM      3  C   UNL     1      -2.972  10.009  16.304  0.00  0.00    +0.000 A 
ATOM      4  N   UNL     1      -4.114  10.431  16.816  0.00  0.00    +0.000 NA
ATOM      5  C   UNL     1      -3.941  11.166  17.925  0.00  0.00    +0.000 A 
ATOM      6  S   UNL     1      -5.306  11.771  18.710  0.00  0.00    +0.000 S 
ATOM      7  C   UNL     1      -4.374  12.549  19.915  0.00  0.00    +0.000 A 
ATOM      8  C   UNL     1      -3.002  12.364  19.703  0.00  0.00    +0.000 A 
ATOM      9  C   UNL     1      -1.918  12.953  20.558  0.00  0.00    +0.000 C 
ATOM     10  C   UNL     1      -2.745  11.510  18.538  0.00  0.00    +0.000 A 
ENDROOT
BRANCH   7  11
ATOM     11  C   UNL     1      -5.068  13.282  20.975  0.00  0.00    +0.000 C 
ATOM     12  N   UNL     1      -5.611  12.534  21.987  0.00  0.00    +0.000 N 
ATOM     13  O   UNL     1      -5.198  14.502  21.022  0.00  0.00    +0.000 OA
ATOM     14  H   UNL     1      -5.522  11.528  22.009  0.00  0.00    +0.000 HD
ATOM     15  H   UNL     1      -6.092  13.010  22.737  0.00  0.00    +0.000 HD
ENDBRANCH   7  11
BRANCH   1  16
ATOM     16  N   UNL     1      -0.256  11.222  18.361  0.00  0.00    +0.000 N 
ATOM     17  H   UNL     1       0.389  11.407  17.598  0.00  0.00    +0.000 HD
BRANCH  16  21
ATOM     18  C   UNL     1       0.289   9.271  22.907  0.00  0.00    +0.000 C 
ATOM     19  C   UNL     1       0.659   9.279  21.456  0.00  0.00    +0.000 A 
ATOM     20  C   UNL     1       0.119  10.322  20.614  0.00  0.00    +0.000 A 
ATOM     21  C   UNL     1       0.350  10.375  19.290  0.00  0.00    +0.000 A 
ATOM     22  C   UNL     1       1.331   9.372  18.713  0.00  0.00    +0.000 A 
ATOM     23  O   UNL     1       1.681   9.499  17.538  0.00  0.00    +0.000 OA
ATOM     24  N   UNL     1       1.722   8.330  19.553  0.00  0.00    +0.000 N 
ATOM     25  C   UNL     1       2.492   7.224  19.009  0.00  0.00    +0.000 C 
ATOM     26  C   UNL     1       1.396   8.308  20.897  0.00  0.00    +0.000 A 
ENDBRANCH  16  21
ENDBRANCH   1  16
TORSDOF 3
ENDMDL
