MODEL 1
REMARK VINA RESULT:      -8.6      0.000      0.000
REMARK  Name = 
REMARK  3 active torsions:
REMARK  status: ('A' for Active; 'I' for Inactive)
REMARK    1  A    between atoms: N_5  and  C_6
REMARK    2  A    between atoms: C_6  and  C_7
REMARK    3  A    between atoms: N_14  and  C_15
REMARK                            x       y       z     vdW  Elec       q    Type
REMARK                         _______ _______ _______ _____ _____    ______ ____
ROOT
ATOM      1  N   UNL     1       8.202   5.238  19.520  0.00  0.00    +0.000 N 
ATOM      2  C   UNL     1       7.415   5.210  18.449  0.00  0.00    +0.000 A 
ATOM      3  N   UNL     1       6.131   5.632  18.565  0.00  0.00    +0.000 NA
ATOM      4  C   UNL     1       5.628   5.424  17.367  0.00  0.00    +0.000 A 
ATOM      5  N   UNL     1       4.329   5.514  16.984  0.00  0.00    +0.000 N 
ATOM      6  N   UNL     1       6.659   4.996  16.518  0.00  0.00    +0.000 N 
ATOM      7  N   UNL     1       7.784   4.792  17.248  0.00  0.00    +0.000 NA
ATOM      8  H   UNL     1       7.902   5.780  20.318  0.00  0.00    +0.000 HD
ATOM      9  H   UNL     1       9.202   5.202  19.369  0.00  0.00    +0.000 HD
ATOM     10  H   UNL     1       3.984   4.985  16.188  0.00  0.00    +0.000 HD
ENDROOT
BRANCH   6  11
ATOM     11  C   UNL     1       6.633   4.736  15.121  0.00  0.00    +0.000 A 
ATOM     12  C   UNL     1       5.722   3.827  14.566  0.00  0.00    +0.000 A 
ATOM     13  C   UNL     1       5.802   3.494  13.212  0.00  0.00    +0.000 A 
ATOM     14  C   UNL     1       6.772   4.083  12.406  0.00  0.00    +0.000 A 
ATOM     15  C   UNL     1       7.635   5.041  12.938  0.00  0.00    +0.000 A 
ATOM     16  C   UNL     1       7.558   5.381  14.289  0.00  0.00    +0.000 A 
ENDBRANCH   6  11
BRANCH   5  17
ATOM     17  C   UNL     1       3.292   5.960  17.888  0.00  0.00    +0.000 C 
BRANCH  17  18
ATOM     18  C   UNL     1       2.520   4.767  18.398  0.00  0.00    +0.000 A 
ATOM     19  C   UNL     1       2.562   3.579  17.646  0.00  0.00    +0.000 A 
ATOM     20  C   UNL     1       1.859   2.444  18.054  0.00  0.00    +0.000 A 
ATOM     21  C   UNL     1       1.110   2.474  19.227  0.00  0.00    +0.000 A 
ATOM     22  C   UNL     1       1.081   3.633  20.001  0.00  0.00    +0.000 A 
ATOM     23  C   UNL     1       1.789   4.771  19.595  0.00  0.00    +0.000 A 
ATOM     24 CL   UNL     1       1.731   6.154  20.631  0.00  0.00    +0.000 Cl
ENDBRANCH  17  18
ENDBRANCH   5  17
TORSDOF 3
ENDMDL
MODEL 2
REMARK VINA RESULT:      -8.4      0.135      1.063
REMARK  Name = 
REMARK  3 active torsions:
REMARK  status: ('A' for Active; 'I' for Inactive)
REMARK    1  A    between atoms: N_5  and  C_6
REMARK    2  A    between atoms: C_6  and  C_7
REMARK    3  A    between atoms: N_14  and  C_15
REMARK                            x       y       z     vdW  Elec       q    Type
REMARK                         _______ _______ _______ _____ _____    ______ ____
ROOT
ATOM      1  N   UNL     1       8.139   5.330  19.699  0.00  0.00    +0.000 N 
ATOM      2  C   UNL     1       7.397   5.255  18.597  0.00  0.00    +0.000 A 
ATOM      3  N   UNL     1       6.108   5.673  18.643  0.00  0.00    +0.000 NA
ATOM      4  C   UNL     1       5.657   5.417  17.434  0.00  0.00    +0.000 A 
ATOM      5  N   UNL     1       4.374   5.483  16.994  0.00  0.00    +0.000 N 
ATOM      6  N   UNL     1       6.724   4.962  16.646  0.00  0.00    +0.000 N 
ATOM      7  N   UNL     1       7.819   4.793  17.430  0.00  0.00    +0.000 NA
ATOM      8  H   UNL     1       7.803   5.900  20.462  0.00  0.00    +0.000 HD
ATOM      9  H   UNL     1       9.144   5.294  19.591  0.00  0.00    +0.000 HD
ATOM     10  H   UNL     1       4.066   4.921  16.206  0.00  0.00    +0.000 HD
ENDROOT
BRANCH   6  11
ATOM     11  C   UNL     1       6.759   4.648  15.260  0.00  0.00    +0.000 A 
ATOM     12  C   UNL     1       7.643   5.298  14.389  0.00  0.00    +0.000 A 
ATOM     13  C   UNL     1       7.569   5.065  13.014  0.00  0.00    +0.000 A 
ATOM     14  C   UNL     1       6.632   4.166  12.509  0.00  0.00    +0.000 A 
ATOM     15  C   UNL     1       5.798   3.465  13.379  0.00  0.00    +0.000 A 
ATOM     16  C   UNL     1       5.869   3.691  14.754  0.00  0.00    +0.000 A 
ENDBRANCH   6  11
BRANCH   5  17
ATOM     17  C   UNL     1       3.299   5.958  17.836  0.00  0.00    +0.000 C 
BRANCH  17  18
ATOM     18  C   UNL     1       2.525   4.779  18.378  0.00  0.00    +0.000 A 
ATOM     19  C   UNL     1       2.547   3.579  17.646  0.00  0.00    +0.000 A 
ATOM     20  C   UNL     1       1.841   2.456  18.084  0.00  0.00    +0.000 A 
ATOM     21  C   UNL     1       1.111   2.512  19.267  0.00  0.00    +0.000 A 
ATOM     22  C   UNL     1       1.103   3.684  20.022  0.00  0.00    +0.000 A 
ATOM     23  C   UNL     1       1.813   4.809  19.586  0.00  0.00    +0.000 A 
ATOM     24 CL   UNL     1       1.783   6.211  20.599  0.00  0.00    +0.000 Cl
ENDBRANCH  17  18
ENDBRANCH   5  17
TORSDOF 3
ENDMDL
MODEL 3
REMARK VINA RESULT:      -8.2      1.375      2.056
REMARK  Name = 
REMARK  3 active torsions:
REMARK  status: ('A' for Active; 'I' for Inactive)
REMARK    1  A    between atoms: N_5  and  C_6
REMARK    2  A    between atoms: C_6  and  C_7
REMARK    3  A    between atoms: N_14  and  C_15
REMARK                            x       y       z     vdW  Elec       q    Type
REMARK                         _______ _______ _______ _____ _____    ______ ____
ROOT
ATOM      1  N   UNL     1       8.300   5.329  20.490  0.00  0.00    +0.000 N 
ATOM      2  C   UNL     1       7.453   5.243  19.468  0.00  0.00    +0.000 A 
ATOM      3  N   UNL     1       6.178   5.674  19.632  0.00  0.00    +0.000 NA
ATOM      4  C   UNL     1       5.609   5.402  18.478  0.00  0.00    +0.000 A 
ATOM      5  N   UNL     1       4.290   5.473  18.163  0.00  0.00    +0.000 N 
ATOM      6  N   UNL     1       6.590   4.924  17.597  0.00  0.00    +0.000 N 
ATOM      7  N   UNL     1       7.755   4.758  18.273  0.00  0.00    +0.000 NA
ATOM      8  H   UNL     1       8.044   5.915  21.272  0.00  0.00    +0.000 HD
ATOM      9  H   UNL     1       9.289   5.282  20.285  0.00  0.00    +0.000 HD
ATOM     10  H   UNL     1       3.901   4.901  17.419  0.00  0.00    +0.000 HD
ENDROOT
BRANCH   6  11
ATOM     11  C   UNL     1       6.486   4.586  16.221  0.00  0.00    +0.000 A 
ATOM     12  C   UNL     1       7.393   5.088  15.278  0.00  0.00    +0.000 A 
ATOM     13  C   UNL     1       7.195   4.846  13.917  0.00  0.00    +0.000 A 
ATOM     14  C   UNL     1       6.108   4.084  13.496  0.00  0.00    +0.000 A 
ATOM     15  C   UNL     1       5.243   3.523  14.436  0.00  0.00    +0.000 A 
ATOM     16  C   UNL     1       5.438   3.758  15.797  0.00  0.00    +0.000 A 
ENDBRANCH   6  11
BRANCH   5  17
ATOM     17  C   UNL     1       3.305   5.972  19.098  0.00  0.00    +0.000 C 
BRANCH  17  18
ATOM     18  C   UNL     1       2.548   4.812  19.700  0.00  0.00    +0.000 A 
ATOM     19  C   UNL     1       2.748   4.526  21.062  0.00  0.00    +0.000 A 
ATOM     20  C   UNL     1       2.092   3.458  21.678  0.00  0.00    +0.000 A 
ATOM     21  C   UNL     1       1.215   2.665  20.944  0.00  0.00    +0.000 A 
ATOM     22  C   UNL     1       0.982   2.952  19.599  0.00  0.00    +0.000 A 
ATOM     23  C   UNL     1       1.636   4.025  18.982  0.00  0.00    +0.000 A 
ATOM     24 CL   UNL     1       1.262   4.337  17.323  0.00  0.00    +0.000 Cl
ENDBRANCH  17  18
ENDBRANCH   5  17
TORSDOF 3
ENDMDL
MODEL 4
REMARK VINA RESULT:      -8.1      2.211      4.075
REMARK  Name = 
REMARK  3 active torsions:
REMARK  status: ('A' for Active; 'I' for Inactive)
REMARK    1  A    between atoms: N_5  and  C_6
REMARK    2  A    between atoms: C_6  and  C_7
REMARK    3  A    between atoms: N_14  and  C_15
REMARK                            x       y       z     vdW  Elec       q    Type
REMARK                         _______ _______ _______ _____ _____    ______ ____
ROOT
ATOM      1  N   UNL     1       6.366   3.641  13.007  0.00  0.00    +0.000 N 
ATOM      2  C   UNL     1       6.296   4.013  14.283  0.00  0.00    +0.000 A 
ATOM      3  N   UNL     1       5.515   3.301  15.133  0.00  0.00    +0.000 NA
ATOM      4  C   UNL     1       5.626   3.952  16.271  0.00  0.00    +0.000 A 
ATOM      5  N   UNL     1       4.911   3.763  17.410  0.00  0.00    +0.000 N 
ATOM      6  N   UNL     1       6.572   4.975  16.111  0.00  0.00    +0.000 N 
ATOM      7  N   UNL     1       6.938   5.046  14.807  0.00  0.00    +0.000 NA
ATOM      8  H   UNL     1       6.029   2.721  12.760  0.00  0.00    +0.000 HD
ATOM      9  H   UNL     1       7.147   3.981  12.462  0.00  0.00    +0.000 HD
ATOM     10  H   UNL     1       4.784   4.520  18.075  0.00  0.00    +0.000 HD
ENDROOT
BRANCH   6  11
ATOM     11  C   UNL     1       7.099   5.881  17.071  0.00  0.00    +0.000 A 
ATOM     12  C   UNL     1       7.190   7.253  16.804  0.00  0.00    +0.000 A 
ATOM     13  C   UNL     1       7.827   8.103  17.710  0.00  0.00    +0.000 A 
ATOM     14  C   UNL     1       8.353   7.591  18.894  0.00  0.00    +0.000 A 
ATOM     15  C   UNL     1       8.203   6.238  19.197  0.00  0.00    +0.000 A 
ATOM     16  C   UNL     1       7.563   5.384  18.297  0.00  0.00    +0.000 A 
ENDBRANCH   6  11
BRANCH   5  17
ATOM     17  C   UNL     1       3.942   2.697  17.538  0.00  0.00    +0.000 C 
BRANCH  17  18
ATOM     18  C   UNL     1       3.055   2.964  18.732  0.00  0.00    +0.000 A 
ATOM     19  C   UNL     1       1.800   3.557  18.506  0.00  0.00    +0.000 A 
ATOM     20  C   UNL     1       0.938   3.844  19.566  0.00  0.00    +0.000 A 
ATOM     21  C   UNL     1       1.312   3.532  20.870  0.00  0.00    +0.000 A 
ATOM     22  C   UNL     1       2.540   2.917  21.110  0.00  0.00    +0.000 A 
ATOM     23  C   UNL     1       3.403   2.625  20.047  0.00  0.00    +0.000 A 
ATOM     24 CL   UNL     1       4.890   1.826  20.427  0.00  0.00    +0.000 Cl
ENDBRANCH  17  18
ENDBRANCH   5  17
TORSDOF 3
ENDMDL
MODEL 5
REMARK VINA RESULT:      -8.1      1.769      3.849
REMARK  Name = 
REMARK  3 active torsions:
REMARK  status: ('A' for Active; 'I' for Inactive)
REMARK    1  A    between atoms: N_5  and  C_6
REMARK    2  A    between atoms: C_6  and  C_7
REMARK    3  A    between atoms: N_14  and  C_15
REMARK                            x       y       z     vdW  Elec       q    Type
REMARK                         _______ _______ _______ _____ _____    ______ ____
ROOT
ATOM      1  N   UNL     1       6.502   3.642  12.974  0.00  0.00    +0.000 N 
ATOM      2  C   UNL     1       6.313   4.096  14.210  0.00  0.00    +0.000 A 
ATOM      3  N   UNL     1       5.251   3.643  14.922  0.00  0.00    +0.000 NA
ATOM      4  C   UNL     1       5.325   4.317  16.049  0.00  0.00    +0.000 A 
ATOM      5  N   UNL     1       4.406   4.373  17.047  0.00  0.00    +0.000 N 
ATOM      6  N   UNL     1       6.507   5.073  16.042  0.00  0.00    +0.000 N 
ATOM      7  N   UNL     1       7.092   4.976  14.821  0.00  0.00    +0.000 NA
ATOM      8  H   UNL     1       5.996   2.816  12.687  0.00  0.00    +0.000 HD
ATOM      9  H   UNL     1       7.423   3.753  12.569  0.00  0.00    +0.000 HD
ATOM     10  H   UNL     1       4.359   5.177  17.666  0.00  0.00    +0.000 HD
ENDROOT
BRANCH   6  11
ATOM     11  C   UNL     1       7.071   5.883  17.064  0.00  0.00    +0.000 A 
ATOM     12  C   UNL     1       7.240   7.263  16.888  0.00  0.00    +0.000 A 
ATOM     13  C   UNL     1       7.913   8.015  17.853  0.00  0.00    +0.000 A 
ATOM     14  C   UNL     1       8.396   7.398  19.005  0.00  0.00    +0.000 A 
ATOM     15  C   UNL     1       8.168   6.038  19.216  0.00  0.00    +0.000 A 
ATOM     16  C   UNL     1       7.493   5.282  18.257  0.00  0.00    +0.000 A 
ENDBRANCH   6  11
BRANCH   5  17
ATOM     17  C   UNL     1       3.198   3.578  17.021  0.00  0.00    +0.000 C 
BRANCH  17  18
ATOM     18  C   UNL     1       2.529   3.632  18.375  0.00  0.00    +0.000 A 
ATOM     19  C   UNL     1       2.352   2.426  19.075  0.00  0.00    +0.000 A 
ATOM     20  C   UNL     1       1.727   2.403  20.323  0.00  0.00    +0.000 A 
ATOM     21  C   UNL     1       1.280   3.590  20.898  0.00  0.00    +0.000 A 
ATOM     22  C   UNL     1       1.475   4.799  20.232  0.00  0.00    +0.000 A 
ATOM     23  C   UNL     1       2.104   4.823  18.982  0.00  0.00    +0.000 A 
ATOM     24 CL   UNL     1       2.341   6.367  18.240  0.00  0.00    +0.000 Cl
ENDBRANCH  17  18
ENDBRANCH   5  17
TORSDOF 3
ENDMDL
MODEL 6
REMARK VINA RESULT:      -8.0      2.569      6.013
REMARK  Name = 
REMARK  3 active torsions:
REMARK  status: ('A' for Active; 'I' for Inactive)
REMARK    1  A    between atoms: N_5  and  C_6
REMARK    2  A    between atoms: C_6  and  C_7
REMARK    3  A    between atoms: N_14  and  C_15
REMARK                            x       y       z     vdW  Elec       q    Type
REMARK                         _______ _______ _______ _____ _____    ______ ____
ROOT
ATOM      1  N   UNL     1       8.217   5.500  20.368  0.00  0.00    +0.000 N 
ATOM      2  C   UNL     1       7.258   5.227  19.488  0.00  0.00    +0.000 A 
ATOM      3  N   UNL     1       7.540   5.304  18.163  0.00  0.00    +0.000 NA
ATOM      4  C   UNL     1       6.388   5.036  17.587  0.00  0.00    +0.000 A 
ATOM      5  N   UNL     1       6.071   5.148  16.271  0.00  0.00    +0.000 N 
ATOM      6  N   UNL     1       5.464   4.679  18.579  0.00  0.00    +0.000 N 
ATOM      7  N   UNL     1       6.019   4.880  19.800  0.00  0.00    +0.000 NA
ATOM      8  H   UNL     1       9.171   5.529  20.039  0.00  0.00    +0.000 HD
ATOM      9  H   UNL     1       8.092   5.169  21.316  0.00  0.00    +0.000 HD
ATOM     10  H   UNL     1       5.109   5.295  15.980  0.00  0.00    +0.000 HD
ENDROOT
BRANCH   6  11
ATOM     11  C   UNL     1       4.125   4.219  18.448  0.00  0.00    +0.000 A 
ATOM     12  C   UNL     1       3.833   2.854  18.326  0.00  0.00    +0.000 A 
ATOM     13  C   UNL     1       2.525   2.438  18.071  0.00  0.00    +0.000 A 
ATOM     14  C   UNL     1       1.503   3.379  17.961  0.00  0.00    +0.000 A 
ATOM     15  C   UNL     1       1.778   4.733  18.152  0.00  0.00    +0.000 A 
ATOM     16  C   UNL     1       3.082   5.155  18.412  0.00  0.00    +0.000 A 
ENDBRANCH   6  11
BRANCH   5  17
ATOM     17  C   UNL     1       7.052   5.518  15.275  0.00  0.00    +0.000 C 
BRANCH  17  18
ATOM     18  C   UNL     1       6.771   4.775  13.990  0.00  0.00    +0.000 A 
ATOM     19  C   UNL     1       5.648   3.929  13.945  0.00  0.00    +0.000 A 
ATOM     20  C   UNL     1       5.340   3.202  12.794  0.00  0.00    +0.000 A 
ATOM     21  C   UNL     1       6.144   3.316  11.664  0.00  0.00    +0.000 A 
ATOM     22  C   UNL     1       7.245   4.172  11.680  0.00  0.00    +0.000 A 
ATOM     23  C   UNL     1       7.551   4.906  12.833  0.00  0.00    +0.000 A 
ATOM     24 CL   UNL     1       8.910   5.973  12.757  0.00  0.00    +0.000 Cl
ENDBRANCH  17  18
ENDBRANCH   5  17
TORSDOF 3
ENDMDL
MODEL 7
REMARK VINA RESULT:      -7.9      2.186      4.075
REMARK  Name = 
REMARK  3 active torsions:
REMARK  status: ('A' for Active; 'I' for Inactive)
REMARK    1  A    between atoms: N_5  and  C_6
REMARK    2  A    between atoms: C_6  and  C_7
REMARK    3  A    between atoms: N_14  and  C_15
REMARK                            x       y       z     vdW  Elec       q    Type
REMARK                         _______ _______ _______ _____ _____    ______ ____
ROOT
ATOM      1  N   UNL     1       6.367   3.381  13.628  0.00  0.00    +0.000 N 
ATOM      2  C   UNL     1       6.199   4.095  14.738  0.00  0.00    +0.000 A 
ATOM      3  N   UNL     1       5.068   3.921  15.467  0.00  0.00    +0.000 NA
ATOM      4  C   UNL     1       5.191   4.797  16.441  0.00  0.00    +0.000 A 
ATOM      5  N   UNL     1       4.257   5.158  17.357  0.00  0.00    +0.000 N 
ATOM      6  N   UNL     1       6.456   5.396  16.346  0.00  0.00    +0.000 N 
ATOM      7  N   UNL     1       7.060   4.987  15.203  0.00  0.00    +0.000 NA
ATOM      8  H   UNL     1       5.773   2.577  13.485  0.00  0.00    +0.000 HD
ATOM      9  H   UNL     1       7.305   3.301  13.259  0.00  0.00    +0.000 HD
ATOM     10  H   UNL     1       4.290   6.072  17.801  0.00  0.00    +0.000 HD
ENDROOT
BRANCH   6  11
ATOM     11  C   UNL     1       7.085   6.328  17.216  0.00  0.00    +0.000 A 
ATOM     12  C   UNL     1       7.178   7.686  16.883  0.00  0.00    +0.000 A 
ATOM     13  C   UNL     1       7.911   8.557  17.691  0.00  0.00    +0.000 A 
ATOM     14  C   UNL     1       8.532   8.081  18.843  0.00  0.00    +0.000 A 
ATOM     15  C   UNL     1       8.384   6.745  19.216  0.00  0.00    +0.000 A 
ATOM     16  C   UNL     1       7.649   5.871  18.415  0.00  0.00    +0.000 A 
ENDBRANCH   6  11
BRANCH   5  17
ATOM     17  C   UNL     1       2.962   4.518  17.425  0.00  0.00    +0.000 C 
BRANCH  17  18
ATOM     18  C   UNL     1       2.665   4.132  18.855  0.00  0.00    +0.000 A 
ATOM     19  C   UNL     1       2.093   5.102  19.698  0.00  0.00    +0.000 A 
ATOM     20  C   UNL     1       1.807   4.816  21.034  0.00  0.00    +0.000 A 
ATOM     21  C   UNL     1       2.079   3.551  21.548  0.00  0.00    +0.000 A 
ATOM     22  C   UNL     1       2.618   2.568  20.719  0.00  0.00    +0.000 A 
ATOM     23  C   UNL     1       2.901   2.852  19.378  0.00  0.00    +0.000 A 
ATOM     24 CL   UNL     1       3.533   1.567  18.408  0.00  0.00    +0.000 Cl
ENDBRANCH  17  18
ENDBRANCH   5  17
TORSDOF 3
ENDMDL
MODEL 8
REMARK VINA RESULT:      -7.9      2.153      4.010
REMARK  Name = 
REMARK  3 active torsions:
REMARK  status: ('A' for Active; 'I' for Inactive)
REMARK    1  A    between atoms: N_5  and  C_6
REMARK    2  A    between atoms: C_6  and  C_7
REMARK    3  A    between atoms: N_14  and  C_15
REMARK                            x       y       z     vdW  Elec       q    Type
REMARK                         _______ _______ _______ _____ _____    ______ ____
ROOT
ATOM      1  N   UNL     1       6.041   3.697  12.977  0.00  0.00    +0.000 N 
ATOM      2  C   UNL     1       5.980   4.189  14.211  0.00  0.00    +0.000 A 
ATOM      3  N   UNL     1       4.908   3.891  14.987  0.00  0.00    +0.000 NA
ATOM      4  C   UNL     1       5.131   4.566  16.094  0.00  0.00    +0.000 A 
ATOM      5  N   UNL     1       4.282   4.756  17.136  0.00  0.00    +0.000 N 
ATOM      6  N   UNL     1       6.398   5.160  16.008  0.00  0.00    +0.000 N 
ATOM      7  N   UNL     1       6.898   4.969  14.762  0.00  0.00    +0.000 NA
ATOM      8  H   UNL     1       5.417   2.940  12.736  0.00  0.00    +0.000 HD
ATOM      9  H   UNL     1       6.945   3.679  12.523  0.00  0.00    +0.000 HD
ATOM     10  H   UNL     1       4.374   5.568  17.739  0.00  0.00    +0.000 HD
ENDROOT
BRANCH   6  11
ATOM     11  C   UNL     1       7.118   5.905  16.982  0.00  0.00    +0.000 A 
ATOM     12  C   UNL     1       7.556   5.313  18.174  0.00  0.00    +0.000 A 
ATOM     13  C   UNL     1       8.147   6.094  19.168  0.00  0.00    +0.000 A 
ATOM     14  C   UNL     1       8.325   7.461  18.966  0.00  0.00    +0.000 A 
ATOM     15  C   UNL     1       7.955   8.041  17.753  0.00  0.00    +0.000 A 
ATOM     16  C   UNL     1       7.367   7.265  16.754  0.00  0.00    +0.000 A 
ENDBRANCH   6  11
BRANCH   5  17
ATOM     17  C   UNL     1       2.981   4.126  17.191  0.00  0.00    +0.000 C 
BRANCH  17  18
ATOM     18  C   UNL     1       2.602   3.875  18.631  0.00  0.00    +0.000 A 
ATOM     19  C   UNL     1       1.927   4.895  19.326  0.00  0.00    +0.000 A 
ATOM     20  C   UNL     1       1.562   4.735  20.664  0.00  0.00    +0.000 A 
ATOM     21  C   UNL     1       1.855   3.546  21.327  0.00  0.00    +0.000 A 
ATOM     22  C   UNL     1       2.497   2.513  20.645  0.00  0.00    +0.000 A 
ATOM     23  C   UNL     1       2.860   2.671  19.302  0.00  0.00    +0.000 A 
ATOM     24 CL   UNL     1       3.617   1.328  18.520  0.00  0.00    +0.000 Cl
ENDBRANCH  17  18
ENDBRANCH   5  17
TORSDOF 3
ENDMDL
MODEL 9
REMARK VINA RESULT:      -7.9      1.036      1.458
REMARK  Name = 
REMARK  3 active torsions:
REMARK  status: ('A' for Active; 'I' for Inactive)
REMARK    1  A    between atoms: N_5  and  C_6
REMARK    2  A    between atoms: C_6  and  C_7
REMARK    3  A    between atoms: N_14  and  C_15
REMARK                            x       y       z     vdW  Elec       q    Type
REMARK                         _______ _______ _______ _____ _____    ______ ____
ROOT
ATOM      1  N   UNL     1       8.158   7.751  18.197  0.00  0.00    +0.000 N 
ATOM      2  C   UNL     1       7.353   7.011  17.439  0.00  0.00    +0.000 A 
ATOM      3  N   UNL     1       6.040   6.920  17.768  0.00  0.00    +0.000 NA
ATOM      4  C   UNL     1       5.555   6.089  16.871  0.00  0.00    +0.000 A 
ATOM      5  N   UNL     1       4.323   5.519  16.847  0.00  0.00    +0.000 N 
ATOM      6  N   UNL     1       6.564   5.793  15.943  0.00  0.00    +0.000 N 
ATOM      7  N   UNL     1       7.733   6.335  16.366  0.00  0.00    +0.000 NA
ATOM      8  H   UNL     1       7.736   8.401  18.846  0.00  0.00    +0.000 HD
ATOM      9  H   UNL     1       9.040   8.044  17.798  0.00  0.00    +0.000 HD
ATOM     10  H   UNL     1       4.169   4.634  16.372  0.00  0.00    +0.000 HD
ENDROOT
BRANCH   6  11
ATOM     11  C   UNL     1       6.501   5.022  14.751  0.00  0.00    +0.000 A 
ATOM     12  C   UNL     1       7.483   5.137  13.757  0.00  0.00    +0.000 A 
ATOM     13  C   UNL     1       7.332   4.467  12.542  0.00  0.00    +0.000 A 
ATOM     14  C   UNL     1       6.216   3.663  12.324  0.00  0.00    +0.000 A 
ATOM     15  C   UNL     1       5.272   3.489  13.336  0.00  0.00    +0.000 A 
ATOM     16  C   UNL     1       5.419   4.153  14.555  0.00  0.00    +0.000 A 
ENDBRANCH   6  11
BRANCH   5  17
ATOM     17  C   UNL     1       3.306   5.849  17.821  0.00  0.00    +0.000 C 
BRANCH  17  18
ATOM     18  C   UNL     1       2.621   4.584  18.283  0.00  0.00    +0.000 A 
ATOM     19  C   UNL     1       2.763   3.428  17.495  0.00  0.00    +0.000 A 
ATOM     20  C   UNL     1       2.143   2.230  17.856  0.00  0.00    +0.000 A 
ATOM     21  C   UNL     1       1.379   2.166  19.018  0.00  0.00    +0.000 A 
ATOM     22  C   UNL     1       1.251   3.294  19.827  0.00  0.00    +0.000 A 
ATOM     23  C   UNL     1       1.876   4.495  19.468  0.00  0.00    +0.000 A 
ATOM     24 CL   UNL     1       1.700   5.836  20.545  0.00  0.00    +0.000 Cl
ENDBRANCH  17  18
ENDBRANCH   5  17
TORSDOF 3
ENDMDL
