MODEL 1
REMARK VINA RESULT:      -7.3      0.000      0.000
REMARK  Name = 
REMARK  5 active torsions:
REMARK  status: ('A' for Active; 'I' for Inactive)
REMARK    1  A    between atoms: C_1  and  O_2
REMARK    2  A    between atoms: O_2  and  C_3
REMARK    3  A    between atoms: C_8  and  C_10
REMARK    4  A    between atoms: C_10  and  C_11
REMARK    5  A    between atoms: C_14  and  C_15
REMARK                            x       y       z     vdW  Elec       q    Type
REMARK                         _______ _______ _______ _____ _____    ______ ____
ROOT
ATOM      1  C   UNL     1       2.344   3.192  17.717  0.00  0.00    +0.000 C 
ATOM      2  C   UNL     1       2.065   4.686  17.836  0.00  0.00    +0.000 C 
ATOM      3  C   UNL     1       3.203   5.293  18.665  0.00  0.00    +0.000 C 
ATOM      4  C   UNL     1       3.921   6.433  17.935  0.00  0.00    +0.000 C 
ATOM      5  N   UNL     1       5.130   5.818  17.425  0.00  0.00    +0.000 N 
ATOM      6  C   UNL     1       5.625   6.086  16.165  0.00  0.00    +0.000 C 
ATOM      7  O   UNL     1       5.058   6.874  15.401  0.00  0.00    +0.000 OA
ATOM      8  C   UNL     1       5.576   4.799  18.356  0.00  0.00    +0.000 C 
ATOM      9  C   UNL     1       4.268   4.192  18.856  0.00  0.00    +0.000 C 
ATOM     10  C   UNL     1       3.827   3.000  17.999  0.00  0.00    +0.000 C 
ENDROOT
BRANCH   1  12
ATOM     11  C   UNL     1       0.860   2.956  19.623  0.00  0.00    +0.000 C 
ATOM     12  O   UNL     1       1.483   2.367  18.496  0.00  0.00    +0.000 OA
ENDBRANCH   1  12
BRANCH   6  13
ATOM     13  C   UNL     1       6.906   5.383  15.745  0.00  0.00    +0.000 C 
BRANCH  13  14
ATOM     14  C   UNL     1       6.811   4.806  14.360  0.00  0.00    +0.000 A 
ATOM     15  C   UNL     1       7.611   5.023  13.253  0.00  0.00    +0.000 A 
ATOM     16  C   UNL     1       7.213   4.240  12.130  0.00  0.00    +0.000 A 
ATOM     17  C   UNL     1       6.124   3.441  12.407  0.00  0.00    +0.000 A 
ATOM     18  C   UNL     1       5.429   2.478  11.504  0.00  0.00    +0.000 C 
ATOM     19  S   UNL     1       5.585   3.653  14.015  0.00  0.00    +0.000 S 
ENDBRANCH  13  14
ENDBRANCH   6  13
TORSDOF 3
ENDMDL
MODEL 2
REMARK VINA RESULT:      -6.9      3.095      6.566
REMARK  Name = 
REMARK  5 active torsions:
REMARK  status: ('A' for Active; 'I' for Inactive)
REMARK    1  A    between atoms: C_1  and  O_2
REMARK    2  A    between atoms: O_2  and  C_3
REMARK    3  A    between atoms: C_8  and  C_10
REMARK    4  A    between atoms: C_10  and  C_11
REMARK    5  A    between atoms: C_14  and  C_15
REMARK                            x       y       z     vdW  Elec       q    Type
REMARK                         _______ _______ _______ _____ _____    ______ ____
ROOT
ATOM      1  C   UNL     1       5.367   5.748  15.751  0.00  0.00    +0.000 C 
ATOM      2  C   UNL     1       4.870   4.318  15.933  0.00  0.00    +0.000 C 
ATOM      3  C   UNL     1       5.273   3.876  17.344  0.00  0.00    +0.000 C 
ATOM      4  C   UNL     1       4.078   3.408  18.180  0.00  0.00    +0.000 C 
ATOM      5  N   UNL     1       3.779   4.541  19.032  0.00  0.00    +0.000 N 
ATOM      6  C   UNL     1       2.489   4.947  19.303  0.00  0.00    +0.000 C 
ATOM      7  O   UNL     1       1.512   4.357  18.830  0.00  0.00    +0.000 OA
ATOM      8  C   UNL     1       5.013   5.228  19.362  0.00  0.00    +0.000 C 
ATOM      9  C   UNL     1       5.825   5.120  18.074  0.00  0.00    +0.000 C 
ATOM     10  C   UNL     1       5.585   6.316  17.146  0.00  0.00    +0.000 C 
ENDROOT
BRANCH   1  12
ATOM     11  C   UNL     1       6.865   4.736  14.131  0.00  0.00    +0.000 C 
ATOM     12  O   UNL     1       6.486   5.876  14.879  0.00  0.00    +0.000 OA
ENDBRANCH   1  12
BRANCH   6  13
ATOM     13  C   UNL     1       2.302   6.148  20.217  0.00  0.00    +0.000 C 
BRANCH  13  14
ATOM     14  C   UNL     1       2.077   7.420  19.448  0.00  0.00    +0.000 A 
ATOM     15  C   UNL     1       2.374   7.724  18.132  0.00  0.00    +0.000 A 
ATOM     16  C   UNL     1       1.955   9.037  17.767  0.00  0.00    +0.000 A 
ATOM     17  C   UNL     1       1.345   9.702  18.810  0.00  0.00    +0.000 A 
ATOM     18  C   UNL     1       0.764  11.076  18.819  0.00  0.00    +0.000 C 
ATOM     19  S   UNL     1       1.296   8.740  20.222  0.00  0.00    +0.000 S 
ENDBRANCH  13  14
ENDBRANCH   6  13
TORSDOF 3
ENDMDL
MODEL 3
REMARK VINA RESULT:      -6.6      3.541      4.942
REMARK  Name = 
REMARK  5 active torsions:
REMARK  status: ('A' for Active; 'I' for Inactive)
REMARK    1  A    between atoms: C_1  and  O_2
REMARK    2  A    between atoms: O_2  and  C_3
REMARK    3  A    between atoms: C_8  and  C_10
REMARK    4  A    between atoms: C_10  and  C_11
REMARK    5  A    between atoms: C_14  and  C_15
REMARK                            x       y       z     vdW  Elec       q    Type
REMARK                         _______ _______ _______ _____ _____    ______ ____
ROOT
ATOM      1  C   UNL     1       2.252   7.307  20.047  0.00  0.00    +0.000 C 
ATOM      2  C   UNL     1       1.889   5.948  20.636  0.00  0.00    +0.000 C 
ATOM      3  C   UNL     1       1.605   5.007  19.460  0.00  0.00    +0.000 C 
ATOM      4  C   UNL     1       2.473   3.745  19.491  0.00  0.00    +0.000 C 
ATOM      5  N   UNL     1       3.522   4.016  18.528  0.00  0.00    +0.000 N 
ATOM      6  C   UNL     1       4.840   3.678  18.750  0.00  0.00    +0.000 C 
ATOM      7  O   UNL     1       5.198   3.119  19.792  0.00  0.00    +0.000 OA
ATOM      8  C   UNL     1       2.982   4.824  17.451  0.00  0.00    +0.000 C 
ATOM      9  C   UNL     1       2.007   5.752  18.169  0.00  0.00    +0.000 C 
ATOM     10  C   UNL     1       2.679   7.058  18.607  0.00  0.00    +0.000 C 
ENDROOT
BRANCH   1  12
ATOM     11  C   UNL     1       0.585   8.376  21.450  0.00  0.00    +0.000 C 
ATOM     12  O   UNL     1       1.247   8.304  20.201  0.00  0.00    +0.000 OA
ENDBRANCH   1  12
BRANCH   6  13
ATOM     13  C   UNL     1       5.848   4.008  17.661  0.00  0.00    +0.000 C 
BRANCH  13  14
ATOM     14  C   UNL     1       6.664   5.227  17.990  0.00  0.00    +0.000 A 
ATOM     15  C   UNL     1       7.677   5.391  18.917  0.00  0.00    +0.000 A 
ATOM     16  C   UNL     1       8.237   6.702  18.889  0.00  0.00    +0.000 A 
ATOM     17  C   UNL     1       7.643   7.505  17.938  0.00  0.00    +0.000 A 
ATOM     18  C   UNL     1       7.957   8.923  17.596  0.00  0.00    +0.000 C 
ATOM     19  S   UNL     1       6.407   6.674  17.099  0.00  0.00    +0.000 S 
ENDBRANCH  13  14
ENDBRANCH   6  13
TORSDOF 3
ENDMDL
MODEL 4
REMARK VINA RESULT:      -6.5      2.538      5.779
REMARK  Name = 
REMARK  5 active torsions:
REMARK  status: ('A' for Active; 'I' for Inactive)
REMARK    1  A    between atoms: C_1  and  O_2
REMARK    2  A    between atoms: O_2  and  C_3
REMARK    3  A    between atoms: C_8  and  C_10
REMARK    4  A    between atoms: C_10  and  C_11
REMARK    5  A    between atoms: C_14  and  C_15
REMARK                            x       y       z     vdW  Elec       q    Type
REMARK                         _______ _______ _______ _____ _____    ______ ____
ROOT
ATOM      1  C   UNL     1       6.017   3.819  14.784  0.00  0.00    +0.000 C 
ATOM      2  C   UNL     1       7.268   4.506  15.320  0.00  0.00    +0.000 C 
ATOM      3  C   UNL     1       6.869   5.934  15.708  0.00  0.00    +0.000 C 
ATOM      4  C   UNL     1       7.195   6.262  17.168  0.00  0.00    +0.000 C 
ATOM      5  N   UNL     1       5.924   6.128  17.851  0.00  0.00    +0.000 N 
ATOM      6  C   UNL     1       5.806   5.537  19.092  0.00  0.00    +0.000 C 
ATOM      7  O   UNL     1       6.789   5.088  19.691  0.00  0.00    +0.000 OA
ATOM      8  C   UNL     1       4.857   6.534  16.957  0.00  0.00    +0.000 C 
ATOM      9  C   UNL     1       5.332   6.026  15.598  0.00  0.00    +0.000 C 
ATOM     10  C   UNL     1       4.826   4.607  15.311  0.00  0.00    +0.000 C 
ENDROOT
BRANCH   1  12
ATOM     11  C   UNL     1       7.079   4.180  12.631  0.00  0.00    +0.000 C 
ATOM     12  O   UNL     1       6.014   3.616  13.374  0.00  0.00    +0.000 OA
ENDBRANCH   1  12
BRANCH   6  13
ATOM     13  C   UNL     1       4.419   5.460  19.710  0.00  0.00    +0.000 C 
BRANCH  13  14
ATOM     14  C   UNL     1       3.651   4.256  19.239  0.00  0.00    +0.000 A 
ATOM     15  C   UNL     1       4.106   3.086  18.659  0.00  0.00    +0.000 A 
ATOM     16  C   UNL     1       3.054   2.160  18.398  0.00  0.00    +0.000 A 
ATOM     17  C   UNL     1       1.822   2.643  18.789  0.00  0.00    +0.000 A 
ATOM     18  C   UNL     1       0.493   1.971  18.696  0.00  0.00    +0.000 C 
ATOM     19  S   UNL     1       1.947   4.212  19.454  0.00  0.00    +0.000 S 
ENDBRANCH  13  14
ENDBRANCH   6  13
TORSDOF 3
ENDMDL
MODEL 5
REMARK VINA RESULT:      -6.4      2.344      6.211
REMARK  Name = 
REMARK  5 active torsions:
REMARK  status: ('A' for Active; 'I' for Inactive)
REMARK    1  A    between atoms: C_1  and  O_2
REMARK    2  A    between atoms: O_2  and  C_3
REMARK    3  A    between atoms: C_8  and  C_10
REMARK    4  A    between atoms: C_10  and  C_11
REMARK    5  A    between atoms: C_14  and  C_15
REMARK                            x       y       z     vdW  Elec       q    Type
REMARK                         _______ _______ _______ _____ _____    ______ ____
ROOT
ATOM      1  C   UNL     1       5.809   4.096  14.580  0.00  0.00    +0.000 C 
ATOM      2  C   UNL     1       7.016   3.833  15.474  0.00  0.00    +0.000 C 
ATOM      3  C   UNL     1       7.388   5.166  16.134  0.00  0.00    +0.000 C 
ATOM      4  C   UNL     1       7.411   5.081  17.664  0.00  0.00    +0.000 C 
ATOM      5  N   UNL     1       6.149   5.669  18.067  0.00  0.00    +0.000 N 
ATOM      6  C   UNL     1       5.376   5.145  19.082  0.00  0.00    +0.000 C 
ATOM      7  O   UNL     1       5.724   4.137  19.706  0.00  0.00    +0.000 OA
ATOM      8  C   UNL     1       5.796   6.724  17.136  0.00  0.00    +0.000 C 
ATOM      9  C   UNL     1       6.270   6.174  15.794  0.00  0.00    +0.000 C 
ATOM     10  C   UNL     1       5.168   5.383  15.079  0.00  0.00    +0.000 C 
ENDROOT
BRANCH   1  12
ATOM     11  C   UNL     1       5.249   3.307  12.354  0.00  0.00    +0.000 C 
ATOM     12  O   UNL     1       6.094   4.081  13.185  0.00  0.00    +0.000 OA
ENDBRANCH   1  12
BRANCH   6  13
ATOM     13  C   UNL     1       4.074   5.855  19.418  0.00  0.00    +0.000 C 
BRANCH  13  14
ATOM     14  C   UNL     1       2.947   4.892  19.667  0.00  0.00    +0.000 A 
ATOM     15  C   UNL     1       2.110   4.772  20.761  0.00  0.00    +0.000 A 
ATOM     16  C   UNL     1       1.127   3.754  20.587  0.00  0.00    +0.000 A 
ATOM     17  C   UNL     1       1.234   3.124  19.366  0.00  0.00    +0.000 A 
ATOM     18  C   UNL     1       0.389   2.026  18.812  0.00  0.00    +0.000 C 
ATOM     19  S   UNL     1       2.527   3.759  18.446  0.00  0.00    +0.000 S 
ENDBRANCH  13  14
ENDBRANCH   6  13
TORSDOF 3
ENDMDL
MODEL 6
REMARK VINA RESULT:      -6.4      2.726      6.596
REMARK  Name = 
REMARK  5 active torsions:
REMARK  status: ('A' for Active; 'I' for Inactive)
REMARK    1  A    between atoms: C_1  and  O_2
REMARK    2  A    between atoms: O_2  and  C_3
REMARK    3  A    between atoms: C_8  and  C_10
REMARK    4  A    between atoms: C_10  and  C_11
REMARK    5  A    between atoms: C_14  and  C_15
REMARK                            x       y       z     vdW  Elec       q    Type
REMARK                         _______ _______ _______ _____ _____    ______ ____
ROOT
ATOM      1  C   UNL     1       5.513   5.694  16.133  0.00  0.00    +0.000 C 
ATOM      2  C   UNL     1       4.796   4.372  15.881  0.00  0.00    +0.000 C 
ATOM      3  C   UNL     1       5.042   3.485  17.107  0.00  0.00    +0.000 C 
ATOM      4  C   UNL     1       3.741   2.996  17.752  0.00  0.00    +0.000 C 
ATOM      5  N   UNL     1       3.564   3.870  18.894  0.00  0.00    +0.000 N 
ATOM      6  C   UNL     1       2.336   4.384  19.254  0.00  0.00    +0.000 C 
ATOM      7  O   UNL     1       1.312   4.120  18.615  0.00  0.00    +0.000 OA
ATOM      8  C   UNL     1       4.866   4.226  19.428  0.00  0.00    +0.000 C 
ATOM      9  C   UNL     1       5.728   4.361  18.177  0.00  0.00    +0.000 C 
ATOM     10  C   UNL     1       5.728   5.796  17.636  0.00  0.00    +0.000 C 
ENDROOT
BRANCH   1  12
ATOM     11  C   UNL     1       6.958   4.938  14.336  0.00  0.00    +0.000 C 
ATOM     12  O   UNL     1       6.689   5.885  15.353  0.00  0.00    +0.000 OA
ENDBRANCH   1  12
BRANCH   6  13
ATOM     13  C   UNL     1       2.276   5.286  20.476  0.00  0.00    +0.000 C 
BRANCH  13  14
ATOM     14  C   UNL     1       1.939   6.707  20.120  0.00  0.00    +0.000 A 
ATOM     15  C   UNL     1       1.285   7.674  20.861  0.00  0.00    +0.000 A 
ATOM     16  C   UNL     1       1.204   8.924  20.179  0.00  0.00    +0.000 A 
ATOM     17  C   UNL     1       1.801   8.882  18.936  0.00  0.00    +0.000 A 
ATOM     18  C   UNL     1       1.933   9.980  17.935  0.00  0.00    +0.000 C 
ATOM     19  S   UNL     1       2.441   7.333  18.601  0.00  0.00    +0.000 S 
ENDBRANCH  13  14
ENDBRANCH   6  13
TORSDOF 3
ENDMDL
MODEL 7
REMARK VINA RESULT:      -6.4      3.116      4.388
REMARK  Name = 
REMARK  5 active torsions:
REMARK  status: ('A' for Active; 'I' for Inactive)
REMARK    1  A    between atoms: C_1  and  O_2
REMARK    2  A    between atoms: O_2  and  C_3
REMARK    3  A    between atoms: C_8  and  C_10
REMARK    4  A    between atoms: C_10  and  C_11
REMARK    5  A    between atoms: C_14  and  C_15
REMARK                            x       y       z     vdW  Elec       q    Type
REMARK                         _______ _______ _______ _____ _____    ______ ____
ROOT
ATOM      1  C   UNL     1       3.341   2.976  20.669  0.00  0.00    +0.000 C 
ATOM      2  C   UNL     1       2.974   2.136  19.450  0.00  0.00    +0.000 C 
ATOM      3  C   UNL     1       2.050   2.991  18.575  0.00  0.00    +0.000 C 
ATOM      4  C   UNL     1       2.575   3.150  17.144  0.00  0.00    +0.000 C 
ATOM      5  N   UNL     1       3.175   4.468  17.134  0.00  0.00    +0.000 N 
ATOM      6  C   UNL     1       4.369   4.737  16.498  0.00  0.00    +0.000 C 
ATOM      7  O   UNL     1       4.994   3.857  15.896  0.00  0.00    +0.000 OA
ATOM      8  C   UNL     1       2.426   5.340  18.021  0.00  0.00    +0.000 C 
ATOM      9  C   UNL     1       2.041   4.414  19.171  0.00  0.00    +0.000 C 
ATOM     10  C   UNL     1       3.088   4.428  20.291  0.00  0.00    +0.000 C 
ENDROOT
BRANCH   1  12
ATOM     11  C   UNL     1       1.300   2.595  21.927  0.00  0.00    +0.000 C 
ATOM     12  O   UNL     1       2.715   2.563  21.880  0.00  0.00    +0.000 OA
ENDBRANCH   1  12
BRANCH   6  13
ATOM     13  C   UNL     1       4.896   6.162  16.554  0.00  0.00    +0.000 C 
BRANCH  13  14
ATOM     14  C   UNL     1       6.114   6.287  17.425  0.00  0.00    +0.000 A 
ATOM     15  C   UNL     1       7.127   7.227  17.402  0.00  0.00    +0.000 A 
ATOM     16  C   UNL     1       8.086   7.022  18.437  0.00  0.00    +0.000 A 
ATOM     17  C   UNL     1       7.781   5.935  19.228  0.00  0.00    +0.000 A 
ATOM     18  C   UNL     1       8.525   5.411  20.410  0.00  0.00    +0.000 C 
ATOM     19  S   UNL     1       6.347   5.165  18.706  0.00  0.00    +0.000 S 
ENDBRANCH  13  14
ENDBRANCH   6  13
TORSDOF 3
ENDMDL
MODEL 8
REMARK VINA RESULT:      -6.3      3.010      6.638
REMARK  Name = 
REMARK  5 active torsions:
REMARK  status: ('A' for Active; 'I' for Inactive)
REMARK    1  A    between atoms: C_1  and  O_2
REMARK    2  A    between atoms: O_2  and  C_3
REMARK    3  A    between atoms: C_8  and  C_10
REMARK    4  A    between atoms: C_10  and  C_11
REMARK    5  A    between atoms: C_14  and  C_15
REMARK                            x       y       z     vdW  Elec       q    Type
REMARK                         _______ _______ _______ _____ _____    ______ ____
ROOT
ATOM      1  C   UNL     1       6.357   6.730  16.804  0.00  0.00    +0.000 C 
ATOM      2  C   UNL     1       6.221   5.557  15.839  0.00  0.00    +0.000 C 
ATOM      3  C   UNL     1       6.340   4.274  16.669  0.00  0.00    +0.000 C 
ATOM      4  C   UNL     1       5.132   3.346  16.498  0.00  0.00    +0.000 C 
ATOM      5  N   UNL     1       4.333   3.587  17.683  0.00  0.00    +0.000 N 
ATOM      6  C   UNL     1       2.958   3.682  17.646  0.00  0.00    +0.000 C 
ATOM      7  O   UNL     1       2.329   3.565  16.589  0.00  0.00    +0.000 OA
ATOM      8  C   UNL     1       5.213   3.876  18.800  0.00  0.00    +0.000 C 
ATOM      9  C   UNL     1       6.334   4.687  18.156  0.00  0.00    +0.000 C 
ATOM     10  C   UNL     1       6.044   6.192  18.193  0.00  0.00    +0.000 C 
ENDROOT
BRANCH   1  12
ATOM     11  C   UNL     1       7.897   8.360  17.732  0.00  0.00    +0.000 C 
ATOM     12  O   UNL     1       7.592   7.432  16.707  0.00  0.00    +0.000 OA
ENDBRANCH   1  12
BRANCH   6  13
ATOM     13  C   UNL     1       2.230   3.931  18.958  0.00  0.00    +0.000 C 
BRANCH  13  14
ATOM     14  C   UNL     1       2.145   5.393  19.295  0.00  0.00    +0.000 A 
ATOM     15  C   UNL     1       2.446   6.499  18.521  0.00  0.00    +0.000 A 
ATOM     16  C   UNL     1       2.182   7.727  19.197  0.00  0.00    +0.000 A 
ATOM     17  C   UNL     1       1.682   7.529  20.467  0.00  0.00    +0.000 A 
ATOM     18  C   UNL     1       1.273   8.554  21.471  0.00  0.00    +0.000 C 
ATOM     19  S   UNL     1       1.548   5.865  20.835  0.00  0.00    +0.000 S 
ENDBRANCH  13  14
ENDBRANCH   6  13
TORSDOF 3
ENDMDL
MODEL 9
REMARK VINA RESULT:      -6.3      2.517      5.795
REMARK  Name = 
REMARK  5 active torsions:
REMARK  status: ('A' for Active; 'I' for Inactive)
REMARK    1  A    between atoms: C_1  and  O_2
REMARK    2  A    between atoms: O_2  and  C_3
REMARK    3  A    between atoms: C_8  and  C_10
REMARK    4  A    between atoms: C_10  and  C_11
REMARK    5  A    between atoms: C_14  and  C_15
REMARK                            x       y       z     vdW  Elec       q    Type
REMARK                         _______ _______ _______ _____ _____    ______ ____
ROOT
ATOM      1  C   UNL     1       5.878   4.071  14.838  0.00  0.00    +0.000 C 
ATOM      2  C   UNL     1       7.152   4.083  15.677  0.00  0.00    +0.000 C 
ATOM      3  C   UNL     1       7.319   5.507  16.221  0.00  0.00    +0.000 C 
ATOM      4  C   UNL     1       7.425   5.545  17.750  0.00  0.00    +0.000 C 
ATOM      5  N   UNL     1       6.101   5.943  18.184  0.00  0.00    +0.000 N 
ATOM      6  C   UNL     1       5.475   5.376  19.274  0.00  0.00    +0.000 C 
ATOM      7  O   UNL     1       6.018   4.493  19.945  0.00  0.00    +0.000 OA
ATOM      8  C   UNL     1       5.531   6.849  17.204  0.00  0.00    +0.000 C 
ATOM      9  C   UNL     1       6.031   6.284  15.878  0.00  0.00    +0.000 C 
ATOM     10  C   UNL     1       5.049   5.267  15.283  0.00  0.00    +0.000 C 
ENDROOT
BRANCH   1  12
ATOM     11  C   UNL     1       5.046   3.491  12.632  0.00  0.00    +0.000 C 
ATOM     12  O   UNL     1       6.099   3.996  13.433  0.00  0.00    +0.000 OA
ENDBRANCH   1  12
BRANCH   6  13
ATOM     13  C   UNL     1       4.087   5.882  19.635  0.00  0.00    +0.000 C 
BRANCH  13  14
ATOM     14  C   UNL     1       2.998   5.021  19.058  0.00  0.00    +0.000 A 
ATOM     15  C   UNL     1       2.310   5.145  17.865  0.00  0.00    +0.000 A 
ATOM     16  C   UNL     1       1.377   4.086  17.661  0.00  0.00    +0.000 A 
ATOM     17  C   UNL     1       1.379   3.178  18.698  0.00  0.00    +0.000 A 
ATOM     18  C   UNL     1       0.562   1.938  18.845  0.00  0.00    +0.000 C 
ATOM     19  S   UNL     1       2.496   3.619  19.914  0.00  0.00    +0.000 S 
ENDBRANCH  13  14
ENDBRANCH   6  13
TORSDOF 3
ENDMDL
