MODEL 1
REMARK VINA RESULT:      -7.6      0.000      0.000
REMARK  Name = 
REMARK  7 active torsions:
REMARK  status: ('A' for Active; 'I' for Inactive)
REMARK    1  A    between atoms: C_2  and  C_11
REMARK    2  A    between atoms: N_3  and  C_4
REMARK    3  A    between atoms: C_11  and  C_12
REMARK    4  A    between atoms: C_11  and  N_20
REMARK    5  A    between atoms: C_12  and  C_13
REMARK    6  A    between atoms: C_13  and  C_14
REMARK    7  A    between atoms: N_23  and  C_24
REMARK                            x       y       z     vdW  Elec       q    Type
REMARK                         _______ _______ _______ _____ _____    ______ ____
ROOT
ATOM      1  C   UNL     1       1.679   6.677  19.857  0.00  0.00    +0.000 C 
ENDROOT
BRANCH   1   2
ATOM      2  N   UNL     1       2.158   8.031  20.282  0.00  0.00    +0.000 NA
ATOM      3  C   UNL     1       2.075   8.993  19.130  0.00  0.00    +0.000 C 
ATOM      4  C   UNL     1       0.638   9.350  18.664  0.00  0.00    +0.000 C 
ATOM      5  N   UNL     1      -0.137   9.863  19.804  0.00  0.00    +0.000 N 
ATOM      6  C   UNL     1      -0.113   9.018  21.009  0.00  0.00    +0.000 C 
ATOM      7  C   UNL     1       1.359   8.668  21.364  0.00  0.00    +0.000 C 
BRANCH   5   8
ATOM      8  C   UNL     1      -1.177  10.758  19.603  0.00  0.00    +0.000 A 
ATOM      9  C   UNL     1      -1.512  11.748  20.530  0.00  0.00    +0.000 A 
ATOM     10  C   UNL     1      -2.629  12.547  20.313  0.00  0.00    +0.000 A 
ATOM     11  N   UNL     1      -3.437  12.434  19.243  0.00  0.00    +0.000 NA
ATOM     12  C   UNL     1      -3.106  11.482  18.351  0.00  0.00    +0.000 A 
ATOM     13  C   UNL     1      -2.005  10.647  18.482  0.00  0.00    +0.000 A 
ENDBRANCH   5   8
ENDBRANCH   1   2
BRANCH   1  15
ATOM     14  O   UNL     1       1.931   6.017  17.539  0.00  0.00    +0.000 OA
ATOM     15  C   UNL     1       2.504   6.215  18.610  0.00  0.00    +0.000 C 
ATOM     16  N   UNL     1       3.860   6.026  18.856  0.00  0.00    +0.000 N 
ATOM     17  H   UNL     1       4.154   6.185  19.814  0.00  0.00    +0.000 HD
BRANCH  16  18
ATOM     18  C   UNL     1       4.845   5.632  17.920  0.00  0.00    +0.000 A 
ATOM     19  C   UNL     1       5.956   4.852  18.259  0.00  0.00    +0.000 A 
ATOM     20  C   UNL     1       6.926   4.530  17.304  0.00  0.00    +0.000 A 
ATOM     21  C   UNL     1       6.787   4.989  16.003  0.00  0.00    +0.000 A 
ATOM     22  F   UNL     1       7.732   4.706  15.096  0.00  0.00    +0.000 F 
ATOM     23  C   UNL     1       5.678   5.739  15.633  0.00  0.00    +0.000 A 
ATOM     24  C   UNL     1       4.698   6.046  16.587  0.00  0.00    +0.000 A 
ENDBRANCH  16  18
ENDBRANCH   1  15
BRANCH   1  25
ATOM     25  C   UNL     1       1.786   5.513  20.869  0.00  0.00    +0.000 C 
BRANCH  25  26
ATOM     26  C   UNL     1       1.027   4.229  20.528  0.00  0.00    +0.000 C 
BRANCH  26  27
ATOM     27  C   UNL     1       1.918   3.271  19.784  0.00  0.00    +0.000 A 
ATOM     28  C   UNL     1       3.150   2.893  20.337  0.00  0.00    +0.000 A 
ATOM     29  C   UNL     1       4.011   2.056  19.633  0.00  0.00    +0.000 A 
ATOM     30  C   UNL     1       3.647   1.595  18.370  0.00  0.00    +0.000 A 
ATOM     31  C   UNL     1       2.420   1.956  17.817  0.00  0.00    +0.000 A 
ATOM     32  C   UNL     1       1.552   2.790  18.522  0.00  0.00    +0.000 A 
ENDBRANCH  26  27
ENDBRANCH  25  26
ENDBRANCH   1  25
TORSDOF 7
ENDMDL
MODEL 2
REMARK VINA RESULT:      -7.5      0.187      1.231
REMARK  Name = 
REMARK  7 active torsions:
REMARK  status: ('A' for Active; 'I' for Inactive)
REMARK    1  A    between atoms: C_2  and  C_11
REMARK    2  A    between atoms: N_3  and  C_4
REMARK    3  A    between atoms: C_11  and  C_12
REMARK    4  A    between atoms: C_11  and  N_20
REMARK    5  A    between atoms: C_12  and  C_13
REMARK    6  A    between atoms: C_13  and  C_14
REMARK    7  A    between atoms: N_23  and  C_24
REMARK                            x       y       z     vdW  Elec       q    Type
REMARK                         _______ _______ _______ _____ _____    ______ ____
ROOT
ATOM      1  C   UNL     1       1.630   6.747  19.820  0.00  0.00    +0.000 C 
ENDROOT
BRANCH   1   2
ATOM      2  N   UNL     1       2.112   8.104  20.228  0.00  0.00    +0.000 NA
ATOM      3  C   UNL     1       2.002   9.060  19.074  0.00  0.00    +0.000 C 
ATOM      4  C   UNL     1       0.555   9.410  18.636  0.00  0.00    +0.000 C 
ATOM      5  N   UNL     1      -0.198   9.926  19.788  0.00  0.00    +0.000 N 
ATOM      6  C   UNL     1      -0.147   9.087  20.997  0.00  0.00    +0.000 C 
ATOM      7  C   UNL     1       1.333   8.745  21.323  0.00  0.00    +0.000 C 
BRANCH   5   8
ATOM      8  C   UNL     1      -1.245  10.817  19.604  0.00  0.00    +0.000 A 
ATOM      9  C   UNL     1      -1.576  11.799  20.542  0.00  0.00    +0.000 A 
ATOM     10  C   UNL     1      -2.699  12.593  20.342  0.00  0.00    +0.000 A 
ATOM     11  N   UNL     1      -3.519  12.483  19.279  0.00  0.00    +0.000 NA
ATOM     12  C   UNL     1      -3.192  11.539  18.378  0.00  0.00    +0.000 A 
ATOM     13  C   UNL     1      -2.085  10.708  18.491  0.00  0.00    +0.000 A 
ENDBRANCH   5   8
ENDBRANCH   1   2
BRANCH   1  15
ATOM     14  O   UNL     1       1.804   5.993  17.523  0.00  0.00    +0.000 OA
ATOM     15  C   UNL     1       2.418   6.289  18.548  0.00  0.00    +0.000 C 
ATOM     16  N   UNL     1       3.796   6.219  18.721  0.00  0.00    +0.000 N 
ATOM     17  H   UNL     1       4.130   6.447  19.652  0.00  0.00    +0.000 HD
BRANCH  16  18
ATOM     18  C   UNL     1       4.756   5.856  17.746  0.00  0.00    +0.000 A 
ATOM     19  C   UNL     1       4.835   6.461  16.487  0.00  0.00    +0.000 A 
ATOM     20  C   UNL     1       5.774   6.032  15.542  0.00  0.00    +0.000 A 
ATOM     21  C   UNL     1       6.639   4.994  15.857  0.00  0.00    +0.000 A 
ATOM     22  F   UNL     1       7.517   4.564  14.941  0.00  0.00    +0.000 F 
ATOM     23  C   UNL     1       6.602   4.399  17.111  0.00  0.00    +0.000 A 
ATOM     24  C   UNL     1       5.672   4.841  18.062  0.00  0.00    +0.000 A 
ENDBRANCH  16  18
ENDBRANCH   1  15
BRANCH   1  25
ATOM     25  C   UNL     1       1.775   5.585  20.829  0.00  0.00    +0.000 C 
BRANCH  25  26
ATOM     26  C   UNL     1       1.064   4.275  20.483  0.00  0.00    +0.000 C 
BRANCH  26  27
ATOM     27  C   UNL     1       1.996   3.344  19.755  0.00  0.00    +0.000 A 
ATOM     28  C   UNL     1       1.610   2.795  18.523  0.00  0.00    +0.000 A 
ATOM     29  C   UNL     1       2.436   1.886  17.868  0.00  0.00    +0.000 A 
ATOM     30  C   UNL     1       3.650   1.517  18.442  0.00  0.00    +0.000 A 
ATOM     31  C   UNL     1       4.047   2.066  19.660  0.00  0.00    +0.000 A 
ATOM     32  C   UNL     1       3.225   2.981  20.317  0.00  0.00    +0.000 A 
ENDBRANCH  26  27
ENDBRANCH  25  26
ENDBRANCH   1  25
TORSDOF 7
ENDMDL
MODEL 3
REMARK VINA RESULT:      -7.5      3.145      7.951
REMARK  Name = 
REMARK  7 active torsions:
REMARK  status: ('A' for Active; 'I' for Inactive)
REMARK    1  A    between atoms: C_2  and  C_11
REMARK    2  A    between atoms: N_3  and  C_4
REMARK    3  A    between atoms: C_11  and  C_12
REMARK    4  A    between atoms: C_11  and  N_20
REMARK    5  A    between atoms: C_12  and  C_13
REMARK    6  A    between atoms: C_13  and  C_14
REMARK    7  A    between atoms: N_23  and  C_24
REMARK                            x       y       z     vdW  Elec       q    Type
REMARK                         _______ _______ _______ _____ _____    ______ ____
ROOT
ATOM      1  C   UNL     1       4.262   5.148  18.631  0.00  0.00    +0.000 C 
ENDROOT
BRANCH   1   2
ATOM      2  N   UNL     1       5.465   5.978  18.310  0.00  0.00    +0.000 NA
ATOM      3  C   UNL     1       6.640   5.090  18.009  0.00  0.00    +0.000 C 
ATOM      4  C   UNL     1       6.529   4.261  16.702  0.00  0.00    +0.000 C 
ATOM      5  N   UNL     1       6.276   5.160  15.566  0.00  0.00    +0.000 N 
ATOM      6  C   UNL     1       5.160   6.103  15.750  0.00  0.00    +0.000 C 
ATOM      7  C   UNL     1       5.329   6.843  17.106  0.00  0.00    +0.000 C 
BRANCH   5   8
ATOM      8  C   UNL     1       6.694   4.817  14.289  0.00  0.00    +0.000 A 
ATOM      9  C   UNL     1       7.717   5.495  13.621  0.00  0.00    +0.000 A 
ATOM     10  C   UNL     1       8.018   5.164  12.305  0.00  0.00    +0.000 A 
ATOM     11  N   UNL     1       7.376   4.212  11.603  0.00  0.00    +0.000 NA
ATOM     12  C   UNL     1       6.395   3.560  12.254  0.00  0.00    +0.000 A 
ATOM     13  C   UNL     1       6.034   3.816  13.569  0.00  0.00    +0.000 A 
ENDBRANCH   5   8
ENDBRANCH   1   2
BRANCH   1  15
ATOM     14  O   UNL     1       2.153   5.970  17.764  0.00  0.00    +0.000 OA
ATOM     15  C   UNL     1       2.999   6.073  18.653  0.00  0.00    +0.000 C 
ATOM     16  N   UNL     1       2.974   6.988  19.699  0.00  0.00    +0.000 N 
ATOM     17  H   UNL     1       3.784   6.970  20.311  0.00  0.00    +0.000 HD
BRANCH  16  18
ATOM     18  C   UNL     1       1.956   7.930  19.979  0.00  0.00    +0.000 A 
ATOM     19  C   UNL     1       1.181   7.896  21.143  0.00  0.00    +0.000 A 
ATOM     20  C   UNL     1       0.154   8.824  21.349  0.00  0.00    +0.000 A 
ATOM     21  C   UNL     1      -0.100   9.791  20.388  0.00  0.00    +0.000 A 
ATOM     22  F   UNL     1      -1.103  10.660  20.572  0.00  0.00    +0.000 F 
ATOM     23  C   UNL     1       0.676   9.866  19.239  0.00  0.00    +0.000 A 
ATOM     24  C   UNL     1       1.715   8.946  19.041  0.00  0.00    +0.000 A 
ENDBRANCH  16  18
ENDBRANCH   1  15
BRANCH   1  25
ATOM     25  C   UNL     1       3.899   3.986  17.679  0.00  0.00    +0.000 C 
BRANCH  25  26
ATOM     26  C   UNL     1       3.765   2.596  18.306  0.00  0.00    +0.000 C 
BRANCH  26  27
ATOM     27  C   UNL     1       2.843   2.639  19.495  0.00  0.00    +0.000 A 
ATOM     28  C   UNL     1       1.467   2.833  19.304  0.00  0.00    +0.000 A 
ATOM     29  C   UNL     1       0.612   2.937  20.397  0.00  0.00    +0.000 A 
ATOM     30  C   UNL     1       1.127   2.851  21.688  0.00  0.00    +0.000 A 
ATOM     31  C   UNL     1       2.491   2.647  21.888  0.00  0.00    +0.000 A 
ATOM     32  C   UNL     1       3.351   2.538  20.795  0.00  0.00    +0.000 A 
ENDBRANCH  26  27
ENDBRANCH  25  26
ENDBRANCH   1  25
TORSDOF 7
ENDMDL
MODEL 4
REMARK VINA RESULT:      -7.4      0.562      1.391
REMARK  Name = 
REMARK  7 active torsions:
REMARK  status: ('A' for Active; 'I' for Inactive)
REMARK    1  A    between atoms: C_2  and  C_11
REMARK    2  A    between atoms: N_3  and  C_4
REMARK    3  A    between atoms: C_11  and  C_12
REMARK    4  A    between atoms: C_11  and  N_20
REMARK    5  A    between atoms: C_12  and  C_13
REMARK    6  A    between atoms: C_13  and  C_14
REMARK    7  A    between atoms: N_23  and  C_24
REMARK                            x       y       z     vdW  Elec       q    Type
REMARK                         _______ _______ _______ _____ _____    ______ ____
ROOT
ATOM      1  C   UNL     1       1.654   6.748  19.830  0.00  0.00    +0.000 C 
ENDROOT
BRANCH   1   2
ATOM      2  N   UNL     1       2.156   8.090  20.265  0.00  0.00    +0.000 NA
ATOM      3  C   UNL     1       1.983   9.091  19.158  0.00  0.00    +0.000 C 
ATOM      4  C   UNL     1       0.514   9.453  18.812  0.00  0.00    +0.000 C 
ATOM      5  N   UNL     1      -0.177   9.920  20.023  0.00  0.00    +0.000 N 
ATOM      6  C   UNL     1      -0.060   9.034  21.193  0.00  0.00    +0.000 C 
ATOM      7  C   UNL     1       1.436   8.683  21.425  0.00  0.00    +0.000 C 
BRANCH   5   8
ATOM      8  C   UNL     1      -1.234  10.813  19.932  0.00  0.00    +0.000 A 
ATOM      9  C   UNL     1      -2.067  10.886  18.812  0.00  0.00    +0.000 A 
ATOM     10  C   UNL     1      -3.044  11.872  18.743  0.00  0.00    +0.000 A 
ATOM     11  N   UNL     1      -3.255  12.791  19.704  0.00  0.00    +0.000 NA
ATOM     12  C   UNL     1      -2.453  12.713  20.781  0.00  0.00    +0.000 A 
ATOM     13  C   UNL     1      -1.458  11.757  20.939  0.00  0.00    +0.000 A 
ENDBRANCH   5   8
ENDBRANCH   1   2
BRANCH   1  15
ATOM     14  O   UNL     1       1.811   6.168  17.482  0.00  0.00    +0.000 OA
ATOM     15  C   UNL     1       2.425   6.312  18.539  0.00  0.00    +0.000 C 
ATOM     16  N   UNL     1       3.783   6.082  18.731  0.00  0.00    +0.000 N 
ATOM     17  H   UNL     1       4.113   6.198  19.684  0.00  0.00    +0.000 HD
BRANCH  16  18
ATOM     18  C   UNL     1       4.725   5.699  17.748  0.00  0.00    +0.000 A 
ATOM     19  C   UNL     1       4.541   4.605  16.895  0.00  0.00    +0.000 A 
ATOM     20  C   UNL     1       5.528   4.241  15.972  0.00  0.00    +0.000 A 
ATOM     21  C   UNL     1       6.704   4.971  15.900  0.00  0.00    +0.000 A 
ATOM     22  F   UNL     1       7.661   4.603  15.037  0.00  0.00    +0.000 F 
ATOM     23  C   UNL     1       6.898   6.080  16.714  0.00  0.00    +0.000 A 
ATOM     24  C   UNL     1       5.902   6.454  17.626  0.00  0.00    +0.000 A 
ENDBRANCH  16  18
ENDBRANCH   1  15
BRANCH   1  25
ATOM     25  C   UNL     1       1.796   5.561  20.809  0.00  0.00    +0.000 C 
BRANCH  25  26
ATOM     26  C   UNL     1       1.059   4.271  20.444  0.00  0.00    +0.000 C 
BRANCH  26  27
ATOM     27  C   UNL     1       1.980   3.322  19.724  0.00  0.00    +0.000 A 
ATOM     28  C   UNL     1       1.570   2.735  18.517  0.00  0.00    +0.000 A 
ATOM     29  C   UNL     1       2.386   1.809  17.873  0.00  0.00    +0.000 A 
ATOM     30  C   UNL     1       3.613   1.462  18.431  0.00  0.00    +0.000 A 
ATOM     31  C   UNL     1       4.033   2.049  19.623  0.00  0.00    +0.000 A 
ATOM     32  C   UNL     1       3.222   2.980  20.270  0.00  0.00    +0.000 A 
ENDBRANCH  26  27
ENDBRANCH  25  26
ENDBRANCH   1  25
TORSDOF 7
ENDMDL
MODEL 5
REMARK VINA RESULT:      -7.4      1.073      1.388
REMARK  Name = 
REMARK  7 active torsions:
REMARK  status: ('A' for Active; 'I' for Inactive)
REMARK    1  A    between atoms: C_2  and  C_11
REMARK    2  A    between atoms: N_3  and  C_4
REMARK    3  A    between atoms: C_11  and  C_12
REMARK    4  A    between atoms: C_11  and  N_20
REMARK    5  A    between atoms: C_12  and  C_13
REMARK    6  A    between atoms: C_13  and  C_14
REMARK    7  A    between atoms: N_23  and  C_24
REMARK                            x       y       z     vdW  Elec       q    Type
REMARK                         _______ _______ _______ _____ _____    ______ ____
ROOT
ATOM      1  C   UNL     1       2.059   6.724  19.678  0.00  0.00    +0.000 C 
ENDROOT
BRANCH   1   2
ATOM      2  N   UNL     1       2.284   8.142  20.101  0.00  0.00    +0.000 NA
ATOM      3  C   UNL     1       2.226   9.053  18.907  0.00  0.00    +0.000 C 
ATOM      4  C   UNL     1       0.831   9.190  18.243  0.00  0.00    +0.000 C 
ATOM      5  N   UNL     1      -0.155   9.616  19.247  0.00  0.00    +0.000 N 
ATOM      6  C   UNL     1      -0.179   8.814  20.482  0.00  0.00    +0.000 C 
ATOM      7  C   UNL     1       1.266   8.687  21.040  0.00  0.00    +0.000 C 
BRANCH   5   8
ATOM      8  C   UNL     1      -1.272  10.348  18.873  0.00  0.00    +0.000 A 
ATOM      9  C   UNL     1      -1.689  11.493  19.557  0.00  0.00    +0.000 A 
ATOM     10  C   UNL     1      -2.874  12.121  19.191  0.00  0.00    +0.000 A 
ATOM     11  N   UNL     1      -3.674  11.696  18.196  0.00  0.00    +0.000 NA
ATOM     12  C   UNL     1      -3.264  10.596  17.538  0.00  0.00    +0.000 A 
ATOM     13  C   UNL     1      -2.092   9.911  17.829  0.00  0.00    +0.000 A 
ENDBRANCH   5   8
ENDBRANCH   1   2
BRANCH   1  15
ATOM     14  O   UNL     1       4.350   5.934  19.719  0.00  0.00    +0.000 OA
ATOM     15  C   UNL     1       3.368   6.177  19.017  0.00  0.00    +0.000 C 
ATOM     16  N   UNL     1       3.304   6.051  17.634  0.00  0.00    +0.000 N 
ATOM     17  H   UNL     1       2.431   6.349  17.211  0.00  0.00    +0.000 HD
BRANCH  16  18
ATOM     18  C   UNL     1       4.322   5.569  16.778  0.00  0.00    +0.000 A 
ATOM     19  C   UNL     1       4.607   4.209  16.617  0.00  0.00    +0.000 A 
ATOM     20  C   UNL     1       5.656   3.787  15.793  0.00  0.00    +0.000 A 
ATOM     21  C   UNL     1       6.424   4.729  15.125  0.00  0.00    +0.000 A 
ATOM     22  F   UNL     1       7.448   4.326  14.360  0.00  0.00    +0.000 F 
ATOM     23  C   UNL     1       6.141   6.083  15.241  0.00  0.00    +0.000 A 
ATOM     24  C   UNL     1       5.080   6.503  16.054  0.00  0.00    +0.000 A 
ENDBRANCH  16  18
ENDBRANCH   1  15
BRANCH   1  25
ATOM     25  C   UNL     1       1.688   5.687  20.763  0.00  0.00    +0.000 C 
BRANCH  25  26
ATOM     26  C   UNL     1       0.898   4.459  20.305  0.00  0.00    +0.000 C 
BRANCH  26  27
ATOM     27  C   UNL     1       1.814   3.448  19.671  0.00  0.00    +0.000 A 
ATOM     28  C   UNL     1       1.522   2.946  18.395  0.00  0.00    +0.000 A 
ATOM     29  C   UNL     1       2.327   1.966  17.822  0.00  0.00    +0.000 A 
ATOM     30  C   UNL     1       3.427   1.478  18.523  0.00  0.00    +0.000 A 
ATOM     31  C   UNL     1       3.731   1.978  19.788  0.00  0.00    +0.000 A 
ATOM     32  C   UNL     1       2.931   2.964  20.363  0.00  0.00    +0.000 A 
ENDBRANCH  26  27
ENDBRANCH  25  26
ENDBRANCH   1  25
TORSDOF 7
ENDMDL
MODEL 6
REMARK VINA RESULT:      -7.4      1.129      1.573
REMARK  Name = 
REMARK  7 active torsions:
REMARK  status: ('A' for Active; 'I' for Inactive)
REMARK    1  A    between atoms: C_2  and  C_11
REMARK    2  A    between atoms: N_3  and  C_4
REMARK    3  A    between atoms: C_11  and  C_12
REMARK    4  A    between atoms: C_11  and  N_20
REMARK    5  A    between atoms: C_12  and  C_13
REMARK    6  A    between atoms: C_13  and  C_14
REMARK    7  A    between atoms: N_23  and  C_24
REMARK                            x       y       z     vdW  Elec       q    Type
REMARK                         _______ _______ _______ _____ _____    ______ ____
ROOT
ATOM      1  C   UNL     1       1.774   7.856  19.261  0.00  0.00    +0.000 C 
ENDROOT
BRANCH   1   2
ATOM      2  N   UNL     1       1.901   9.309  19.598  0.00  0.00    +0.000 NA
ATOM      3  C   UNL     1       1.522  10.150  18.412  0.00  0.00    +0.000 C 
ATOM      4  C   UNL     1       0.024  10.098  18.012  0.00  0.00    +0.000 C 
ATOM      5  N   UNL     1      -0.809  10.458  19.168  0.00  0.00    +0.000 N 
ATOM      6  C   UNL     1      -0.516   9.717  20.407  0.00  0.00    +0.000 C 
ATOM      7  C   UNL     1       1.010   9.780  20.694  0.00  0.00    +0.000 C 
BRANCH   5   8
ATOM      8  C   UNL     1      -2.054  11.042  18.986  0.00  0.00    +0.000 A 
ATOM      9  C   UNL     1      -2.556  12.032  19.836  0.00  0.00    +0.000 A 
ATOM     10  C   UNL     1      -3.851  12.502  19.655  0.00  0.00    +0.000 A 
ATOM     11  N   UNL     1      -4.685  12.062  18.695  0.00  0.00    +0.000 NA
ATOM     12  C   UNL     1      -4.194  11.112  17.877  0.00  0.00    +0.000 A 
ATOM     13  C   UNL     1      -2.911  10.591  17.978  0.00  0.00    +0.000 A 
ENDBRANCH   5   8
ENDBRANCH   1   2
BRANCH   1  15
ATOM     14  O   UNL     1       2.720   8.151  17.049  0.00  0.00    +0.000 OA
ATOM     15  C   UNL     1       2.769   7.515  18.102  0.00  0.00    +0.000 C 
ATOM     16  N   UNL     1       3.624   6.452  18.372  0.00  0.00    +0.000 N 
ATOM     17  H   UNL     1       3.490   6.006  19.274  0.00  0.00    +0.000 HD
BRANCH  16  18
ATOM     18  C   UNL     1       4.633   5.938  17.525  0.00  0.00    +0.000 A 
ATOM     19  C   UNL     1       4.469   4.783  16.752  0.00  0.00    +0.000 A 
ATOM     20  C   UNL     1       5.517   4.289  15.967  0.00  0.00    +0.000 A 
ATOM     21  C   UNL     1       6.734   4.954  15.951  0.00  0.00    +0.000 A 
ATOM     22  F   UNL     1       7.746   4.464  15.223  0.00  0.00    +0.000 F 
ATOM     23  C   UNL     1       6.912   6.120  16.684  0.00  0.00    +0.000 A 
ATOM     24  C   UNL     1       5.857   6.622  17.458  0.00  0.00    +0.000 A 
ENDBRANCH  16  18
ENDBRANCH   1  15
BRANCH   1  25
ATOM     25  C   UNL     1       2.069   6.819  20.369  0.00  0.00    +0.000 C 
BRANCH  25  26
ATOM     26  C   UNL     1       1.106   5.635  20.482  0.00  0.00    +0.000 C 
BRANCH  26  27
ATOM     27  C   UNL     1       1.734   4.388  19.920  0.00  0.00    +0.000 A 
ATOM     28  C   UNL     1       1.249   3.843  18.722  0.00  0.00    +0.000 A 
ATOM     29  C   UNL     1       1.779   2.657  18.223  0.00  0.00    +0.000 A 
ATOM     30  C   UNL     1       2.794   2.007  18.919  0.00  0.00    +0.000 A 
ATOM     31  C   UNL     1       3.291   2.547  20.104  0.00  0.00    +0.000 A 
ATOM     32  C   UNL     1       2.766   3.737  20.605  0.00  0.00    +0.000 A 
ENDBRANCH  26  27
ENDBRANCH  25  26
ENDBRANCH   1  25
TORSDOF 7
ENDMDL
MODEL 7
REMARK VINA RESULT:      -7.3      3.212      7.981
REMARK  Name = 
REMARK  7 active torsions:
REMARK  status: ('A' for Active; 'I' for Inactive)
REMARK    1  A    between atoms: C_2  and  C_11
REMARK    2  A    between atoms: N_3  and  C_4
REMARK    3  A    between atoms: C_11  and  C_12
REMARK    4  A    between atoms: C_11  and  N_20
REMARK    5  A    between atoms: C_12  and  C_13
REMARK    6  A    between atoms: C_13  and  C_14
REMARK    7  A    between atoms: N_23  and  C_24
REMARK                            x       y       z     vdW  Elec       q    Type
REMARK                         _______ _______ _______ _____ _____    ______ ____
ROOT
ATOM      1  C   UNL     1       3.605   5.667  18.550  0.00  0.00    +0.000 C 
ENDROOT
BRANCH   1   2
ATOM      2  N   UNL     1       5.000   6.187  18.398  0.00  0.00    +0.000 NA
ATOM      3  C   UNL     1       5.959   5.046  18.203  0.00  0.00    +0.000 C 
ATOM      4  C   UNL     1       5.812   4.275  16.865  0.00  0.00    +0.000 C 
ATOM      5  N   UNL     1       5.917   5.216  15.739  0.00  0.00    +0.000 N 
ATOM      6  C   UNL     1       5.042   6.397  15.826  0.00  0.00    +0.000 C 
ATOM      7  C   UNL     1       5.217   7.066  17.217  0.00  0.00    +0.000 C 
BRANCH   5   8
ATOM      8  C   UNL     1       6.391   4.791  14.508  0.00  0.00    +0.000 A 
ATOM      9  C   UNL     1       7.496   5.375  13.881  0.00  0.00    +0.000 A 
ATOM     10  C   UNL     1       7.856   4.969  12.601  0.00  0.00    +0.000 A 
ATOM     11  N   UNL     1       7.201   4.026  11.899  0.00  0.00    +0.000 NA
ATOM     12  C   UNL     1       6.143   3.463  12.510  0.00  0.00    +0.000 A 
ATOM     13  C   UNL     1       5.717   3.800  13.788  0.00  0.00    +0.000 A 
ENDBRANCH   5   8
ENDBRANCH   1   2
BRANCH   1  15
ATOM     14  O   UNL     1       2.195   7.439  17.688  0.00  0.00    +0.000 OA
ATOM     15  C   UNL     1       2.624   6.878  18.696  0.00  0.00    +0.000 C 
ATOM     16  N   UNL     1       2.353   7.243  20.010  0.00  0.00    +0.000 N 
ATOM     17  H   UNL     1       2.837   6.702  20.720  0.00  0.00    +0.000 HD
BRANCH  16  18
ATOM     18  C   UNL     1       1.494   8.281  20.443  0.00  0.00    +0.000 A 
ATOM     19  C   UNL     1       1.271   9.448  19.705  0.00  0.00    +0.000 A 
ATOM     20  C   UNL     1       0.449  10.466  20.201  0.00  0.00    +0.000 A 
ATOM     21  C   UNL     1      -0.155  10.316  21.440  0.00  0.00    +0.000 A 
ATOM     22  F   UNL     1      -0.919  11.303  21.929  0.00  0.00    +0.000 F 
ATOM     23  C   UNL     1       0.024   9.153  22.178  0.00  0.00    +0.000 A 
ATOM     24  C   UNL     1       0.835   8.128  21.672  0.00  0.00    +0.000 A 
ENDBRANCH  16  18
ENDBRANCH   1  15
BRANCH   1  25
ATOM     25  C   UNL     1       3.018   4.803  17.411  0.00  0.00    +0.000 C 
BRANCH  25  26
ATOM     26  C   UNL     1       1.864   3.866  17.777  0.00  0.00    +0.000 C 
BRANCH  26  27
ATOM     27  C   UNL     1       2.040   3.333  19.174  0.00  0.00    +0.000 A 
ATOM     28  C   UNL     1       1.027   3.524  20.125  0.00  0.00    +0.000 A 
ATOM     29  C   UNL     1       1.202   3.090  21.436  0.00  0.00    +0.000 A 
ATOM     30  C   UNL     1       2.391   2.466  21.805  0.00  0.00    +0.000 A 
ATOM     31  C   UNL     1       3.398   2.262  20.864  0.00  0.00    +0.000 A 
ATOM     32  C   UNL     1       3.225   2.690  19.548  0.00  0.00    +0.000 A 
ENDBRANCH  26  27
ENDBRANCH  25  26
ENDBRANCH   1  25
TORSDOF 7
ENDMDL
MODEL 8
REMARK VINA RESULT:      -7.3      3.181      8.027
REMARK  Name = 
REMARK  7 active torsions:
REMARK  status: ('A' for Active; 'I' for Inactive)
REMARK    1  A    between atoms: C_2  and  C_11
REMARK    2  A    between atoms: N_3  and  C_4
REMARK    3  A    between atoms: C_11  and  C_12
REMARK    4  A    between atoms: C_11  and  N_20
REMARK    5  A    between atoms: C_12  and  C_13
REMARK    6  A    between atoms: C_13  and  C_14
REMARK    7  A    between atoms: N_23  and  C_24
REMARK                            x       y       z     vdW  Elec       q    Type
REMARK                         _______ _______ _______ _____ _____    ______ ____
ROOT
ATOM      1  C   UNL     1       4.281   5.078  18.585  0.00  0.00    +0.000 C 
ENDROOT
BRANCH   1   2
ATOM      2  N   UNL     1       5.479   5.903  18.231  0.00  0.00    +0.000 NA
ATOM      3  C   UNL     1       6.631   5.011  17.864  0.00  0.00    +0.000 C 
ATOM      4  C   UNL     1       6.459   4.210  16.547  0.00  0.00    +0.000 C 
ATOM      5  N   UNL     1       6.169   5.135  15.441  0.00  0.00    +0.000 N 
ATOM      6  C   UNL     1       5.070   6.083  15.689  0.00  0.00    +0.000 C 
ATOM      7  C   UNL     1       5.302   6.794  17.051  0.00  0.00    +0.000 C 
BRANCH   5   8
ATOM      8  C   UNL     1       6.530   4.815  14.141  0.00  0.00    +0.000 A 
ATOM      9  C   UNL     1       5.947   3.760  13.433  0.00  0.00    +0.000 A 
ATOM     10  C   UNL     1       6.426   3.429  12.170  0.00  0.00    +0.000 A 
ATOM     11  N   UNL     1       7.441   4.069  11.560  0.00  0.00    +0.000 NA
ATOM     12  C   UNL     1       7.994   5.087  12.244  0.00  0.00    +0.000 A 
ATOM     13  C   UNL     1       7.574   5.491  13.504  0.00  0.00    +0.000 A 
ENDBRANCH   5   8
ENDBRANCH   1   2
BRANCH   1  15
ATOM     14  O   UNL     1       2.172   5.886  17.707  0.00  0.00    +0.000 OA
ATOM     15  C   UNL     1       3.015   5.998  18.596  0.00  0.00    +0.000 C 
ATOM     16  N   UNL     1       2.986   6.923  19.634  0.00  0.00    +0.000 N 
ATOM     17  H   UNL     1       3.795   6.913  20.248  0.00  0.00    +0.000 HD
BRANCH  16  18
ATOM     18  C   UNL     1       1.965   7.864  19.904  0.00  0.00    +0.000 A 
ATOM     19  C   UNL     1       1.648   8.920  19.042  0.00  0.00    +0.000 A 
ATOM     20  C   UNL     1       0.660   9.851  19.380  0.00  0.00    +0.000 A 
ATOM     21  C   UNL     1      -0.016   9.727  20.584  0.00  0.00    +0.000 A 
ATOM     22  F   UNL     1      -0.941  10.636  20.921  0.00  0.00    +0.000 F 
ATOM     23  C   UNL     1       0.256   8.670  21.443  0.00  0.00    +0.000 A 
ATOM     24  C   UNL     1       1.235   7.728  21.095  0.00  0.00    +0.000 A 
ENDBRANCH  16  18
ENDBRANCH   1  15
BRANCH   1  25
ATOM     25  C   UNL     1       3.913   3.891  17.666  0.00  0.00    +0.000 C 
BRANCH  25  26
ATOM     26  C   UNL     1       3.790   2.516  18.328  0.00  0.00    +0.000 C 
BRANCH  26  27
ATOM     27  C   UNL     1       2.839   2.575  19.493  0.00  0.00    +0.000 A 
ATOM     28  C   UNL     1       1.473   2.799  19.267  0.00  0.00    +0.000 A 
ATOM     29  C   UNL     1       0.592   2.917  20.337  0.00  0.00    +0.000 A 
ATOM     30  C   UNL     1       1.070   2.814  21.641  0.00  0.00    +0.000 A 
ATOM     31  C   UNL     1       2.424   2.579  21.875  0.00  0.00    +0.000 A 
ATOM     32  C   UNL     1       3.310   2.456  20.805  0.00  0.00    +0.000 A 
ENDBRANCH  26  27
ENDBRANCH  25  26
ENDBRANCH   1  25
TORSDOF 7
ENDMDL
MODEL 9
REMARK VINA RESULT:      -7.3      1.237      1.685
REMARK  Name = 
REMARK  7 active torsions:
REMARK  status: ('A' for Active; 'I' for Inactive)
REMARK    1  A    between atoms: C_2  and  C_11
REMARK    2  A    between atoms: N_3  and  C_4
REMARK    3  A    between atoms: C_11  and  C_12
REMARK    4  A    between atoms: C_11  and  N_20
REMARK    5  A    between atoms: C_12  and  C_13
REMARK    6  A    between atoms: C_13  and  C_14
REMARK    7  A    between atoms: N_23  and  C_24
REMARK                            x       y       z     vdW  Elec       q    Type
REMARK                         _______ _______ _______ _____ _____    ______ ____
ROOT
ATOM      1  C   UNL     1       1.831   7.947  19.176  0.00  0.00    +0.000 C 
ENDROOT
BRANCH   1   2
ATOM      2  N   UNL     1       1.871   9.423  19.421  0.00  0.00    +0.000 NA
ATOM      3  C   UNL     1       1.394  10.162  18.202  0.00  0.00    +0.000 C 
ATOM      4  C   UNL     1      -0.110   9.987  17.865  0.00  0.00    +0.000 C 
ATOM      5  N   UNL     1      -0.925  10.363  19.030  0.00  0.00    +0.000 N 
ATOM      6  C   UNL     1      -0.539   9.721  20.298  0.00  0.00    +0.000 C 
ATOM      7  C   UNL     1       0.989   9.901  20.521  0.00  0.00    +0.000 C 
BRANCH   5   8
ATOM      8  C   UNL     1      -2.212  10.851  18.862  0.00  0.00    +0.000 A 
ATOM      9  C   UNL     1      -3.073  10.384  17.866  0.00  0.00    +0.000 A 
ATOM     10  C   UNL     1      -4.314  10.987  17.689  0.00  0.00    +0.000 A 
ATOM     11  N   UNL     1      -4.761  12.018  18.429  0.00  0.00    +0.000 NA
ATOM     12  C   UNL     1      -3.929  12.459  19.390  0.00  0.00    +0.000 A 
ATOM     13  C   UNL     1      -2.678  11.913  19.643  0.00  0.00    +0.000 A 
ENDBRANCH   5   8
ENDBRANCH   1   2
BRANCH   1  15
ATOM     14  O   UNL     1       2.856   8.232  16.998  0.00  0.00    +0.000 OA
ATOM     15  C   UNL     1       2.858   7.592  18.049  0.00  0.00    +0.000 C 
ATOM     16  N   UNL     1       3.682   6.511  18.343  0.00  0.00    +0.000 N 
ATOM     17  H   UNL     1       3.510   6.064  19.238  0.00  0.00    +0.000 HD
BRANCH  16  18
ATOM     18  C   UNL     1       4.709   5.981  17.527  0.00  0.00    +0.000 A 
ATOM     19  C   UNL     1       5.956   6.596  17.368  0.00  0.00    +0.000 A 
ATOM     20  C   UNL     1       6.920   6.053  16.511  0.00  0.00    +0.000 A 
ATOM     21  C   UNL     1       6.638   4.891  15.810  0.00  0.00    +0.000 A 
ATOM     22  F   UNL     1       7.550   4.388  14.967  0.00  0.00    +0.000 F 
ATOM     23  C   UNL     1       5.421   4.243  15.975  0.00  0.00    +0.000 A 
ATOM     24  C   UNL     1       4.462   4.779  16.846  0.00  0.00    +0.000 A 
ENDBRANCH  16  18
ENDBRANCH   1  15
BRANCH   1  25
ATOM     25  C   UNL     1       2.172   7.001  20.350  0.00  0.00    +0.000 C 
BRANCH  25  26
ATOM     26  C   UNL     1       1.130   5.939  20.707  0.00  0.00    +0.000 C 
BRANCH  26  27
ATOM     27  C   UNL     1       1.593   4.576  20.265  0.00  0.00    +0.000 A 
ATOM     28  C   UNL     1       2.927   4.194  20.467  0.00  0.00    +0.000 A 
ATOM     29  C   UNL     1       3.384   2.962  20.009  0.00  0.00    +0.000 A 
ATOM     30  C   UNL     1       2.511   2.105  19.344  0.00  0.00    +0.000 A 
ATOM     31  C   UNL     1       1.180   2.471  19.148  0.00  0.00    +0.000 A 
ATOM     32  C   UNL     1       0.717   3.703  19.610  0.00  0.00    +0.000 A 
ENDBRANCH  26  27
ENDBRANCH  25  26
ENDBRANCH   1  25
TORSDOF 7
ENDMDL
