MODEL 1
REMARK VINA RESULT:      -7.0      0.000      0.000
REMARK  Name = 
REMARK  2 active torsions:
REMARK  status: ('A' for Active; 'I' for Inactive)
REMARK    1  A    between atoms: C_1  and  C_2
REMARK    2  A    between atoms: C_10  and  O_11
REMARK                            x       y       z     vdW  Elec       q    Type
REMARK                         _______ _______ _______ _____ _____    ______ ____
ROOT
ATOM      1  C   UNL     1       3.283   7.650  17.740  0.00  0.00    +0.000 C 
ATOM      2  C   UNL     1       3.876   6.329  17.349  0.00  0.00    +0.000 A 
ATOM      3  C   UNL     1       4.966   6.247  16.572  0.00  0.00    +0.000 A 
ATOM      4  C   UNL     1       5.583   4.973  16.166  0.00  0.00    +0.000 A 
ATOM      5  O   UNL     1       6.580   4.959  15.455  0.00  0.00    +0.000 OA
ATOM      6  O   UNL     1       4.980   3.814  16.626  0.00  0.00    +0.000 OA
ATOM      7  C   UNL     1       3.834   3.863  17.443  0.00  0.00    +0.000 A 
ATOM      8  C   UNL     1       3.294   2.646  17.861  0.00  0.00    +0.000 A 
ATOM      9  F   UNL     1       3.854   1.485  17.490  0.00  0.00    +0.000 F 
ATOM     10  C   UNL     1       2.165   2.626  18.669  0.00  0.00    +0.000 A 
ATOM     11  C   UNL     1       1.584   3.827  19.052  0.00  0.00    +0.000 A 
ATOM     12  F   UNL     1       0.493   3.837  19.832  0.00  0.00    +0.000 F 
ATOM     13  C   UNL     1       2.121   5.046  18.636  0.00  0.00    +0.000 A 
ATOM     14  C   UNL     1       3.261   5.081  17.821  0.00  0.00    +0.000 A 
ENDROOT
BRANCH  10  15
ATOM     15  O   UNL     1       1.623   1.443  19.087  0.00  0.00    +0.000 OA
ATOM     16  H   UNL     1       0.708   1.620  19.374  0.00  0.00    +0.000 HD
ENDBRANCH  10  15
TORSDOF 1
ENDMDL
MODEL 2
REMARK VINA RESULT:      -6.9      2.797      4.788
REMARK  Name = 
REMARK  2 active torsions:
REMARK  status: ('A' for Active; 'I' for Inactive)
REMARK    1  A    between atoms: C_1  and  C_2
REMARK    2  A    between atoms: C_10  and  O_11
REMARK                            x       y       z     vdW  Elec       q    Type
REMARK                         _______ _______ _______ _____ _____    ______ ____
ROOT
ATOM      1  C   UNL     1       1.559   4.161  18.090  0.00  0.00    +0.000 C 
ATOM      2  C   UNL     1       2.951   3.880  18.573  0.00  0.00    +0.000 A 
ATOM      3  C   UNL     1       3.192   3.010  19.564  0.00  0.00    +0.000 A 
ATOM      4  C   UNL     1       4.540   2.702  20.069  0.00  0.00    +0.000 A 
ATOM      5  O   UNL     1       4.700   1.897  20.977  0.00  0.00    +0.000 OA
ATOM      6  O   UNL     1       5.597   3.366  19.467  0.00  0.00    +0.000 OA
ATOM      7  C   UNL     1       5.381   4.286  18.423  0.00  0.00    +0.000 A 
ATOM      8  C   UNL     1       6.503   4.907  17.876  0.00  0.00    +0.000 A 
ATOM      9  F   UNL     1       7.733   4.628  18.335  0.00  0.00    +0.000 F 
ATOM     10  C   UNL     1       6.359   5.824  16.843  0.00  0.00    +0.000 A 
ATOM     11  C   UNL     1       5.087   6.113  16.367  0.00  0.00    +0.000 A 
ATOM     12  F   UNL     1       4.917   6.995  15.372  0.00  0.00    +0.000 F 
ATOM     13  C   UNL     1       3.961   5.495  16.914  0.00  0.00    +0.000 A 
ATOM     14  C   UNL     1       4.094   4.567  17.955  0.00  0.00    +0.000 A 
ENDROOT
BRANCH  10  15
ATOM     15  O   UNL     1       7.448   6.441  16.295  0.00  0.00    +0.000 OA
ATOM     16  H   UNL     1       7.719   5.927  15.513  0.00  0.00    +0.000 HD
ENDBRANCH  10  15
TORSDOF 1
ENDMDL
MODEL 3
REMARK VINA RESULT:      -6.8      2.296      4.529
REMARK  Name = 
REMARK  2 active torsions:
REMARK  status: ('A' for Active; 'I' for Inactive)
REMARK    1  A    between atoms: C_1  and  C_2
REMARK    2  A    between atoms: C_10  and  O_11
REMARK                            x       y       z     vdW  Elec       q    Type
REMARK                         _______ _______ _______ _____ _____    ______ ____
ROOT
ATOM      1  C   UNL     1       2.433   6.844  19.268  0.00  0.00    +0.000 C 
ATOM      2  C   UNL     1       2.836   5.628  18.486  0.00  0.00    +0.000 A 
ATOM      3  C   UNL     1       2.072   4.526  18.451  0.00  0.00    +0.000 A 
ATOM      4  C   UNL     1       2.427   3.313  17.697  0.00  0.00    +0.000 A 
ATOM      5  O   UNL     1       1.689   2.336  17.701  0.00  0.00    +0.000 OA
ATOM      6  O   UNL     1       3.621   3.342  16.996  0.00  0.00    +0.000 OA
ATOM      7  C   UNL     1       4.449   4.482  17.010  0.00  0.00    +0.000 A 
ATOM      8  C   UNL     1       5.632   4.422  16.275  0.00  0.00    +0.000 A 
ATOM      9  F   UNL     1       5.957   3.317  15.588  0.00  0.00    +0.000 F 
ATOM     10  C   UNL     1       6.490   5.513  16.247  0.00  0.00    +0.000 A 
ATOM     11  C   UNL     1       6.155   6.657  16.958  0.00  0.00    +0.000 A 
ATOM     12  F   UNL     1       6.966   7.726  16.949  0.00  0.00    +0.000 F 
ATOM     13  C   UNL     1       4.972   6.720  17.695  0.00  0.00    +0.000 A 
ATOM     14  C   UNL     1       4.097   5.627  17.731  0.00  0.00    +0.000 A 
ENDROOT
BRANCH  10  15
ATOM     15  O   UNL     1       7.655   5.471  15.532  0.00  0.00    +0.000 OA
ATOM     16  H   UNL     1       7.493   4.939  14.731  0.00  0.00    +0.000 HD
ENDBRANCH  10  15
TORSDOF 1
ENDMDL
MODEL 4
REMARK VINA RESULT:      -6.7      1.827      1.835
REMARK  Name = 
REMARK  2 active torsions:
REMARK  status: ('A' for Active; 'I' for Inactive)
REMARK    1  A    between atoms: C_1  and  C_2
REMARK    2  A    between atoms: C_10  and  O_11
REMARK                            x       y       z     vdW  Elec       q    Type
REMARK                         _______ _______ _______ _____ _____    ______ ____
ROOT
ATOM      1  C   UNL     1       3.734   7.418  17.419  0.00  0.00    +0.000 C 
ATOM      2  C   UNL     1       4.491   6.200  17.861  0.00  0.00    +0.000 A 
ATOM      3  C   UNL     1       5.747   5.964  17.456  0.00  0.00    +0.000 A 
ATOM      4  C   UNL     1       6.527   4.784  17.866  0.00  0.00    +0.000 A 
ATOM      5  O   UNL     1       7.672   4.621  17.464  0.00  0.00    +0.000 OA
ATOM      6  O   UNL     1       5.901   3.888  18.716  0.00  0.00    +0.000 OA
ATOM      7  C   UNL     1       4.582   4.104  19.162  0.00  0.00    +0.000 A 
ATOM      8  C   UNL     1       4.032   3.150  20.017  0.00  0.00    +0.000 A 
ATOM      9  F   UNL     1       4.741   2.075  20.391  0.00  0.00    +0.000 F 
ATOM     10  C   UNL     1       2.737   3.306  20.494  0.00  0.00    +0.000 A 
ATOM     11  C   UNL     1       2.002   4.418  20.107  0.00  0.00    +0.000 A 
ATOM     12  F   UNL     1       0.749   4.593  20.551  0.00  0.00    +0.000 F 
ATOM     13  C   UNL     1       2.549   5.375  19.251  0.00  0.00    +0.000 A 
ATOM     14  C   UNL     1       3.855   5.230  18.764  0.00  0.00    +0.000 A 
ENDROOT
BRANCH  10  15
ATOM     15  O   UNL     1       2.182   2.380  21.332  0.00  0.00    +0.000 OA
ATOM     16  H   UNL     1       1.733   2.861  22.051  0.00  0.00    +0.000 HD
ENDBRANCH  10  15
TORSDOF 1
ENDMDL
MODEL 5
REMARK VINA RESULT:      -6.7      1.873      1.886
REMARK  Name = 
REMARK  2 active torsions:
REMARK  status: ('A' for Active; 'I' for Inactive)
REMARK    1  A    between atoms: C_1  and  C_2
REMARK    2  A    between atoms: C_10  and  O_11
REMARK                            x       y       z     vdW  Elec       q    Type
REMARK                         _______ _______ _______ _____ _____    ______ ____
ROOT
ATOM      1  C   UNL     1       4.103   7.272  17.076  0.00  0.00    +0.000 C 
ATOM      2  C   UNL     1       4.765   6.124  17.779  0.00  0.00    +0.000 A 
ATOM      3  C   UNL     1       6.065   6.154  18.109  0.00  0.00    +0.000 A 
ATOM      4  C   UNL     1       6.755   5.053  18.800  0.00  0.00    +0.000 A 
ATOM      5  O   UNL     1       7.945   5.137  19.078  0.00  0.00    +0.000 OA
ATOM      6  O   UNL     1       5.994   3.939  19.112  0.00  0.00    +0.000 OA
ATOM      7  C   UNL     1       4.627   3.872  18.780  0.00  0.00    +0.000 A 
ATOM      8  C   UNL     1       3.939   2.712  19.133  0.00  0.00    +0.000 A 
ATOM      9  F   UNL     1       4.567   1.708  19.762  0.00  0.00    +0.000 F 
ATOM     10  C   UNL     1       2.589   2.585  18.835  0.00  0.00    +0.000 A 
ATOM     11  C   UNL     1       1.938   3.623  18.184  0.00  0.00    +0.000 A 
ATOM     12  F   UNL     1       0.634   3.527  17.883  0.00  0.00    +0.000 F 
ATOM     13  C   UNL     1       2.623   4.786  17.829  0.00  0.00    +0.000 A 
ATOM     14  C   UNL     1       3.986   4.927  18.124  0.00  0.00    +0.000 A 
ENDROOT
BRANCH  10  15
ATOM     15  O   UNL     1       1.899   1.454  19.174  0.00  0.00    +0.000 OA
ATOM     16  H   UNL     1       2.339   0.697  18.744  0.00  0.00    +0.000 HD
ENDBRANCH  10  15
TORSDOF 1
ENDMDL
MODEL 6
REMARK VINA RESULT:      -6.6      1.982      4.303
REMARK  Name = 
REMARK  2 active torsions:
REMARK  status: ('A' for Active; 'I' for Inactive)
REMARK    1  A    between atoms: C_1  and  C_2
REMARK    2  A    between atoms: C_10  and  O_11
REMARK                            x       y       z     vdW  Elec       q    Type
REMARK                         _______ _______ _______ _____ _____    ______ ____
ROOT
ATOM      1  C   UNL     1       2.133   7.216  20.010  0.00  0.00    +0.000 C 
ATOM      2  C   UNL     1       2.263   5.726  19.896  0.00  0.00    +0.000 A 
ATOM      3  C   UNL     1       1.605   4.896  20.719  0.00  0.00    +0.000 A 
ATOM      4  C   UNL     1       1.701   3.429  20.643  0.00  0.00    +0.000 A 
ATOM      5  O   UNL     1       1.075   2.720  21.421  0.00  0.00    +0.000 OA
ATOM      6  O   UNL     1       2.524   2.908  19.658  0.00  0.00    +0.000 OA
ATOM      7  C   UNL     1       3.230   3.750  18.777  0.00  0.00    +0.000 A 
ATOM      8  C   UNL     1       4.036   3.140  17.816  0.00  0.00    +0.000 A 
ATOM      9  F   UNL     1       4.124   1.803  17.746  0.00  0.00    +0.000 F 
ATOM     10  C   UNL     1       4.757   3.914  16.917  0.00  0.00    +0.000 A 
ATOM     11  C   UNL     1       4.665   5.297  16.989  0.00  0.00    +0.000 A 
ATOM     12  F   UNL     1       5.351   6.069  16.133  0.00  0.00    +0.000 F 
ATOM     13  C   UNL     1       3.861   5.912  17.949  0.00  0.00    +0.000 A 
ATOM     14  C   UNL     1       3.128   5.142  18.862  0.00  0.00    +0.000 A 
ENDROOT
BRANCH  10  15
ATOM     15  O   UNL     1       5.551   3.331  15.969  0.00  0.00    +0.000 OA
ATOM     16  H   UNL     1       6.158   2.719  16.425  0.00  0.00    +0.000 HD
ENDBRANCH  10  15
TORSDOF 1
ENDMDL
MODEL 7
REMARK VINA RESULT:      -6.6      1.875      3.219
REMARK  Name = 
REMARK  2 active torsions:
REMARK  status: ('A' for Active; 'I' for Inactive)
REMARK    1  A    between atoms: C_1  and  C_2
REMARK    2  A    between atoms: C_10  and  O_11
REMARK                            x       y       z     vdW  Elec       q    Type
REMARK                         _______ _______ _______ _____ _____    ______ ____
ROOT
ATOM      1  C   UNL     1       5.798   5.669  16.225  0.00  0.00    +0.000 C 
ATOM      2  C   UNL     1       4.549   5.886  17.028  0.00  0.00    +0.000 A 
ATOM      3  C   UNL     1       4.079   7.116  17.282  0.00  0.00    +0.000 A 
ATOM      4  C   UNL     1       2.858   7.376  18.063  0.00  0.00    +0.000 A 
ATOM      5  O   UNL     1       2.476   8.522  18.263  0.00  0.00    +0.000 OA
ATOM      6  O   UNL     1       2.182   6.270  18.549  0.00  0.00    +0.000 OA
ATOM      7  C   UNL     1       2.647   4.963  18.301  0.00  0.00    +0.000 A 
ATOM      8  C   UNL     1       1.902   3.909  18.828  0.00  0.00    +0.000 A 
ATOM      9  F   UNL     1       0.790   4.144  19.540  0.00  0.00    +0.000 F 
ATOM     10  C   UNL     1       2.306   2.597  18.619  0.00  0.00    +0.000 A 
ATOM     11  C   UNL     1       3.457   2.352  17.882  0.00  0.00    +0.000 A 
ATOM     12  F   UNL     1       3.871   1.095  17.665  0.00  0.00    +0.000 F 
ATOM     13  C   UNL     1       4.205   3.405  17.354  0.00  0.00    +0.000 A 
ATOM     14  C   UNL     1       3.808   4.733  17.557  0.00  0.00    +0.000 A 
ENDROOT
BRANCH  10  15
ATOM     15  O   UNL     1       1.588   1.552  19.129  0.00  0.00    +0.000 OA
ATOM     16  H   UNL     1       0.907   1.311  18.473  0.00  0.00    +0.000 HD
ENDBRANCH  10  15
TORSDOF 1
ENDMDL
MODEL 8
REMARK VINA RESULT:      -6.6      2.953      5.121
REMARK  Name = 
REMARK  2 active torsions:
REMARK  status: ('A' for Active; 'I' for Inactive)
REMARK    1  A    between atoms: C_1  and  C_2
REMARK    2  A    between atoms: C_10  and  O_11
REMARK                            x       y       z     vdW  Elec       q    Type
REMARK                         _______ _______ _______ _____ _____    ______ ____
ROOT
ATOM      1  C   UNL     1       2.166   2.886  17.657  0.00  0.00    +0.000 C 
ATOM      2  C   UNL     1       2.755   4.236  17.944  0.00  0.00    +0.000 A 
ATOM      3  C   UNL     1       2.168   5.097  18.788  0.00  0.00    +0.000 A 
ATOM      4  C   UNL     1       2.711   6.430  19.100  0.00  0.00    +0.000 A 
ATOM      5  O   UNL     1       2.132   7.174  19.880  0.00  0.00    +0.000 OA
ATOM      6  O   UNL     1       3.893   6.784  18.470  0.00  0.00    +0.000 OA
ATOM      7  C   UNL     1       4.537   5.905  17.578  0.00  0.00    +0.000 A 
ATOM      8  C   UNL     1       5.723   6.344  16.990  0.00  0.00    +0.000 A 
ATOM      9  F   UNL     1       6.218   7.558  17.273  0.00  0.00    +0.000 F 
ATOM     10  C   UNL     1       6.406   5.525  16.103  0.00  0.00    +0.000 A 
ATOM     11  C   UNL     1       5.895   4.268  15.809  0.00  0.00    +0.000 A 
ATOM     12  F   UNL     1       6.534   3.456  14.955  0.00  0.00    +0.000 F 
ATOM     13  C   UNL     1       4.708   3.825  16.395  0.00  0.00    +0.000 A 
ATOM     14  C   UNL     1       4.008   4.642  17.293  0.00  0.00    +0.000 A 
ENDROOT
BRANCH  10  15
ATOM     15  O   UNL     1       7.570   5.940  15.518  0.00  0.00    +0.000 OA
ATOM     16  H   UNL     1       8.215   5.212  15.589  0.00  0.00    +0.000 HD
ENDBRANCH  10  15
TORSDOF 1
ENDMDL
MODEL 9
REMARK VINA RESULT:      -6.6      2.661      4.503
REMARK  Name = 
REMARK  2 active torsions:
REMARK  status: ('A' for Active; 'I' for Inactive)
REMARK    1  A    between atoms: C_1  and  C_2
REMARK    2  A    between atoms: C_10  and  O_11
REMARK                            x       y       z     vdW  Elec       q    Type
REMARK                         _______ _______ _______ _____ _____    ______ ____
ROOT
ATOM      1  C   UNL     1       1.211   4.270  20.373  0.00  0.00    +0.000 C 
ATOM      2  C   UNL     1       2.627   3.907  20.037  0.00  0.00    +0.000 A 
ATOM      3  C   UNL     1       3.210   2.805  20.532  0.00  0.00    +0.000 A 
ATOM      4  C   UNL     1       4.595   2.409  20.229  0.00  0.00    +0.000 A 
ATOM      5  O   UNL     1       5.074   1.390  20.710  0.00  0.00    +0.000 OA
ATOM      6  O   UNL     1       5.310   3.242  19.384  0.00  0.00    +0.000 OA
ATOM      7  C   UNL     1       4.730   4.407  18.845  0.00  0.00    +0.000 A 
ATOM      8  C   UNL     1       5.524   5.186  18.003  0.00  0.00    +0.000 A 
ATOM      9  F   UNL     1       6.786   4.827  17.727  0.00  0.00    +0.000 F 
ATOM     10  C   UNL     1       5.011   6.346  17.439  0.00  0.00    +0.000 A 
ATOM     11  C   UNL     1       3.705   6.719  17.725  0.00  0.00    +0.000 A 
ATOM     12  F   UNL     1       3.185   7.835  17.195  0.00  0.00    +0.000 F 
ATOM     13  C   UNL     1       2.908   5.943  18.568  0.00  0.00    +0.000 A 
ATOM     14  C   UNL     1       3.413   4.769  19.143  0.00  0.00    +0.000 A 
ENDROOT
BRANCH  10  15
ATOM     15  O   UNL     1       5.775   7.121  16.612  0.00  0.00    +0.000 OA
ATOM     16  H   UNL     1       5.597   6.842  15.695  0.00  0.00    +0.000 HD
ENDBRANCH  10  15
TORSDOF 1
ENDMDL
