MODEL 1
REMARK VINA RESULT:      -7.8      0.000      0.000
REMARK  Name = 
REMARK  7 active torsions:
REMARK  status: ('A' for Active; 'I' for Inactive)
REMARK    1  A    between atoms: C_1  and  C_2
REMARK    2  A    between atoms: C_2  and  C_3
REMARK    3  A    between atoms: C_8  and  C_10
REMARK    4  A    between atoms: C_10  and  S_11
REMARK    5  A    between atoms: S_11  and  C_12
REMARK    6  A    between atoms: C_15  and  C_16
REMARK    7  A    between atoms: C_21  and  O_22
REMARK                            x       y       z     vdW  Elec       q    Type
REMARK                         _______ _______ _______ _____ _____    ______ ____
ROOT
ATOM      1  C   UNL     1       2.096   4.123  19.638  0.00  0.00    +0.000 A 
ATOM      2  N   UNL     1       2.555   4.442  20.846  0.00  0.00    +0.000 NA
ATOM      3  N   UNL     1       2.516   5.777  20.799  0.00  0.00    +0.000 N 
ATOM      4  C   UNL     1       2.037   6.240  19.603  0.00  0.00    +0.000 A 
ATOM      5  N   UNL     1       1.760   5.190  18.842  0.00  0.00    +0.000 NA
ATOM      6  H   UNL     1       2.808   6.333  21.596  0.00  0.00    +0.000 HD
ENDROOT
BRANCH   4   7
ATOM      7  C   UNL     1       1.869   7.669  19.314  0.00  0.00    +0.000 A 
ATOM      8  C   UNL     1       2.269   8.179  18.071  0.00  0.00    +0.000 A 
ATOM      9  C   UNL     1       2.092   9.532  17.759  0.00  0.00    +0.000 A 
ATOM     10  C   UNL     1       1.515  10.398  18.687  0.00  0.00    +0.000 A 
ATOM     11  C   UNL     1       1.121   9.918  19.934  0.00  0.00    +0.000 A 
ATOM     12  C   UNL     1       1.301   8.565  20.242  0.00  0.00    +0.000 A 
BRANCH  12  13
ATOM     13  O   UNL     1       0.906   8.115  21.480  0.00  0.00    +0.000 OA
ATOM     14  H   UNL     1       0.470   7.251  21.369  0.00  0.00    +0.000 HD
ENDBRANCH  12  13
ENDBRANCH   4   7
BRANCH   1  15
ATOM     15  S   UNL     1       1.934   2.446  19.209  0.00  0.00    +0.000 S 
BRANCH  15  16
ATOM     16  C   UNL     1       3.654   1.946  18.996  0.00  0.00    +0.000 C 
BRANCH  16  22
ATOM     17  C   UNL     1       7.324   6.624  18.033  0.00  0.00    +0.000 A 
ATOM     18  N   UNL     1       7.862   6.186  19.152  0.00  0.00    +0.000 NA
ATOM     19  N   UNL     1       7.184   5.090  19.656  0.00  0.00    +0.000 NA
ATOM     20  C   UNL     1       6.191   4.718  18.877  0.00  0.00    +0.000 A 
ATOM     21  N   UNL     1       5.385   3.645  19.170  0.00  0.00    +0.000 N 
ATOM     22  C   UNL     1       4.429   3.085  18.344  0.00  0.00    +0.000 C 
ATOM     23  O   UNL     1       4.215   3.390  17.174  0.00  0.00    +0.000 OA
ATOM     24  S   UNL     1       5.956   5.721  17.521  0.00  0.00    +0.000 S 
ATOM     25  H   UNL     1       5.558   3.239  20.080  0.00  0.00    +0.000 HD
BRANCH  17  27
ATOM     26  C   UNL     1       8.213   8.953  18.144  0.00  0.00    +0.000 C 
ATOM     27  C   UNL     1       7.812   7.794  17.244  0.00  0.00    +0.000 C 
ENDBRANCH  17  27
ENDBRANCH  16  22
ENDBRANCH  15  16
ENDBRANCH   1  15
TORSDOF 6
ENDMDL
MODEL 2
REMARK VINA RESULT:      -7.5      0.968      1.431
REMARK  Name = 
REMARK  7 active torsions:
REMARK  status: ('A' for Active; 'I' for Inactive)
REMARK    1  A    between atoms: C_1  and  C_2
REMARK    2  A    between atoms: C_2  and  C_3
REMARK    3  A    between atoms: C_8  and  C_10
REMARK    4  A    between atoms: C_10  and  S_11
REMARK    5  A    between atoms: S_11  and  C_12
REMARK    6  A    between atoms: C_15  and  C_16
REMARK    7  A    between atoms: C_21  and  O_22
REMARK                            x       y       z     vdW  Elec       q    Type
REMARK                         _______ _______ _______ _____ _____    ______ ____
ROOT
ATOM      1  C   UNL     1       2.075   3.984  19.734  0.00  0.00    +0.000 A 
ATOM      2  N   UNL     1       2.625   4.105  20.940  0.00  0.00    +0.000 NA
ATOM      3  N   UNL     1       2.493   5.417  21.159  0.00  0.00    +0.000 N 
ATOM      4  C   UNL     1       1.873   6.057  20.119  0.00  0.00    +0.000 A 
ATOM      5  N   UNL     1       1.596   5.150  19.192  0.00  0.00    +0.000 NA
ATOM      6  H   UNL     1       2.822   5.834  22.023  0.00  0.00    +0.000 HD
ENDROOT
BRANCH   4   7
ATOM      7  C   UNL     1       1.584   7.496  20.130  0.00  0.00    +0.000 A 
ATOM      8  C   UNL     1       1.104   8.100  21.299  0.00  0.00    +0.000 A 
ATOM      9  C   UNL     1       0.850   9.476  21.344  0.00  0.00    +0.000 A 
ATOM     10  C   UNL     1       1.069  10.269  20.219  0.00  0.00    +0.000 A 
ATOM     11  C   UNL     1       1.534   9.689  19.041  0.00  0.00    +0.000 A 
ATOM     12  C   UNL     1       1.786   8.314  18.999  0.00  0.00    +0.000 A 
BRANCH  12  13
ATOM     13  O   UNL     1       2.242   7.765  17.825  0.00  0.00    +0.000 OA
ATOM     14  H   UNL     1       2.970   7.152  18.034  0.00  0.00    +0.000 HD
ENDBRANCH  12  13
ENDBRANCH   4   7
BRANCH   1  15
ATOM     15  S   UNL     1       1.984   2.411  18.999  0.00  0.00    +0.000 S 
BRANCH  15  16
ATOM     16  C   UNL     1       3.726   2.007  18.763  0.00  0.00    +0.000 C 
BRANCH  16  22
ATOM     17  C   UNL     1       7.293   6.802  18.012  0.00  0.00    +0.000 A 
ATOM     18  N   UNL     1       7.916   6.259  19.037  0.00  0.00    +0.000 NA
ATOM     19  N   UNL     1       7.283   5.109  19.475  0.00  0.00    +0.000 NA
ATOM     20  C   UNL     1       6.236   4.806  18.739  0.00  0.00    +0.000 A 
ATOM     21  N   UNL     1       5.458   3.699  18.979  0.00  0.00    +0.000 N 
ATOM     22  C   UNL     1       4.445   3.215  18.174  0.00  0.00    +0.000 C 
ATOM     23  O   UNL     1       4.141   3.635  17.061  0.00  0.00    +0.000 OA
ATOM     24  S   UNL     1       5.894   5.939  17.513  0.00  0.00    +0.000 S 
ATOM     25  H   UNL     1       5.701   3.205  19.827  0.00  0.00    +0.000 HD
BRANCH  17  27
ATOM     26  C   UNL     1       8.408   9.021  18.258  0.00  0.00    +0.000 C 
ATOM     27  C   UNL     1       7.716   8.052  17.312  0.00  0.00    +0.000 C 
ENDBRANCH  17  27
ENDBRANCH  16  22
ENDBRANCH  15  16
ENDBRANCH   1  15
TORSDOF 6
ENDMDL
MODEL 3
REMARK VINA RESULT:      -7.3      1.292      1.313
REMARK  Name = 
REMARK  7 active torsions:
REMARK  status: ('A' for Active; 'I' for Inactive)
REMARK    1  A    between atoms: C_1  and  C_2
REMARK    2  A    between atoms: C_2  and  C_3
REMARK    3  A    between atoms: C_8  and  C_10
REMARK    4  A    between atoms: C_10  and  S_11
REMARK    5  A    between atoms: S_11  and  C_12
REMARK    6  A    between atoms: C_15  and  C_16
REMARK    7  A    between atoms: C_21  and  O_22
REMARK                            x       y       z     vdW  Elec       q    Type
REMARK                         _______ _______ _______ _____ _____    ______ ____
ROOT
ATOM      1  C   UNL     1       2.143   4.019  19.929  0.00  0.00    +0.000 A 
ATOM      2  N   UNL     1       2.235   4.407  21.199  0.00  0.00    +0.000 NA
ATOM      3  N   UNL     1       2.151   5.736  21.074  0.00  0.00    +0.000 N 
ATOM      4  C   UNL     1       2.001   6.126  19.771  0.00  0.00    +0.000 A 
ATOM      5  N   UNL     1       1.994   5.035  19.018  0.00  0.00    +0.000 NA
ATOM      6  H   UNL     1       2.186   6.336  21.891  0.00  0.00    +0.000 HD
ENDROOT
BRANCH   4   7
ATOM      7  C   UNL     1       1.857   7.532  19.374  0.00  0.00    +0.000 A 
ATOM      8  C   UNL     1       2.278   7.943  18.102  0.00  0.00    +0.000 A 
ATOM      9  C   UNL     1       2.123   9.271  17.688  0.00  0.00    +0.000 A 
ATOM     10  C   UNL     1       1.547  10.211  18.542  0.00  0.00    +0.000 A 
ATOM     11  C   UNL     1       1.132   9.830  19.816  0.00  0.00    +0.000 A 
ATOM     12  C   UNL     1       1.290   8.502  20.226  0.00  0.00    +0.000 A 
BRANCH  12  13
ATOM     13  O   UNL     1       0.875   8.151  21.488  0.00  0.00    +0.000 OA
ATOM     14  H   UNL     1      -0.075   7.938  21.452  0.00  0.00    +0.000 HD
ENDBRANCH  12  13
ENDBRANCH   4   7
BRANCH   1  15
ATOM     15  S   UNL     1       2.181   2.321  19.558  0.00  0.00    +0.000 S 
BRANCH  15  16
ATOM     16  C   UNL     1       3.447   2.246  18.275  0.00  0.00    +0.000 C 
BRANCH  16  22
ATOM     17  C   UNL     1       7.146   6.974  17.775  0.00  0.00    +0.000 A 
ATOM     18  N   UNL     1       6.273   7.316  16.851  0.00  0.00    +0.000 NA
ATOM     19  N   UNL     1       5.277   6.366  16.705  0.00  0.00    +0.000 NA
ATOM     20  C   UNL     1       5.413   5.368  17.552  0.00  0.00    +0.000 A 
ATOM     21  N   UNL     1       4.534   4.313  17.599  0.00  0.00    +0.000 N 
ATOM     22  C   UNL     1       4.502   3.311  18.550  0.00  0.00    +0.000 C 
ATOM     23  O   UNL     1       5.189   3.255  19.566  0.00  0.00    +0.000 OA
ATOM     24  S   UNL     1       6.805   5.469  18.530  0.00  0.00    +0.000 S 
ATOM     25  H   UNL     1       3.843   4.323  16.861  0.00  0.00    +0.000 HD
BRANCH  17  27
ATOM     26  C   UNL     1       8.126   9.263  17.931  0.00  0.00    +0.000 C 
ATOM     27  C   UNL     1       8.342   7.777  18.167  0.00  0.00    +0.000 C 
ENDBRANCH  17  27
ENDBRANCH  16  22
ENDBRANCH  15  16
ENDBRANCH   1  15
TORSDOF 6
ENDMDL
MODEL 4
REMARK VINA RESULT:      -7.3      3.909      5.837
REMARK  Name = 
REMARK  7 active torsions:
REMARK  status: ('A' for Active; 'I' for Inactive)
REMARK    1  A    between atoms: C_1  and  C_2
REMARK    2  A    between atoms: C_2  and  C_3
REMARK    3  A    between atoms: C_8  and  C_10
REMARK    4  A    between atoms: C_10  and  S_11
REMARK    5  A    between atoms: S_11  and  C_12
REMARK    6  A    between atoms: C_15  and  C_16
REMARK    7  A    between atoms: C_21  and  O_22
REMARK                            x       y       z     vdW  Elec       q    Type
REMARK                         _______ _______ _______ _____ _____    ______ ____
ROOT
ATOM      1  C   UNL     1       4.988   6.577  17.955  0.00  0.00    +0.000 A 
ATOM      2  N   UNL     1       3.976   6.759  17.109  0.00  0.00    +0.000 NA
ATOM      3  N   UNL     1       3.044   5.959  17.636  0.00  0.00    +0.000 N 
ATOM      4  C   UNL     1       3.483   5.328  18.769  0.00  0.00    +0.000 A 
ATOM      5  N   UNL     1       4.732   5.713  18.991  0.00  0.00    +0.000 NA
ATOM      6  H   UNL     1       2.127   5.880  17.209  0.00  0.00    +0.000 HD
ENDROOT
BRANCH   4   7
ATOM      7  C   UNL     1       2.636   4.419  19.551  0.00  0.00    +0.000 A 
ATOM      8  C   UNL     1       2.873   4.255  20.923  0.00  0.00    +0.000 A 
ATOM      9  C   UNL     1       2.061   3.417  21.697  0.00  0.00    +0.000 A 
ATOM     10  C   UNL     1       1.001   2.728  21.110  0.00  0.00    +0.000 A 
ATOM     11  C   UNL     1       0.753   2.865  19.746  0.00  0.00    +0.000 A 
ATOM     12  C   UNL     1       1.567   3.702  18.976  0.00  0.00    +0.000 A 
BRANCH  12  13
ATOM     13  O   UNL     1       1.304   3.819  17.632  0.00  0.00    +0.000 OA
ATOM     14  H   UNL     1       1.605   3.005  17.187  0.00  0.00    +0.000 HD
ENDBRANCH  12  13
ENDBRANCH   4   7
BRANCH   1  15
ATOM     15  S   UNL     1       6.471   7.445  17.700  0.00  0.00    +0.000 S 
BRANCH  15  16
ATOM     16  C   UNL     1       7.670   6.105  17.555  0.00  0.00    +0.000 C 
BRANCH  16  22
ATOM     17  C   UNL     1       6.285   3.468  12.319  0.00  0.00    +0.000 A 
ATOM     18  N   UNL     1       7.141   4.359  11.864  0.00  0.00    +0.000 NA
ATOM     19  N   UNL     1       7.626   5.171  12.874  0.00  0.00    +0.000 NA
ATOM     20  C   UNL     1       7.153   4.834  14.054  0.00  0.00    +0.000 A 
ATOM     21  N   UNL     1       7.505   5.493  15.207  0.00  0.00    +0.000 N 
ATOM     22  C   UNL     1       7.190   5.116  16.499  0.00  0.00    +0.000 C 
ATOM     23  O   UNL     1       6.631   4.076  16.833  0.00  0.00    +0.000 OA
ATOM     24  S   UNL     1       6.021   3.562  14.014  0.00  0.00    +0.000 S 
ATOM     25  H   UNL     1       8.072   6.316  15.051  0.00  0.00    +0.000 HD
BRANCH  17  27
ATOM     26  C   UNL     1       6.489   1.291  11.117  0.00  0.00    +0.000 C 
ATOM     27  C   UNL     1       5.577   2.451  11.486  0.00  0.00    +0.000 C 
ENDBRANCH  17  27
ENDBRANCH  16  22
ENDBRANCH  15  16
ENDBRANCH   1  15
TORSDOF 6
ENDMDL
MODEL 5
REMARK VINA RESULT:      -7.2      3.579      7.413
REMARK  Name = 
REMARK  7 active torsions:
REMARK  status: ('A' for Active; 'I' for Inactive)
REMARK    1  A    between atoms: C_1  and  C_2
REMARK    2  A    between atoms: C_2  and  C_3
REMARK    3  A    between atoms: C_8  and  C_10
REMARK    4  A    between atoms: C_10  and  S_11
REMARK    5  A    between atoms: S_11  and  C_12
REMARK    6  A    between atoms: C_15  and  C_16
REMARK    7  A    between atoms: C_21  and  O_22
REMARK                            x       y       z     vdW  Elec       q    Type
REMARK                         _______ _______ _______ _____ _____    ______ ____
ROOT
ATOM      1  C   UNL     1       7.950   8.450  17.826  0.00  0.00    +0.000 A 
ATOM      2  N   UNL     1       8.604   8.087  18.927  0.00  0.00    +0.000 NA
ATOM      3  N   UNL     1       9.227   9.224  19.251  0.00  0.00    +0.000 N 
ATOM      4  C   UNL     1       8.943  10.238  18.376  0.00  0.00    +0.000 A 
ATOM      5  N   UNL     1       8.122   9.760  17.452  0.00  0.00    +0.000 NA
ATOM      6  H   UNL     1       9.820   9.275  20.073  0.00  0.00    +0.000 HD
ENDROOT
BRANCH   4   7
ATOM      7  C   UNL     1       9.482  11.596  18.531  0.00  0.00    +0.000 A 
ATOM      8  C   UNL     1      10.586  11.814  19.365  0.00  0.00    +0.000 A 
ATOM      9  C   UNL     1      11.137  13.094  19.506  0.00  0.00    +0.000 A 
ATOM     10  C   UNL     1      10.589  14.175  18.817  0.00  0.00    +0.000 A 
ATOM     11  C   UNL     1       9.484  13.985  17.992  0.00  0.00    +0.000 A 
ATOM     12  C   UNL     1       8.935  12.705  17.855  0.00  0.00    +0.000 A 
BRANCH  12  13
ATOM     13  O   UNL     1       7.842  12.543  17.037  0.00  0.00    +0.000 OA
ATOM     14  H   UNL     1       8.158  12.324  16.141  0.00  0.00    +0.000 HD
ENDBRANCH  12  13
ENDBRANCH   4   7
BRANCH   1  15
ATOM     15  S   UNL     1       6.944   7.287  17.016  0.00  0.00    +0.000 S 
BRANCH  15  16
ATOM     16  C   UNL     1       7.412   5.751  17.837  0.00  0.00    +0.000 C 
BRANCH  16  22
ATOM     17  C   UNL     1       1.947   3.540  19.074  0.00  0.00    +0.000 A 
ATOM     18  N   UNL     1       1.959   3.307  17.778  0.00  0.00    +0.000 NA
ATOM     19  N   UNL     1       3.125   3.756  17.184  0.00  0.00    +0.000 NA
ATOM     20  C   UNL     1       3.964   4.269  18.058  0.00  0.00    +0.000 A 
ATOM     21  N   UNL     1       5.192   4.769  17.699  0.00  0.00    +0.000 N 
ATOM     22  C   UNL     1       6.197   5.177  18.556  0.00  0.00    +0.000 C 
ATOM     23  O   UNL     1       6.196   5.064  19.778  0.00  0.00    +0.000 OA
ATOM     24  S   UNL     1       3.364   4.320  19.652  0.00  0.00    +0.000 S 
ATOM     25  H   UNL     1       5.345   4.801  16.700  0.00  0.00    +0.000 HD
BRANCH  17  27
ATOM     26  C   UNL     1       1.351   2.658  21.330  0.00  0.00    +0.000 C 
ATOM     27  C   UNL     1       0.832   3.185  20.002  0.00  0.00    +0.000 C 
ENDBRANCH  17  27
ENDBRANCH  16  22
ENDBRANCH  15  16
ENDBRANCH   1  15
TORSDOF 6
ENDMDL
MODEL 6
REMARK VINA RESULT:      -7.2      3.736      7.303
REMARK  Name = 
REMARK  7 active torsions:
REMARK  status: ('A' for Active; 'I' for Inactive)
REMARK    1  A    between atoms: C_1  and  C_2
REMARK    2  A    between atoms: C_2  and  C_3
REMARK    3  A    between atoms: C_8  and  C_10
REMARK    4  A    between atoms: C_10  and  S_11
REMARK    5  A    between atoms: S_11  and  C_12
REMARK    6  A    between atoms: C_15  and  C_16
REMARK    7  A    between atoms: C_21  and  O_22
REMARK                            x       y       z     vdW  Elec       q    Type
REMARK                         _______ _______ _______ _____ _____    ______ ____
ROOT
ATOM      1  C   UNL     1       7.042   6.640  16.907  0.00  0.00    +0.000 A 
ATOM      2  N   UNL     1       5.788   7.023  16.677  0.00  0.00    +0.000 NA
ATOM      3  N   UNL     1       5.522   6.382  15.534  0.00  0.00    +0.000 N 
ATOM      4  C   UNL     1       6.582   5.632  15.102  0.00  0.00    +0.000 A 
ATOM      5  N   UNL     1       7.571   5.784  15.973  0.00  0.00    +0.000 NA
ATOM      6  H   UNL     1       4.614   6.470  15.090  0.00  0.00    +0.000 HD
ENDROOT
BRANCH   4   7
ATOM      7  C   UNL     1       6.531   4.811  13.885  0.00  0.00    +0.000 A 
ATOM      8  C   UNL     1       5.470   3.915  13.695  0.00  0.00    +0.000 A 
ATOM      9  C   UNL     1       5.383   3.144  12.530  0.00  0.00    +0.000 A 
ATOM     10  C   UNL     1       6.358   3.253  11.539  0.00  0.00    +0.000 A 
ATOM     11  C   UNL     1       7.429   4.127  11.712  0.00  0.00    +0.000 A 
ATOM     12  C   UNL     1       7.513   4.895  12.877  0.00  0.00    +0.000 A 
BRANCH  12  13
ATOM     13  O   UNL     1       8.581   5.749  13.026  0.00  0.00    +0.000 OA
ATOM     14  H   UNL     1       8.843   5.754  13.964  0.00  0.00    +0.000 HD
ENDBRANCH  12  13
ENDBRANCH   4   7
BRANCH   1  15
ATOM     15  S   UNL     1       7.853   7.208  18.335  0.00  0.00    +0.000 S 
BRANCH  15  16
ATOM     16  C   UNL     1       7.777   5.761  19.410  0.00  0.00    +0.000 C 
BRANCH  16  22
ATOM     17  C   UNL     1       1.947   4.250  19.356  0.00  0.00    +0.000 A 
ATOM     18  N   UNL     1       1.808   5.536  19.599  0.00  0.00    +0.000 NA
ATOM     19  N   UNL     1       3.031   6.176  19.704  0.00  0.00    +0.000 NA
ATOM     20  C   UNL     1       4.040   5.358  19.495  0.00  0.00    +0.000 A 
ATOM     21  N   UNL     1       5.349   5.773  19.537  0.00  0.00    +0.000 N 
ATOM     22  C   UNL     1       6.459   5.033  19.177  0.00  0.00    +0.000 C 
ATOM     23  O   UNL     1       6.449   3.917  18.663  0.00  0.00    +0.000 OA
ATOM     24  S   UNL     1       3.582   3.737  19.237  0.00  0.00    +0.000 S 
ATOM     25  H   UNL     1       5.465   6.730  19.843  0.00  0.00    +0.000 HD
BRANCH  17  27
ATOM     26  C   UNL     1       1.328   1.883  18.864  0.00  0.00    +0.000 C 
ATOM     27  C   UNL     1       0.823   3.279  19.196  0.00  0.00    +0.000 C 
ENDBRANCH  17  27
ENDBRANCH  16  22
ENDBRANCH  15  16
ENDBRANCH   1  15
TORSDOF 6
ENDMDL
MODEL 7
REMARK VINA RESULT:      -7.2      3.839      6.452
REMARK  Name = 
REMARK  7 active torsions:
REMARK  status: ('A' for Active; 'I' for Inactive)
REMARK    1  A    between atoms: C_1  and  C_2
REMARK    2  A    between atoms: C_2  and  C_3
REMARK    3  A    between atoms: C_8  and  C_10
REMARK    4  A    between atoms: C_10  and  S_11
REMARK    5  A    between atoms: S_11  and  C_12
REMARK    6  A    between atoms: C_15  and  C_16
REMARK    7  A    between atoms: C_21  and  O_22
REMARK                            x       y       z     vdW  Elec       q    Type
REMARK                         _______ _______ _______ _____ _____    ______ ____
ROOT
ATOM      1  C   UNL     1       6.313   5.749  18.093  0.00  0.00    +0.000 A 
ATOM      2  N   UNL     1       6.956   4.674  18.543  0.00  0.00    +0.000 NA
ATOM      3  N   UNL     1       5.950   3.966  19.067  0.00  0.00    +0.000 N 
ATOM      4  C   UNL     1       4.743   4.595  18.923  0.00  0.00    +0.000 A 
ATOM      5  N   UNL     1       4.956   5.745  18.298  0.00  0.00    +0.000 NA
ATOM      6  H   UNL     1       6.120   3.063  19.498  0.00  0.00    +0.000 HD
ENDROOT
BRANCH   4   7
ATOM      7  C   UNL     1       3.480   4.009  19.389  0.00  0.00    +0.000 A 
ATOM      8  C   UNL     1       2.620   4.762  20.199  0.00  0.00    +0.000 A 
ATOM      9  C   UNL     1       1.397   4.237  20.632  0.00  0.00    +0.000 A 
ATOM     10  C   UNL     1       1.016   2.948  20.263  0.00  0.00    +0.000 A 
ATOM     11  C   UNL     1       1.858   2.174  19.469  0.00  0.00    +0.000 A 
ATOM     12  C   UNL     1       3.080   2.703  19.040  0.00  0.00    +0.000 A 
BRANCH  12  13
ATOM     13  O   UNL     1       3.897   1.919  18.258  0.00  0.00    +0.000 OA
ATOM     14  H   UNL     1       3.576   1.000  18.303  0.00  0.00    +0.000 HD
ENDBRANCH  12  13
ENDBRANCH   4   7
BRANCH   1  15
ATOM     15  S   UNL     1       7.213   6.996  17.284  0.00  0.00    +0.000 S 
BRANCH  15  16
ATOM     16  C   UNL     1       8.252   7.632  18.615  0.00  0.00    +0.000 C 
BRANCH  16  22
ATOM     17  C   UNL     1      10.009  13.358  19.252  0.00  0.00    +0.000 A 
ATOM     18  N   UNL     1      10.771  12.820  20.181  0.00  0.00    +0.000 NA
ATOM     19  N   UNL     1      10.558  11.457  20.298  0.00  0.00    +0.000 NA
ATOM     20  C   UNL     1       9.678  11.015  19.426  0.00  0.00    +0.000 A 
ATOM     21  N   UNL     1       9.315   9.692  19.348  0.00  0.00    +0.000 N 
ATOM     22  C   UNL     1       8.528   9.111  18.372  0.00  0.00    +0.000 C 
ATOM     23  O   UNL     1       8.108   9.661  17.358  0.00  0.00    +0.000 OA
ATOM     24  S   UNL     1       8.983  12.232  18.458  0.00  0.00    +0.000 S 
ATOM     25  H   UNL     1       9.704   9.117  20.083  0.00  0.00    +0.000 HD
BRANCH  17  27
ATOM     26  C   UNL     1       8.576  15.314  18.665  0.00  0.00    +0.000 C 
ATOM     27  C   UNL     1       9.992  14.805  18.886  0.00  0.00    +0.000 C 
ENDBRANCH  17  27
ENDBRANCH  16  22
ENDBRANCH  15  16
ENDBRANCH   1  15
TORSDOF 6
ENDMDL
MODEL 8
REMARK VINA RESULT:      -7.2      3.690      7.134
REMARK  Name = 
REMARK  7 active torsions:
REMARK  status: ('A' for Active; 'I' for Inactive)
REMARK    1  A    between atoms: C_1  and  C_2
REMARK    2  A    between atoms: C_2  and  C_3
REMARK    3  A    between atoms: C_8  and  C_10
REMARK    4  A    between atoms: C_10  and  S_11
REMARK    5  A    between atoms: S_11  and  C_12
REMARK    6  A    between atoms: C_15  and  C_16
REMARK    7  A    between atoms: C_21  and  O_22
REMARK                            x       y       z     vdW  Elec       q    Type
REMARK                         _______ _______ _______ _____ _____    ______ ____
ROOT
ATOM      1  C   UNL     1       3.970   4.163  17.519  0.00  0.00    +0.000 A 
ATOM      2  N   UNL     1       5.143   3.993  18.126  0.00  0.00    +0.000 NA
ATOM      3  N   UNL     1       5.981   3.991  17.085  0.00  0.00    +0.000 N 
ATOM      4  C   UNL     1       5.328   4.166  15.894  0.00  0.00    +0.000 A 
ATOM      5  N   UNL     1       4.033   4.278  16.153  0.00  0.00    +0.000 NA
ATOM      6  H   UNL     1       6.980   3.883  17.224  0.00  0.00    +0.000 HD
ENDROOT
BRANCH   4   7
ATOM      7  C   UNL     1       6.029   4.230  14.605  0.00  0.00    +0.000 A 
ATOM      8  C   UNL     1       5.566   3.469  13.523  0.00  0.00    +0.000 A 
ATOM      9  C   UNL     1       6.198   3.536  12.276  0.00  0.00    +0.000 A 
ATOM     10  C   UNL     1       7.307   4.361  12.093  0.00  0.00    +0.000 A 
ATOM     11  C   UNL     1       7.794   5.117  13.157  0.00  0.00    +0.000 A 
ATOM     12  C   UNL     1       7.160   5.046  14.402  0.00  0.00    +0.000 A 
BRANCH  12  13
ATOM     13  O   UNL     1       7.661   5.800  15.437  0.00  0.00    +0.000 OA
ATOM     14  H   UNL     1       8.253   5.237  15.969  0.00  0.00    +0.000 HD
ENDBRANCH  12  13
ENDBRANCH   4   7
BRANCH   1  15
ATOM     15  S   UNL     1       2.525   4.256  18.480  0.00  0.00    +0.000 S 
BRANCH  15  16
ATOM     16  C   UNL     1       3.062   5.280  19.865  0.00  0.00    +0.000 C 
BRANCH  16  22
ATOM     17  C   UNL     1       0.366  10.579  20.835  0.00  0.00    +0.000 A 
ATOM     18  N   UNL     1       0.572  10.237  22.089  0.00  0.00    +0.000 NA
ATOM     19  N   UNL     1       1.174   8.995  22.193  0.00  0.00    +0.000 NA
ATOM     20  C   UNL     1       1.437   8.469  21.016  0.00  0.00    +0.000 A 
ATOM     21  N   UNL     1       2.044   7.245  20.872  0.00  0.00    +0.000 N 
ATOM     22  C   UNL     1       2.501   6.687  19.694  0.00  0.00    +0.000 C 
ATOM     23  O   UNL     1       2.533   7.238  18.597  0.00  0.00    +0.000 OA
ATOM     24  S   UNL     1       0.898   9.406  19.699  0.00  0.00    +0.000 S 
ATOM     25  H   UNL     1       2.171   6.747  21.743  0.00  0.00    +0.000 HD
BRANCH  17  27
ATOM     26  C   UNL     1      -0.049  12.098  18.899  0.00  0.00    +0.000 C 
ATOM     27  C   UNL     1      -0.271  11.852  20.384  0.00  0.00    +0.000 C 
ENDBRANCH  17  27
ENDBRANCH  16  22
ENDBRANCH  15  16
ENDBRANCH   1  15
TORSDOF 6
ENDMDL
MODEL 9
REMARK VINA RESULT:      -7.2      3.897      6.225
REMARK  Name = 
REMARK  7 active torsions:
REMARK  status: ('A' for Active; 'I' for Inactive)
REMARK    1  A    between atoms: C_1  and  C_2
REMARK    2  A    between atoms: C_2  and  C_3
REMARK    3  A    between atoms: C_8  and  C_10
REMARK    4  A    between atoms: C_10  and  S_11
REMARK    5  A    between atoms: S_11  and  C_12
REMARK    6  A    between atoms: C_15  and  C_16
REMARK    7  A    between atoms: C_21  and  O_22
REMARK                            x       y       z     vdW  Elec       q    Type
REMARK                         _______ _______ _______ _____ _____    ______ ____
ROOT
ATOM      1  C   UNL     1       6.298   5.664  18.043  0.00  0.00    +0.000 A 
ATOM      2  N   UNL     1       6.876   4.525  18.419  0.00  0.00    +0.000 NA
ATOM      3  N   UNL     1       5.840   3.868  18.952  0.00  0.00    +0.000 N 
ATOM      4  C   UNL     1       4.679   4.590  18.885  0.00  0.00    +0.000 A 
ATOM      5  N   UNL     1       4.953   5.749  18.303  0.00  0.00    +0.000 NA
ATOM      6  H   UNL     1       5.959   2.937  19.336  0.00  0.00    +0.000 HD
ENDROOT
BRANCH   4   7
ATOM      7  C   UNL     1       3.394   4.076  19.377  0.00  0.00    +0.000 A 
ATOM      8  C   UNL     1       3.028   2.750  19.111  0.00  0.00    +0.000 A 
ATOM      9  C   UNL     1       1.822   2.227  19.594  0.00  0.00    +0.000 A 
ATOM     10  C   UNL     1       0.963   3.024  20.349  0.00  0.00    +0.000 A 
ATOM     11  C   UNL     1       1.299   4.349  20.617  0.00  0.00    +0.000 A 
ATOM     12  C   UNL     1       2.504   4.868  20.131  0.00  0.00    +0.000 A 
BRANCH  12  13
ATOM     13  O   UNL     1       2.813   6.179  20.406  0.00  0.00    +0.000 OA
ATOM     14  H   UNL     1       1.986   6.657  20.597  0.00  0.00    +0.000 HD
ENDBRANCH  12  13
ENDBRANCH   4   7
BRANCH   1  15
ATOM     15  S   UNL     1       7.258   6.878  17.252  0.00  0.00    +0.000 S 
BRANCH  15  16
ATOM     16  C   UNL     1       8.200   7.566  18.628  0.00  0.00    +0.000 C 
BRANCH  16  22
ATOM     17  C   UNL     1      10.045  13.279  19.115  0.00  0.00    +0.000 A 
ATOM     18  N   UNL     1      10.801  12.753  20.055  0.00  0.00    +0.000 NA
ATOM     19  N   UNL     1      10.567  11.398  20.208  0.00  0.00    +0.000 NA
ATOM     20  C   UNL     1       9.678  10.947  19.349  0.00  0.00    +0.000 A 
ATOM     21  N   UNL     1       9.295   9.628  19.306  0.00  0.00    +0.000 N 
ATOM     22  C   UNL     1       8.498   9.034  18.347  0.00  0.00    +0.000 C 
ATOM     23  O   UNL     1       8.084   9.564  17.320  0.00  0.00    +0.000 OA
ATOM     24  S   UNL     1       9.001  12.149  18.351  0.00  0.00    +0.000 S 
ATOM     25  H   UNL     1       9.678   9.066  20.055  0.00  0.00    +0.000 HD
BRANCH  17  27
ATOM     26  C   UNL     1      10.894  15.564  19.650  0.00  0.00    +0.000 C 
ATOM     27  C   UNL     1      10.050  14.717  18.711  0.00  0.00    +0.000 C 
ENDBRANCH  17  27
ENDBRANCH  16  22
ENDBRANCH  15  16
ENDBRANCH   1  15
TORSDOF 6
ENDMDL
