MODEL 1
REMARK VINA RESULT:      -8.1      0.000      0.000
REMARK  Name = 
REMARK  6 active torsions:
REMARK  status: ('A' for Active; 'I' for Inactive)
REMARK    1  A    between atoms: C_2  and  C_3
REMARK    2  A    between atoms: C_3  and  C_4
REMARK    3  A    between atoms: C_4  and  C_5
REMARK    4  A    between atoms: C_14  and  O_15
REMARK    5  A    between atoms: C_14  and  C_16
REMARK    6  A    between atoms: C_16  and  N_17
REMARK                            x       y       z     vdW  Elec       q    Type
REMARK                         _______ _______ _______ _____ _____    ______ ____
ROOT
ATOM      1  O   UNL     1      -2.583  12.446  22.351  0.00  0.00    +0.000 OA
ATOM      2  C   UNL     1      -1.752  12.231  21.470  0.00  0.00    +0.000 C 
ATOM      3  N   UNL     1      -0.652  11.396  21.680  0.00  0.00    +0.000 N 
ATOM      4  C   UNL     1      -0.493  10.683  22.943  0.00  0.00    +0.000 C 
ATOM      5  C   UNL     1      -0.374   9.164  22.675  0.00  0.00    +0.000 C 
ATOM      6  C   UNL     1       0.759   8.819  21.663  0.00  0.00    +0.000 C 
ATOM      7  C   UNL     1       0.650   9.738  20.432  0.00  0.00    +0.000 C 
ATOM      8  C   UNL     1       0.475  11.212  20.778  0.00  0.00    +0.000 C 
ENDROOT
BRANCH   6   9
ATOM      9  O   UNL     1       2.010   9.078  22.310  0.00  0.00    +0.000 OA
ATOM     10  H   UNL     1       1.835   9.477  23.183  0.00  0.00    +0.000 HD
ENDBRANCH   6   9
BRANCH   2  11
ATOM     11  C   UNL     1      -1.960  12.777  20.056  0.00  0.00    +0.000 C 
BRANCH  11  12
ATOM     12  C   UNL     1      -3.303  12.357  19.457  0.00  0.00    +0.000 C 
BRANCH  12  13
ATOM     13  C   UNL     1      -3.142  11.519  18.204  0.00  0.00    +0.000 A 
ATOM     14  C   UNL     1      -4.104  11.571  17.186  0.00  0.00    +0.000 A 
ATOM     15  C   UNL     1      -3.969  10.787  16.036  0.00  0.00    +0.000 A 
ATOM     16  C   UNL     1      -2.872   9.940  15.891  0.00  0.00    +0.000 A 
ATOM     17  C   UNL     1      -1.906   9.882  16.894  0.00  0.00    +0.000 A 
ATOM     18  C   UNL     1      -2.040  10.666  18.044  0.00  0.00    +0.000 A 
ENDBRANCH  12  13
ENDBRANCH  11  12
ENDBRANCH   2  11
BRANCH   6  19
ATOM     19  C   UNL     1       0.730   7.314  21.189  0.00  0.00    +0.000 C 
BRANCH  19  20
ATOM     20  N   UNL     1       1.800   6.948  20.217  0.00  0.00    +0.000 N 
ATOM     21  C   UNL     1       2.091   7.815  19.190  0.00  0.00    +0.000 A 
ATOM     22  N   UNL     1       2.703   7.528  18.091  0.00  0.00    +0.000 NA
ATOM     23  C   UNL     1       3.426   6.325  18.066  0.00  0.00    +0.000 A 
ATOM     24  C   UNL     1       4.394   6.213  17.060  0.00  0.00    +0.000 A 
ATOM     25  C   UNL     1       5.631   5.680  17.391  0.00  0.00    +0.000 A 
ATOM     26 BR   UNL     1       7.031   5.726  16.121  0.00  0.00    +0.000 Br
ATOM     27  C   UNL     1       5.873   5.244  18.696  0.00  0.00    +0.000 A 
ATOM     28  C   UNL     1       4.812   5.147  19.616  0.00  0.00    +0.000 A 
ATOM     29  C   UNL     1       3.548   5.600  19.252  0.00  0.00    +0.000 A 
ATOM     30  C   UNL     1       2.389   5.678  20.206  0.00  0.00    +0.000 A 
ATOM     31  O   UNL     1       2.040   4.729  20.863  0.00  0.00    +0.000 OA
ENDBRANCH  19  20
ENDBRANCH   6  19
TORSDOF 6
ENDMDL
MODEL 2
REMARK VINA RESULT:      -8.0      4.163      9.314
REMARK  Name = 
REMARK  6 active torsions:
REMARK  status: ('A' for Active; 'I' for Inactive)
REMARK    1  A    between atoms: C_2  and  C_3
REMARK    2  A    between atoms: C_3  and  C_4
REMARK    3  A    between atoms: C_4  and  C_5
REMARK    4  A    between atoms: C_14  and  O_15
REMARK    5  A    between atoms: C_14  and  C_16
REMARK    6  A    between atoms: C_16  and  N_17
REMARK                            x       y       z     vdW  Elec       q    Type
REMARK                         _______ _______ _______ _____ _____    ______ ____
ROOT
ATOM      1  O   UNL     1       7.512   6.109  16.209  0.00  0.00    +0.000 OA
ATOM      2  C   UNL     1       6.674   5.304  15.803  0.00  0.00    +0.000 C 
ATOM      3  N   UNL     1       6.047   4.396  16.661  0.00  0.00    +0.000 N 
ATOM      4  C   UNL     1       6.314   4.424  18.095  0.00  0.00    +0.000 C 
ATOM      5  C   UNL     1       4.986   4.595  18.871  0.00  0.00    +0.000 C 
ATOM      6  C   UNL     1       3.928   3.514  18.495  0.00  0.00    +0.000 C 
ATOM      7  C   UNL     1       3.830   3.398  16.962  0.00  0.00    +0.000 C 
ATOM      8  C   UNL     1       5.182   3.294  16.266  0.00  0.00    +0.000 C 
ENDROOT
BRANCH   6   9
ATOM      9  O   UNL     1       4.386   2.261  19.015  0.00  0.00    +0.000 OA
ATOM     10  H   UNL     1       4.998   2.433  19.756  0.00  0.00    +0.000 HD
ENDBRANCH   6   9
BRANCH   2  11
ATOM     11  C   UNL     1       6.190   5.349  14.352  0.00  0.00    +0.000 C 
BRANCH  11  12
ATOM     12  C   UNL     1       7.199   4.736  13.379  0.00  0.00    +0.000 C 
BRANCH  12  13
ATOM     13  C   UNL     1       6.579   3.673  12.495  0.00  0.00    +0.000 A 
ATOM     14  C   UNL     1       5.193   3.639  12.290  0.00  0.00    +0.000 A 
ATOM     15  C   UNL     1       4.614   2.649  11.489  0.00  0.00    +0.000 A 
ATOM     16  C   UNL     1       5.414   1.682  10.884  0.00  0.00    +0.000 A 
ATOM     17  C   UNL     1       6.794   1.707  11.076  0.00  0.00    +0.000 A 
ATOM     18  C   UNL     1       7.374   2.696  11.877  0.00  0.00    +0.000 A 
ENDBRANCH  12  13
ENDBRANCH  11  12
ENDBRANCH   2  11
BRANCH   6  19
ATOM     19  C   UNL     1       2.495   3.819  19.082  0.00  0.00    +0.000 C 
BRANCH  19  20
ATOM     20  N   UNL     1       2.181   5.270  19.232  0.00  0.00    +0.000 N 
ATOM     21  C   UNL     1       2.128   6.059  18.108  0.00  0.00    +0.000 A 
ATOM     22  N   UNL     1       2.224   7.344  18.065  0.00  0.00    +0.000 NA
ATOM     23  C   UNL     1       2.037   8.033  19.274  0.00  0.00    +0.000 A 
ATOM     24  C   UNL     1       1.739   9.396  19.163  0.00  0.00    +0.000 A 
ATOM     25  C   UNL     1       0.743   9.923  19.973  0.00  0.00    +0.000 A 
ATOM     26 BR   UNL     1       0.158  11.698  19.690  0.00  0.00    +0.000 Br
ATOM     27  C   UNL     1       0.087   9.099  20.891  0.00  0.00    +0.000 A 
ATOM     28  C   UNL     1       0.570   7.802  21.147  0.00  0.00    +0.000 A 
ATOM     29  C   UNL     1       1.630   7.307  20.394  0.00  0.00    +0.000 A 
ATOM     30  C   UNL     1       2.120   5.889  20.487  0.00  0.00    +0.000 A 
ATOM     31  O   UNL     1       2.420   5.386  21.541  0.00  0.00    +0.000 OA
ENDBRANCH  19  20
ENDBRANCH   6  19
TORSDOF 6
ENDMDL
MODEL 3
REMARK VINA RESULT:      -7.9      4.132      9.102
REMARK  Name = 
REMARK  6 active torsions:
REMARK  status: ('A' for Active; 'I' for Inactive)
REMARK    1  A    between atoms: C_2  and  C_3
REMARK    2  A    between atoms: C_3  and  C_4
REMARK    3  A    between atoms: C_4  and  C_5
REMARK    4  A    between atoms: C_14  and  O_15
REMARK    5  A    between atoms: C_14  and  C_16
REMARK    6  A    between atoms: C_16  and  N_17
REMARK                            x       y       z     vdW  Elec       q    Type
REMARK                         _______ _______ _______ _____ _____    ______ ____
ROOT
ATOM      1  O   UNL     1       7.632   6.519  16.340  0.00  0.00    +0.000 OA
ATOM      2  C   UNL     1       6.831   5.616  16.101  0.00  0.00    +0.000 C 
ATOM      3  N   UNL     1       6.340   4.780  17.108  0.00  0.00    +0.000 N 
ATOM      4  C   UNL     1       6.707   5.003  18.502  0.00  0.00    +0.000 C 
ATOM      5  C   UNL     1       5.430   5.178  19.358  0.00  0.00    +0.000 C 
ATOM      6  C   UNL     1       4.433   3.990  19.199  0.00  0.00    +0.000 C 
ATOM      7  C   UNL     1       4.234   3.679  17.703  0.00  0.00    +0.000 C 
ATOM      8  C   UNL     1       5.535   3.582  16.917  0.00  0.00    +0.000 C 
ENDROOT
BRANCH   6   9
ATOM      9  O   UNL     1       5.023   2.844  19.824  0.00  0.00    +0.000 OA
ATOM     10  H   UNL     1       4.315   2.311  20.233  0.00  0.00    +0.000 HD
ENDBRANCH   6   9
BRANCH   2  11
ATOM     11  C   UNL     1       6.242   5.449  14.699  0.00  0.00    +0.000 C 
BRANCH  11  12
ATOM     12  C   UNL     1       7.156   4.646  13.772  0.00  0.00    +0.000 C 
BRANCH  12  13
ATOM     13  C   UNL     1       6.379   3.782  12.799  0.00  0.00    +0.000 A 
ATOM     14  C   UNL     1       7.031   2.792  12.051  0.00  0.00    +0.000 A 
ATOM     15  C   UNL     1       6.322   2.004  11.139  0.00  0.00    +0.000 A 
ATOM     16  C   UNL     1       4.953   2.196  10.964  0.00  0.00    +0.000 A 
ATOM     17  C   UNL     1       4.291   3.173  11.705  0.00  0.00    +0.000 A 
ATOM     18  C   UNL     1       5.000   3.962  12.617  0.00  0.00    +0.000 A 
ENDBRANCH  12  13
ENDBRANCH  11  12
ENDBRANCH   2  11
BRANCH   6  19
ATOM     19  C   UNL     1       3.028   4.268  19.861  0.00  0.00    +0.000 C 
BRANCH  19  20
ATOM     20  N   UNL     1       2.544   5.673  19.726  0.00  0.00    +0.000 N 
ATOM     21  C   UNL     1       2.374   6.429  20.862  0.00  0.00    +0.000 A 
ATOM     22  N   UNL     1       1.654   7.494  20.975  0.00  0.00    +0.000 NA
ATOM     23  C   UNL     1       1.277   8.132  19.783  0.00  0.00    +0.000 A 
ATOM     24  C   UNL     1       0.865   9.465  19.905  0.00  0.00    +0.000 A 
ATOM     25  C   UNL     1       1.320  10.385  18.971  0.00  0.00    +0.000 A 
ATOM     26 BR   UNL     1       0.974  12.224  19.236  0.00  0.00    +0.000 Br
ATOM     27  C   UNL     1       2.145   9.962  17.925  0.00  0.00    +0.000 A 
ATOM     28  C   UNL     1       2.343   8.589  17.693  0.00  0.00    +0.000 A 
ATOM     29  C   UNL     1       1.809   7.661  18.582  0.00  0.00    +0.000 A 
ATOM     30  C   UNL     1       2.087   6.186  18.506  0.00  0.00    +0.000 A 
ATOM     31  O   UNL     1       1.917   5.556  17.492  0.00  0.00    +0.000 OA
ENDBRANCH  19  20
ENDBRANCH   6  19
TORSDOF 6
ENDMDL
MODEL 4
REMARK VINA RESULT:      -7.7      4.611      8.989
REMARK  Name = 
REMARK  6 active torsions:
REMARK  status: ('A' for Active; 'I' for Inactive)
REMARK    1  A    between atoms: C_2  and  C_3
REMARK    2  A    between atoms: C_3  and  C_4
REMARK    3  A    between atoms: C_4  and  C_5
REMARK    4  A    between atoms: C_14  and  O_15
REMARK    5  A    between atoms: C_14  and  C_16
REMARK    6  A    between atoms: C_16  and  N_17
REMARK                            x       y       z     vdW  Elec       q    Type
REMARK                         _______ _______ _______ _____ _____    ______ ____
ROOT
ATOM      1  O   UNL     1       8.698   6.708  19.115  0.00  0.00    +0.000 OA
ATOM      2  C   UNL     1       7.951   7.144  18.240  0.00  0.00    +0.000 C 
ATOM      3  N   UNL     1       7.036   6.325  17.575  0.00  0.00    +0.000 N 
ATOM      4  C   UNL     1       6.881   4.924  17.954  0.00  0.00    +0.000 C 
ATOM      5  C   UNL     1       5.404   4.641  18.318  0.00  0.00    +0.000 C 
ATOM      6  C   UNL     1       4.417   5.051  17.184  0.00  0.00    +0.000 C 
ATOM      7  C   UNL     1       4.754   6.471  16.694  0.00  0.00    +0.000 C 
ATOM      8  C   UNL     1       6.236   6.690  16.415  0.00  0.00    +0.000 C 
ENDROOT
BRANCH   6   9
ATOM      9  O   UNL     1       4.607   4.140  16.095  0.00  0.00    +0.000 OA
ATOM     10  H   UNL     1       5.544   4.170  15.820  0.00  0.00    +0.000 HD
ENDBRANCH   6   9
BRANCH   2  11
ATOM     11  C   UNL     1       7.909   8.641  17.929  0.00  0.00    +0.000 C 
BRANCH  11  12
ATOM     12  C   UNL     1       8.674   9.475  18.959  0.00  0.00    +0.000 C 
BRANCH  12  13
ATOM     13  C   UNL     1       9.221  10.761  18.373  0.00  0.00    +0.000 A 
ATOM     14  C   UNL     1       8.352  11.779  17.958  0.00  0.00    +0.000 A 
ATOM     15  C   UNL     1       8.852  12.960  17.400  0.00  0.00    +0.000 A 
ATOM     16  C   UNL     1      10.226  13.137  17.250  0.00  0.00    +0.000 A 
ATOM     17  C   UNL     1      11.101  12.134  17.663  0.00  0.00    +0.000 A 
ATOM     18  C   UNL     1      10.603  10.953  18.221  0.00  0.00    +0.000 A 
ENDBRANCH  12  13
ENDBRANCH  11  12
ENDBRANCH   2  11
BRANCH   6  19
ATOM     19  C   UNL     1       2.905   5.004  17.632  0.00  0.00    +0.000 C 
BRANCH  19  20
ATOM     20  N   UNL     1       2.411   6.252  18.283  0.00  0.00    +0.000 N 
ATOM     21  C   UNL     1       1.991   7.294  17.490  0.00  0.00    +0.000 A 
ATOM     22  N   UNL     1       1.876   8.530  17.843  0.00  0.00    +0.000 NA
ATOM     23  C   UNL     1       1.854   8.795  19.221  0.00  0.00    +0.000 A 
ATOM     24  C   UNL     1       1.332  10.038  19.597  0.00  0.00    +0.000 A 
ATOM     25  C   UNL     1       0.467  10.090  20.682  0.00  0.00    +0.000 A 
ATOM     26 BR   UNL     1      -0.432  11.706  21.074  0.00  0.00    +0.000 Br
ATOM     27  C   UNL     1       0.164   8.922  21.385  0.00  0.00    +0.000 A 
ATOM     28  C   UNL     1       0.885   7.740  21.135  0.00  0.00    +0.000 A 
ATOM     29  C   UNL     1       1.818   7.714  20.103  0.00  0.00    +0.000 A 
ATOM     30  C   UNL     1       2.530   6.466  19.661  0.00  0.00    +0.000 A 
ATOM     31  O   UNL     1       3.127   5.764  20.439  0.00  0.00    +0.000 OA
ENDBRANCH  19  20
ENDBRANCH   6  19
TORSDOF 6
ENDMDL
MODEL 5
REMARK VINA RESULT:      -7.6      4.522      8.947
REMARK  Name = 
REMARK  6 active torsions:
REMARK  status: ('A' for Active; 'I' for Inactive)
REMARK    1  A    between atoms: C_2  and  C_3
REMARK    2  A    between atoms: C_3  and  C_4
REMARK    3  A    between atoms: C_4  and  C_5
REMARK    4  A    between atoms: C_14  and  O_15
REMARK    5  A    between atoms: C_14  and  C_16
REMARK    6  A    between atoms: C_16  and  N_17
REMARK                            x       y       z     vdW  Elec       q    Type
REMARK                         _______ _______ _______ _____ _____    ______ ____
ROOT
ATOM      1  O   UNL     1       8.574   6.375  19.006  0.00  0.00    +0.000 OA
ATOM      2  C   UNL     1       7.771   6.925  18.254  0.00  0.00    +0.000 C 
ATOM      3  N   UNL     1       6.589   6.300  17.850  0.00  0.00    +0.000 N 
ATOM      4  C   UNL     1       6.227   4.987  18.374  0.00  0.00    +0.000 C 
ATOM      5  C   UNL     1       4.830   5.054  19.034  0.00  0.00    +0.000 C 
ATOM      6  C   UNL     1       3.739   5.620  18.077  0.00  0.00    +0.000 C 
ATOM      7  C   UNL     1       4.257   6.908  17.408  0.00  0.00    +0.000 C 
ATOM      8  C   UNL     1       5.663   6.780  16.834  0.00  0.00    +0.000 C 
ENDROOT
BRANCH   6   9
ATOM      9  O   UNL     1       3.509   4.642  17.056  0.00  0.00    +0.000 OA
ATOM     10  H   UNL     1       4.356   4.203  16.846  0.00  0.00    +0.000 HD
ENDBRANCH   6   9
BRANCH   2  11
ATOM     11  C   UNL     1       7.978   8.379  17.825  0.00  0.00    +0.000 C 
BRANCH  11  12
ATOM     12  C   UNL     1       8.818   9.172  18.829  0.00  0.00    +0.000 C 
BRANCH  12  13
ATOM     13  C   UNL     1       9.100  10.585  18.361  0.00  0.00    +0.000 A 
ATOM     14  C   UNL     1      10.375  11.145  18.519  0.00  0.00    +0.000 A 
ATOM     15  C   UNL     1      10.635  12.455  18.105  0.00  0.00    +0.000 A 
ATOM     16  C   UNL     1       9.624  13.221  17.527  0.00  0.00    +0.000 A 
ATOM     17  C   UNL     1       8.353  12.675  17.360  0.00  0.00    +0.000 A 
ATOM     18  C   UNL     1       8.092  11.365  17.774  0.00  0.00    +0.000 A 
ENDBRANCH  12  13
ENDBRANCH  11  12
ENDBRANCH   2  11
BRANCH   6  19
ATOM     19  C   UNL     1       2.374   5.929  18.806  0.00  0.00    +0.000 C 
BRANCH  19  20
ATOM     20  N   UNL     1       1.996   7.372  18.831  0.00  0.00    +0.000 N 
ATOM     21  C   UNL     1       2.105   8.108  17.675  0.00  0.00    +0.000 A 
ATOM     22  N   UNL     1       2.168   9.394  17.585  0.00  0.00    +0.000 NA
ATOM     23  C   UNL     1       1.764  10.127  18.712  0.00  0.00    +0.000 A 
ATOM     24  C   UNL     1       1.447  11.472  18.486  0.00  0.00    +0.000 A 
ATOM     25  C   UNL     1       0.315  11.995  19.096  0.00  0.00    +0.000 A 
ATOM     26 BR   UNL     1      -0.268  13.733  18.633  0.00  0.00    +0.000 Br
ATOM     27  C   UNL     1      -0.457  11.189  19.935  0.00  0.00    +0.000 A 
ATOM     28  C   UNL     1       0.016   9.923  20.330  0.00  0.00    +0.000 A 
ATOM     29  C   UNL     1       1.200   9.436  19.785  0.00  0.00    +0.000 A 
ATOM     30  C   UNL     1       1.711   8.043  20.027  0.00  0.00    +0.000 A 
ATOM     31  O   UNL     1       1.848   7.599  21.139  0.00  0.00    +0.000 OA
ENDBRANCH  19  20
ENDBRANCH   6  19
TORSDOF 6
ENDMDL
MODEL 6
REMARK VINA RESULT:      -7.6      5.536      7.435
REMARK  Name = 
REMARK  6 active torsions:
REMARK  status: ('A' for Active; 'I' for Inactive)
REMARK    1  A    between atoms: C_2  and  C_3
REMARK    2  A    between atoms: C_3  and  C_4
REMARK    3  A    between atoms: C_4  and  C_5
REMARK    4  A    between atoms: C_14  and  O_15
REMARK    5  A    between atoms: C_14  and  C_16
REMARK    6  A    between atoms: C_16  and  N_17
REMARK                            x       y       z     vdW  Elec       q    Type
REMARK                         _______ _______ _______ _____ _____    ______ ____
ROOT
ATOM      1  O   UNL     1      -6.863  10.975  20.858  0.00  0.00    +0.000 OA
ATOM      2  C   UNL     1      -6.423  12.095  20.603  0.00  0.00    +0.000 C 
ATOM      3  N   UNL     1      -6.146  13.026  21.607  0.00  0.00    +0.000 N 
ATOM      4  C   UNL     1      -6.300  12.668  23.013  0.00  0.00    +0.000 C 
ATOM      5  C   UNL     1      -4.968  12.907  23.762  0.00  0.00    +0.000 C 
ATOM      6  C   UNL     1      -4.430  14.358  23.585  0.00  0.00    +0.000 C 
ATOM      7  C   UNL     1      -4.471  14.746  22.095  0.00  0.00    +0.000 C 
ATOM      8  C   UNL     1      -5.796  14.426  21.413  0.00  0.00    +0.000 C 
ENDROOT
BRANCH   6   9
ATOM      9  O   UNL     1      -5.305  15.235  24.304  0.00  0.00    +0.000 OA
ATOM     10  H   UNL     1      -4.921  16.132  24.304  0.00  0.00    +0.000 HD
ENDBRANCH   6   9
BRANCH   2  11
ATOM     11  C   UNL     1      -6.042  12.474  19.170  0.00  0.00    +0.000 C 
BRANCH  11  12
ATOM     12  C   UNL     1      -5.553  11.273  18.358  0.00  0.00    +0.000 C 
BRANCH  12  13
ATOM     13  C   UNL     1      -4.042  11.162  18.340  0.00  0.00    +0.000 A 
ATOM     14  C   UNL     1      -3.410  10.192  17.550  0.00  0.00    +0.000 A 
ATOM     15  C   UNL     1      -2.017  10.074  17.544  0.00  0.00    +0.000 A 
ATOM     16  C   UNL     1      -1.238  10.924  18.328  0.00  0.00    +0.000 A 
ATOM     17  C   UNL     1      -1.854  11.895  19.115  0.00  0.00    +0.000 A 
ATOM     18  C   UNL     1      -3.247  12.014  19.122  0.00  0.00    +0.000 A 
ENDBRANCH  12  13
ENDBRANCH  11  12
ENDBRANCH   2  11
BRANCH   6  19
ATOM     19  C   UNL     1      -2.959  14.545  24.127  0.00  0.00    +0.000 C 
BRANCH  19  20
ATOM     20  N   UNL     1      -1.889  14.294  23.118  0.00  0.00    +0.000 N 
ATOM     21  C   UNL     1      -1.433  13.010  22.937  0.00  0.00    +0.000 A 
ATOM     22  N   UNL     1      -0.315  12.660  22.398  0.00  0.00    +0.000 NA
ATOM     23  C   UNL     1       0.350  13.633  21.634  0.00  0.00    +0.000 A 
ATOM     24  C   UNL     1       1.316  13.154  20.740  0.00  0.00    +0.000 A 
ATOM     25  C   UNL     1       1.357  13.694  19.462  0.00  0.00    +0.000 A 
ATOM     26 BR   UNL     1       2.489  12.916  18.163  0.00  0.00    +0.000 Br
ATOM     27  C   UNL     1       0.466  14.710  19.108  0.00  0.00    +0.000 A 
ATOM     28  C   UNL     1      -0.323  15.332  20.094  0.00  0.00    +0.000 A 
ATOM     29  C   UNL     1      -0.296  14.846  21.397  0.00  0.00    +0.000 A 
ATOM     30  C   UNL     1      -1.209  15.341  22.485  0.00  0.00    +0.000 A 
ATOM     31  O   UNL     1      -1.307  16.513  22.749  0.00  0.00    +0.000 OA
ENDBRANCH  19  20
ENDBRANCH   6  19
TORSDOF 6
ENDMDL
MODEL 7
REMARK VINA RESULT:      -7.4      4.572      8.972
REMARK  Name = 
REMARK  6 active torsions:
REMARK  status: ('A' for Active; 'I' for Inactive)
REMARK    1  A    between atoms: C_2  and  C_3
REMARK    2  A    between atoms: C_3  and  C_4
REMARK    3  A    between atoms: C_4  and  C_5
REMARK    4  A    between atoms: C_14  and  O_15
REMARK    5  A    between atoms: C_14  and  C_16
REMARK    6  A    between atoms: C_16  and  N_17
REMARK                            x       y       z     vdW  Elec       q    Type
REMARK                         _______ _______ _______ _____ _____    ______ ____
ROOT
ATOM      1  O   UNL     1       8.594   7.077  19.012  0.00  0.00    +0.000 OA
ATOM      2  C   UNL     1       7.804   7.422  18.134  0.00  0.00    +0.000 C 
ATOM      3  N   UNL     1       6.935   6.513  17.525  0.00  0.00    +0.000 N 
ATOM      4  C   UNL     1       6.884   5.124  17.968  0.00  0.00    +0.000 C 
ATOM      5  C   UNL     1       5.436   4.758  18.373  0.00  0.00    +0.000 C 
ATOM      6  C   UNL     1       4.404   5.048  17.243  0.00  0.00    +0.000 C 
ATOM      7  C   UNL     1       4.635   6.465  16.684  0.00  0.00    +0.000 C 
ATOM      8  C   UNL     1       6.093   6.771  16.365  0.00  0.00    +0.000 C 
ENDROOT
BRANCH   6   9
ATOM      9  O   UNL     1       4.637   4.105  16.191  0.00  0.00    +0.000 OA
ATOM     10  H   UNL     1       4.581   3.203  16.560  0.00  0.00    +0.000 HD
ENDBRANCH   6   9
BRANCH   2  11
ATOM     11  C   UNL     1       7.654   8.897  17.759  0.00  0.00    +0.000 C 
BRANCH  11  12
ATOM     12  C   UNL     1       9.003   9.598  17.588  0.00  0.00    +0.000 C 
BRANCH  12  13
ATOM     13  C   UNL     1       9.200  10.727  18.580  0.00  0.00    +0.000 A 
ATOM     14  C   UNL     1       9.331  10.455  19.948  0.00  0.00    +0.000 A 
ATOM     15  C   UNL     1       9.495  11.494  20.870  0.00  0.00    +0.000 A 
ATOM     16  C   UNL     1       9.530  12.817  20.434  0.00  0.00    +0.000 A 
ATOM     17  C   UNL     1       9.405  13.101  19.075  0.00  0.00    +0.000 A 
ATOM     18  C   UNL     1       9.241  12.063  18.153  0.00  0.00    +0.000 A 
ENDBRANCH  12  13
ENDBRANCH  11  12
ENDBRANCH   2  11
BRANCH   6  19
ATOM     19  C   UNL     1       2.906   4.920  17.723  0.00  0.00    +0.000 C 
BRANCH  19  20
ATOM     20  N   UNL     1       2.370   6.127  18.415  0.00  0.00    +0.000 N 
ATOM     21  C   UNL     1       1.962   7.201  17.660  0.00  0.00    +0.000 A 
ATOM     22  N   UNL     1       1.815   8.416  18.067  0.00  0.00    +0.000 NA
ATOM     23  C   UNL     1       1.740   8.613  19.455  0.00  0.00    +0.000 A 
ATOM     24  C   UNL     1       1.185   9.829  19.872  0.00  0.00    +0.000 A 
ATOM     25  C   UNL     1       0.282   9.816  20.926  0.00  0.00    +0.000 A 
ATOM     26 BR   UNL     1      -0.656  11.398  21.363  0.00  0.00    +0.000 Br
ATOM     27  C   UNL     1      -0.027   8.611  21.560  0.00  0.00    +0.000 A 
ATOM     28  C   UNL     1       0.722   7.452  21.280  0.00  0.00    +0.000 A 
ATOM     29  C   UNL     1       1.691   7.491  20.282  0.00  0.00    +0.000 A 
ATOM     30  C   UNL     1       2.438   6.276  19.806  0.00  0.00    +0.000 A 
ATOM     31  O   UNL     1       3.018   5.545  20.569  0.00  0.00    +0.000 OA
ENDBRANCH  19  20
ENDBRANCH   6  19
TORSDOF 6
ENDMDL
MODEL 8
REMARK VINA RESULT:      -7.4      4.195      9.275
REMARK  Name = 
REMARK  6 active torsions:
REMARK  status: ('A' for Active; 'I' for Inactive)
REMARK    1  A    between atoms: C_2  and  C_3
REMARK    2  A    between atoms: C_3  and  C_4
REMARK    3  A    between atoms: C_4  and  C_5
REMARK    4  A    between atoms: C_14  and  O_15
REMARK    5  A    between atoms: C_14  and  C_16
REMARK    6  A    between atoms: C_16  and  N_17
REMARK                            x       y       z     vdW  Elec       q    Type
REMARK                         _______ _______ _______ _____ _____    ______ ____
ROOT
ATOM      1  O   UNL     1       7.757   6.350  16.040  0.00  0.00    +0.000 OA
ATOM      2  C   UNL     1       6.971   5.411  16.161  0.00  0.00    +0.000 C 
ATOM      3  N   UNL     1       6.057   5.344  17.216  0.00  0.00    +0.000 N 
ATOM      4  C   UNL     1       5.953   6.436  18.178  0.00  0.00    +0.000 C 
ATOM      5  C   UNL     1       4.497   6.956  18.223  0.00  0.00    +0.000 C 
ATOM      6  C   UNL     1       3.464   5.826  18.509  0.00  0.00    +0.000 C 
ATOM      7  C   UNL     1       3.746   4.622  17.590  0.00  0.00    +0.000 C 
ATOM      8  C   UNL     1       5.212   4.208  17.553  0.00  0.00    +0.000 C 
ENDROOT
BRANCH   6   9
ATOM      9  O   UNL     1       3.644   5.409  19.868  0.00  0.00    +0.000 OA
ATOM     10  H   UNL     1       3.019   4.684  20.059  0.00  0.00    +0.000 HD
ENDBRANCH   6   9
BRANCH   2  11
ATOM     11  C   UNL     1       6.878   4.330  15.082  0.00  0.00    +0.000 C 
BRANCH  11  12
ATOM     12  C   UNL     1       5.974   4.741  13.918  0.00  0.00    +0.000 C 
BRANCH  12  13
ATOM     13  C   UNL     1       5.937   3.700  12.817  0.00  0.00    +0.000 A 
ATOM     14  C   UNL     1       4.720   3.335  12.226  0.00  0.00    +0.000 A 
ATOM     15  C   UNL     1       4.678   2.362  11.222  0.00  0.00    +0.000 A 
ATOM     16  C   UNL     1       5.852   1.742  10.798  0.00  0.00    +0.000 A 
ATOM     17  C   UNL     1       7.070   2.100  11.375  0.00  0.00    +0.000 A 
ATOM     18  C   UNL     1       7.112   3.072  12.379  0.00  0.00    +0.000 A 
ENDBRANCH  12  13
ENDBRANCH  11  12
ENDBRANCH   2  11
BRANCH   6  19
ATOM     19  C   UNL     1       1.968   6.289  18.310  0.00  0.00    +0.000 C 
BRANCH  19  20
ATOM     20  N   UNL     1       1.729   7.741  18.555  0.00  0.00    +0.000 N 
ATOM     21  C   UNL     1       1.883   8.625  17.513  0.00  0.00    +0.000 A 
ATOM     22  N   UNL     1       2.067   9.899  17.607  0.00  0.00    +0.000 NA
ATOM     23  C   UNL     1       1.757  10.493  18.841  0.00  0.00    +0.000 A 
ATOM     24  C   UNL     1       1.565  11.880  18.821  0.00  0.00    +0.000 A 
ATOM     25  C   UNL     1       0.501  12.409  19.538  0.00  0.00    +0.000 A 
ATOM     26 BR   UNL     1       0.076  14.242  19.350  0.00  0.00    +0.000 Br
ATOM     27  C   UNL     1      -0.327  11.562  20.278  0.00  0.00    +0.000 A 
ATOM     28  C   UNL     1       0.032  10.215  20.471  0.00  0.00    +0.000 A 
ATOM     29  C   UNL     1       1.152   9.707  19.822  0.00  0.00    +0.000 A 
ATOM     30  C   UNL     1       1.534   8.253  19.843  0.00  0.00    +0.000 A 
ATOM     31  O   UNL     1       1.651   7.640  20.875  0.00  0.00    +0.000 OA
ENDBRANCH  19  20
ENDBRANCH   6  19
TORSDOF 6
ENDMDL
MODEL 9
REMARK VINA RESULT:      -7.3      5.354      9.710
REMARK  Name = 
REMARK  6 active torsions:
REMARK  status: ('A' for Active; 'I' for Inactive)
REMARK    1  A    between atoms: C_2  and  C_3
REMARK    2  A    between atoms: C_3  and  C_4
REMARK    3  A    between atoms: C_4  and  C_5
REMARK    4  A    between atoms: C_14  and  O_15
REMARK    5  A    between atoms: C_14  and  C_16
REMARK    6  A    between atoms: C_16  and  N_17
REMARK                            x       y       z     vdW  Elec       q    Type
REMARK                         _______ _______ _______ _____ _____    ______ ____
ROOT
ATOM      1  O   UNL     1       0.453   9.448  20.313  0.00  0.00    +0.000 OA
ATOM      2  C   UNL     1      -0.038  10.564  20.147  0.00  0.00    +0.000 C 
ATOM      3  N   UNL     1      -0.720  10.904  18.976  0.00  0.00    +0.000 N 
ATOM      4  C   UNL     1      -0.941   9.911  17.931  0.00  0.00    +0.000 C 
ATOM      5  C   UNL     1      -2.454   9.793  17.631  0.00  0.00    +0.000 C 
ATOM      6  C   UNL     1      -3.106  11.164  17.280  0.00  0.00    +0.000 C 
ATOM      7  C   UNL     1      -2.680  12.220  18.318  0.00  0.00    +0.000 C 
ATOM      8  C   UNL     1      -1.183  12.233  18.603  0.00  0.00    +0.000 C 
ENDROOT
BRANCH   6   9
ATOM      9  O   UNL     1      -2.607  11.565  15.999  0.00  0.00    +0.000 OA
ATOM     10  H   UNL     1      -1.647  11.386  15.966  0.00  0.00    +0.000 HD
ENDBRANCH   6   9
BRANCH   2  11
ATOM     11  C   UNL     1      -0.028  11.594  21.279  0.00  0.00    +0.000 C 
BRANCH  11  12
ATOM     12  C   UNL     1      -1.069  11.290  22.357  0.00  0.00    +0.000 C 
BRANCH  12  13
ATOM     13  C   UNL     1      -1.928  12.494  22.689  0.00  0.00    +0.000 A 
ATOM     14  C   UNL     1      -3.228  12.603  22.177  0.00  0.00    +0.000 A 
ATOM     15  C   UNL     1      -4.018  13.720  22.466  0.00  0.00    +0.000 A 
ATOM     16  C   UNL     1      -3.518  14.741  23.271  0.00  0.00    +0.000 A 
ATOM     17  C   UNL     1      -2.228  14.643  23.791  0.00  0.00    +0.000 A 
ATOM     18  C   UNL     1      -1.438  13.527  23.502  0.00  0.00    +0.000 A 
ENDBRANCH  12  13
ENDBRANCH  11  12
ENDBRANCH   2  11
BRANCH   6  19
ATOM     19  C   UNL     1      -4.681  11.105  17.220  0.00  0.00    +0.000 C 
BRANCH  19  20
ATOM     20  N   UNL     1      -5.374  11.921  18.260  0.00  0.00    +0.000 N 
ATOM     21  C   UNL     1      -5.510  11.407  19.527  0.00  0.00    +0.000 A 
ATOM     22  N   UNL     1      -6.355  11.788  20.425  0.00  0.00    +0.000 NA
ATOM     23  C   UNL     1      -6.964  13.037  20.229  0.00  0.00    +0.000 A 
ATOM     24  C   UNL     1      -7.545  13.619  21.363  0.00  0.00    +0.000 A 
ATOM     25  C   UNL     1      -7.345  14.975  21.585  0.00  0.00    +0.000 A 
ATOM     26 BR   UNL     1      -7.916  15.742  23.215  0.00  0.00    +0.000 Br
ATOM     27  C   UNL     1      -6.604  15.726  20.669  0.00  0.00    +0.000 A 
ATOM     28  C   UNL     1      -6.241  15.170  19.428  0.00  0.00    +0.000 A 
ATOM     29  C   UNL     1      -6.523  13.832  19.171  0.00  0.00    +0.000 A 
ATOM     30  C   UNL     1      -6.047  13.107  17.943  0.00  0.00    +0.000 A 
ATOM     31  O   UNL     1      -6.249  13.533  16.833  0.00  0.00    +0.000 OA
ENDBRANCH  19  20
ENDBRANCH   6  19
TORSDOF 6
ENDMDL
