MODEL 1
REMARK VINA RESULT:      -7.2      0.000      0.000
REMARK  Name = 
REMARK  2 active torsions:
REMARK  status: ('A' for Active; 'I' for Inactive)
REMARK    1  A    between atoms: C_2  and  C_3
REMARK    2  A    between atoms: N_8  and  C_9
REMARK                            x       y       z     vdW  Elec       q    Type
REMARK                         _______ _______ _______ _____ _____    ______ ____
ROOT
ATOM      1  C   UNL     1       5.280   5.462  19.222  0.00  0.00    +0.000 C 
ATOM      2  O   UNL     1       6.088   5.483  20.142  0.00  0.00    +0.000 OA
ATOM      3  N   UNL     1       5.615   5.483  17.872  0.00  0.00    +0.000 N 
ATOM      4  C   UNL     1       7.020   5.412  17.467  0.00  0.00    +0.000 C 
ATOM      5  C   UNL     1       7.249   4.335  16.383  0.00  0.00    +0.000 C 
ATOM      6  N   UNL     1       6.291   4.548  15.282  0.00  0.00    +0.000 N 
ATOM      7  C   UNL     1       4.877   4.511  15.706  0.00  0.00    +0.000 C 
ATOM      8  C   UNL     1       4.646   5.596  16.774  0.00  0.00    +0.000 C 
ENDROOT
BRANCH   1  10
ATOM      9  O   UNL     1       3.216   6.450  19.815  0.00  0.00    +0.000 OA
ATOM     10  C   UNL     1       3.786   5.395  19.553  0.00  0.00    +0.000 C 
ATOM     11  N   UNL     1       3.185   4.137  19.583  0.00  0.00    +0.000 N 
ATOM     12  C   UNL     1       3.912   2.878  19.454  0.00  0.00    +0.000 C 
ATOM     13  C   UNL     1       3.162   1.896  18.557  0.00  0.00    +0.000 C 
ATOM     14  C   UNL     1       1.706   1.730  18.990  0.00  0.00    +0.000 C 
ATOM     15  C   UNL     1       1.011   3.085  19.105  0.00  0.00    +0.000 C 
ATOM     16  C   UNL     1       1.792   4.037  20.003  0.00  0.00    +0.000 C 
ENDBRANCH   1  10
BRANCH   6  17
ATOM     17  C   UNL     1       6.625   4.331  13.958  0.00  0.00    +0.000 A 
ATOM     18  C   UNL     1       7.412   5.226  13.218  0.00  0.00    +0.000 A 
ATOM     19  C   UNL     1       7.680   5.018  11.858  0.00  0.00    +0.000 A 
ATOM     20  C   UNL     1       7.158   3.907  11.206  0.00  0.00    +0.000 A 
ATOM     21  C   UNL     1       6.378   3.006  11.920  0.00  0.00    +0.000 A 
ATOM     22 CL   UNL     1       5.701   1.638  11.123  0.00  0.00    +0.000 Cl
ATOM     23  C   UNL     1       6.119   3.213  13.276  0.00  0.00    +0.000 A 
ENDBRANCH   6  17
TORSDOF 2
ENDMDL
MODEL 2
REMARK VINA RESULT:      -7.2      4.956      7.661
REMARK  Name = 
REMARK  2 active torsions:
REMARK  status: ('A' for Active; 'I' for Inactive)
REMARK    1  A    between atoms: C_2  and  C_3
REMARK    2  A    between atoms: N_8  and  C_9
REMARK                            x       y       z     vdW  Elec       q    Type
REMARK                         _______ _______ _______ _____ _____    ______ ____
ROOT
ATOM      1  C   UNL     1       4.553   5.559  17.343  0.00  0.00    +0.000 C 
ATOM      2  O   UNL     1       4.991   5.679  16.205  0.00  0.00    +0.000 OA
ATOM      3  N   UNL     1       3.951   6.578  18.073  0.00  0.00    +0.000 N 
ATOM      4  C   UNL     1       3.696   7.875  17.443  0.00  0.00    +0.000 C 
ATOM      5  C   UNL     1       2.241   8.344  17.668  0.00  0.00    +0.000 C 
ATOM      6  N   UNL     1       1.929   8.276  19.107  0.00  0.00    +0.000 N 
ATOM      7  C   UNL     1       2.097   6.930  19.691  0.00  0.00    +0.000 C 
ATOM      8  C   UNL     1       3.552   6.472  19.483  0.00  0.00    +0.000 C 
ENDROOT
BRANCH   1  10
ATOM      9  O   UNL     1       5.752   3.853  18.457  0.00  0.00    +0.000 OA
ATOM     10  C   UNL     1       4.653   4.194  18.031  0.00  0.00    +0.000 C 
ATOM     11  N   UNL     1       3.501   3.409  18.083  0.00  0.00    +0.000 N 
ATOM     12  C   UNL     1       2.250   3.745  17.410  0.00  0.00    +0.000 C 
ATOM     13  C   UNL     1       1.046   3.457  18.304  0.00  0.00    +0.000 C 
ATOM     14  C   UNL     1       1.086   2.037  18.868  0.00  0.00    +0.000 C 
ATOM     15  C   UNL     1       2.421   1.759  19.556  0.00  0.00    +0.000 C 
ATOM     16  C   UNL     1       3.597   2.063  18.634  0.00  0.00    +0.000 C 
ENDBRANCH   1  10
BRANCH   6  17
ATOM     17  C   UNL     1       1.128   9.210  19.736  0.00  0.00    +0.000 A 
ATOM     18  C   UNL     1       0.703  10.391  19.109  0.00  0.00    +0.000 A 
ATOM     19  C   UNL     1      -0.052  11.355  19.789  0.00  0.00    +0.000 A 
ATOM     20  C   UNL     1      -0.396  11.158  21.122  0.00  0.00    +0.000 A 
ATOM     21  C   UNL     1       0.012   9.995  21.763  0.00  0.00    +0.000 A 
ATOM     22 CL   UNL     1      -0.381   9.747  23.421  0.00  0.00    +0.000 Cl
ATOM     23  C   UNL     1       0.758   9.034  21.079  0.00  0.00    +0.000 A 
ENDBRANCH   6  17
TORSDOF 2
ENDMDL
MODEL 3
REMARK VINA RESULT:      -7.2      4.827      7.836
REMARK  Name = 
REMARK  2 active torsions:
REMARK  status: ('A' for Active; 'I' for Inactive)
REMARK    1  A    between atoms: C_2  and  C_3
REMARK    2  A    between atoms: N_8  and  C_9
REMARK                            x       y       z     vdW  Elec       q    Type
REMARK                         _______ _______ _______ _____ _____    ______ ____
ROOT
ATOM      1  C   UNL     1       4.376   5.788  17.133  0.00  0.00    +0.000 C 
ATOM      2  O   UNL     1       4.670   6.091  15.984  0.00  0.00    +0.000 OA
ATOM      3  N   UNL     1       3.836   6.664  18.069  0.00  0.00    +0.000 N 
ATOM      4  C   UNL     1       3.469   8.024  17.671  0.00  0.00    +0.000 C 
ATOM      5  C   UNL     1       2.038   8.388  18.127  0.00  0.00    +0.000 C 
ATOM      6  N   UNL     1       1.903   8.100  19.566  0.00  0.00    +0.000 N 
ATOM      7  C   UNL     1       2.179   6.694  19.923  0.00  0.00    +0.000 C 
ATOM      8  C   UNL     1       3.611   6.338  19.484  0.00  0.00    +0.000 C 
ENDROOT
BRANCH   1  10
ATOM      9  O   UNL     1       5.754   3.975  17.767  0.00  0.00    +0.000 OA
ATOM     10  C   UNL     1       4.596   4.345  17.597  0.00  0.00    +0.000 C 
ATOM     11  N   UNL     1       3.472   3.534  17.746  0.00  0.00    +0.000 N 
ATOM     12  C   UNL     1       2.120   3.928  17.362  0.00  0.00    +0.000 C 
ATOM     13  C   UNL     1       1.098   3.492  18.409  0.00  0.00    +0.000 C 
ATOM     14  C   UNL     1       1.237   2.011  18.755  0.00  0.00    +0.000 C 
ATOM     15  C   UNL     1       2.675   1.672  19.146  0.00  0.00    +0.000 C 
ATOM     16  C   UNL     1       3.664   2.127  18.079  0.00  0.00    +0.000 C 
ENDBRANCH   1  10
BRANCH   6  17
ATOM     17  C   UNL     1       1.156   8.897  20.413  0.00  0.00    +0.000 A 
ATOM     18  C   UNL     1       1.107   8.694  21.800  0.00  0.00    +0.000 A 
ATOM     19  C   UNL     1       0.289   9.472  22.630  0.00  0.00    +0.000 A 
ATOM     20  C   UNL     1      -0.507  10.474  22.084  0.00  0.00    +0.000 A 
ATOM     21  C   UNL     1      -0.473  10.694  20.713  0.00  0.00    +0.000 A 
ATOM     22 CL   UNL     1      -1.471  11.911  20.015  0.00  0.00    +0.000 Cl
ATOM     23  C   UNL     1       0.349   9.921  19.891  0.00  0.00    +0.000 A 
ENDBRANCH   6  17
TORSDOF 2
ENDMDL
MODEL 4
REMARK VINA RESULT:      -7.1      5.177      7.808
REMARK  Name = 
REMARK  2 active torsions:
REMARK  status: ('A' for Active; 'I' for Inactive)
REMARK    1  A    between atoms: C_2  and  C_3
REMARK    2  A    between atoms: N_8  and  C_9
REMARK                            x       y       z     vdW  Elec       q    Type
REMARK                         _______ _______ _______ _____ _____    ______ ____
ROOT
ATOM      1  C   UNL     1       4.131   5.413  17.852  0.00  0.00    +0.000 C 
ATOM      2  O   UNL     1       4.384   5.200  16.672  0.00  0.00    +0.000 OA
ATOM      3  N   UNL     1       3.603   6.601  18.346  0.00  0.00    +0.000 N 
ATOM      4  C   UNL     1       3.199   7.662  17.422  0.00  0.00    +0.000 C 
ATOM      5  C   UNL     1       1.775   8.179  17.731  0.00  0.00    +0.000 C 
ATOM      6  N   UNL     1       1.690   8.529  19.161  0.00  0.00    +0.000 N 
ATOM      7  C   UNL     1       2.003   7.408  20.070  0.00  0.00    +0.000 C 
ATOM      8  C   UNL     1       3.428   6.906  19.773  0.00  0.00    +0.000 C 
ENDROOT
BRANCH   1  10
ATOM      9  O   UNL     1       5.562   4.033  19.130  0.00  0.00    +0.000 OA
ATOM     10  C   UNL     1       4.393   4.304  18.875  0.00  0.00    +0.000 C 
ATOM     11  N   UNL     1       3.288   3.643  19.411  0.00  0.00    +0.000 N 
ATOM     12  C   UNL     1       1.914   3.847  18.962  0.00  0.00    +0.000 C 
ATOM     13  C   UNL     1       0.949   3.908  20.144  0.00  0.00    +0.000 C 
ATOM     14  C   UNL     1       1.126   2.715  21.082  0.00  0.00    +0.000 C 
ATOM     15  C   UNL     1       2.584   2.565  21.509  0.00  0.00    +0.000 C 
ATOM     16  C   UNL     1       3.515   2.512  20.303  0.00  0.00    +0.000 C 
ENDBRANCH   1  10
BRANCH   6  17
ATOM     17  C   UNL     1       0.953   9.607  19.616  0.00  0.00    +0.000 A 
ATOM     18  C   UNL     1       0.770  10.774  18.860  0.00  0.00    +0.000 A 
ATOM     19  C   UNL     1       0.076  11.880  19.369  0.00  0.00    +0.000 A 
ATOM     20  C   UNL     1      -0.446  11.841  20.658  0.00  0.00    +0.000 A 
ATOM     21  C   UNL     1      -0.278  10.695  21.424  0.00  0.00    +0.000 A 
ATOM     22 CL   UNL     1      -0.894  10.640  23.031  0.00  0.00    +0.000 Cl
ATOM     23  C   UNL     1       0.407   9.593  20.909  0.00  0.00    +0.000 A 
ENDBRANCH   6  17
TORSDOF 2
ENDMDL
MODEL 5
REMARK VINA RESULT:      -6.9      4.959      8.053
REMARK  Name = 
REMARK  2 active torsions:
REMARK  status: ('A' for Active; 'I' for Inactive)
REMARK    1  A    between atoms: C_2  and  C_3
REMARK    2  A    between atoms: N_8  and  C_9
REMARK                            x       y       z     vdW  Elec       q    Type
REMARK                         _______ _______ _______ _____ _____    ______ ____
ROOT
ATOM      1  C   UNL     1       3.305   3.947  19.216  0.00  0.00    +0.000 C 
ATOM      2  O   UNL     1       3.416   3.150  20.139  0.00  0.00    +0.000 OA
ATOM      3  N   UNL     1       2.517   5.093  19.249  0.00  0.00    +0.000 N 
ATOM      4  C   UNL     1       1.840   5.478  20.489  0.00  0.00    +0.000 C 
ATOM      5  C   UNL     1       2.087   6.963  20.838  0.00  0.00    +0.000 C 
ATOM      6  N   UNL     1       1.763   7.794  19.664  0.00  0.00    +0.000 N 
ATOM      7  C   UNL     1       2.537   7.449  18.455  0.00  0.00    +0.000 C 
ATOM      8  C   UNL     1       2.276   5.974  18.099  0.00  0.00    +0.000 C 
ENDROOT
BRANCH   1  10
ATOM      9  O   UNL     1       3.640   2.866  17.141  0.00  0.00    +0.000 OA
ATOM     10  C   UNL     1       4.090   3.696  17.925  0.00  0.00    +0.000 C 
ATOM     11  N   UNL     1       5.287   4.390  17.749  0.00  0.00    +0.000 N 
ATOM     12  C   UNL     1       5.904   5.231  18.771  0.00  0.00    +0.000 C 
ATOM     13  C   UNL     1       6.454   6.521  18.166  0.00  0.00    +0.000 C 
ATOM     14  C   UNL     1       7.354   6.244  16.962  0.00  0.00    +0.000 C 
ATOM     15  C   UNL     1       6.644   5.360  15.939  0.00  0.00    +0.000 C 
ATOM     16  C   UNL     1       6.106   4.086  16.582  0.00  0.00    +0.000 C 
ENDBRANCH   1  10
BRANCH   6  17
ATOM     17  C   UNL     1       1.175   9.040  19.779  0.00  0.00    +0.000 A 
ATOM     18  C   UNL     1       1.226  10.001  18.758  0.00  0.00    +0.000 A 
ATOM     19  C   UNL     1       0.681  11.281  18.924  0.00  0.00    +0.000 A 
ATOM     20  C   UNL     1       0.075  11.630  20.126  0.00  0.00    +0.000 A 
ATOM     21  C   UNL     1       0.011  10.695  21.150  0.00  0.00    +0.000 A 
ATOM     22 CL   UNL     1      -0.712  11.118  22.654  0.00  0.00    +0.000 Cl
ATOM     23  C   UNL     1       0.549   9.418  20.978  0.00  0.00    +0.000 A 
ENDBRANCH   6  17
TORSDOF 2
ENDMDL
MODEL 6
REMARK VINA RESULT:      -6.9      4.931      7.631
REMARK  Name = 
REMARK  2 active torsions:
REMARK  status: ('A' for Active; 'I' for Inactive)
REMARK    1  A    between atoms: C_2  and  C_3
REMARK    2  A    between atoms: N_8  and  C_9
REMARK                            x       y       z     vdW  Elec       q    Type
REMARK                         _______ _______ _______ _____ _____    ______ ____
ROOT
ATOM      1  C   UNL     1       4.177   5.380  17.871  0.00  0.00    +0.000 C 
ATOM      2  O   UNL     1       4.451   5.162  16.697  0.00  0.00    +0.000 OA
ATOM      3  N   UNL     1       3.635   6.567  18.351  0.00  0.00    +0.000 N 
ATOM      4  C   UNL     1       3.241   7.622  17.415  0.00  0.00    +0.000 C 
ATOM      5  C   UNL     1       1.811   8.133  17.698  0.00  0.00    +0.000 C 
ATOM      6  N   UNL     1       1.699   8.489  19.124  0.00  0.00    +0.000 N 
ATOM      7  C   UNL     1       2.002   7.374  20.043  0.00  0.00    +0.000 C 
ATOM      8  C   UNL     1       3.434   6.878  19.773  0.00  0.00    +0.000 C 
ENDROOT
BRANCH   1  10
ATOM      9  O   UNL     1       5.593   4.006  19.173  0.00  0.00    +0.000 OA
ATOM     10  C   UNL     1       4.427   4.277  18.904  0.00  0.00    +0.000 C 
ATOM     11  N   UNL     1       3.316   3.620  19.432  0.00  0.00    +0.000 N 
ATOM     12  C   UNL     1       1.946   3.821  18.966  0.00  0.00    +0.000 C 
ATOM     13  C   UNL     1       0.969   3.890  20.137  0.00  0.00    +0.000 C 
ATOM     14  C   UNL     1       1.134   2.703  21.084  0.00  0.00    +0.000 C 
ATOM     15  C   UNL     1       2.587   2.554  21.528  0.00  0.00    +0.000 C 
ATOM     16  C   UNL     1       3.531   2.493  20.332  0.00  0.00    +0.000 C 
ENDBRANCH   1  10
BRANCH   6  17
ATOM     17  C   UNL     1       0.950   9.566  19.561  0.00  0.00    +0.000 A 
ATOM     18  C   UNL     1       0.847   9.919  20.915  0.00  0.00    +0.000 A 
ATOM     19  C   UNL     1       0.028  10.973  21.340  0.00  0.00    +0.000 A 
ATOM     20  C   UNL     1      -0.715  11.696  20.414  0.00  0.00    +0.000 A 
ATOM     21  C   UNL     1      -0.627  11.366  19.067  0.00  0.00    +0.000 A 
ATOM     22 CL   UNL     1      -1.561  12.232  17.909  0.00  0.00    +0.000 Cl
ATOM     23  C   UNL     1       0.196  10.319  18.647  0.00  0.00    +0.000 A 
ENDBRANCH   6  17
TORSDOF 2
ENDMDL
MODEL 7
REMARK VINA RESULT:      -6.9      4.585      8.122
REMARK  Name = 
REMARK  2 active torsions:
REMARK  status: ('A' for Active; 'I' for Inactive)
REMARK    1  A    between atoms: C_2  and  C_3
REMARK    2  A    between atoms: N_8  and  C_9
REMARK                            x       y       z     vdW  Elec       q    Type
REMARK                         _______ _______ _______ _____ _____    ______ ____
ROOT
ATOM      1  C   UNL     1       3.000   3.653  18.728  0.00  0.00    +0.000 C 
ATOM      2  O   UNL     1       2.936   2.605  19.359  0.00  0.00    +0.000 OA
ATOM      3  N   UNL     1       2.291   4.808  19.038  0.00  0.00    +0.000 N 
ATOM      4  C   UNL     1       1.486   4.867  20.259  0.00  0.00    +0.000 C 
ATOM      5  C   UNL     1       1.783   6.142  21.080  0.00  0.00    +0.000 C 
ATOM      6  N   UNL     1       1.670   7.319  20.200  0.00  0.00    +0.000 N 
ATOM      7  C   UNL     1       2.571   7.279  19.031  0.00  0.00    +0.000 C 
ATOM      8  C   UNL     1       2.262   6.018  18.204  0.00  0.00    +0.000 C 
ENDROOT
BRANCH   1  10
ATOM      9  O   UNL     1       3.495   3.307  16.443  0.00  0.00    +0.000 OA
ATOM     10  C   UNL     1       3.928   3.726  17.512  0.00  0.00    +0.000 C 
ATOM     11  N   UNL     1       5.218   4.218  17.710  0.00  0.00    +0.000 N 
ATOM     12  C   UNL     1       5.781   4.537  19.019  0.00  0.00    +0.000 C 
ATOM     13  C   UNL     1       6.578   5.839  18.975  0.00  0.00    +0.000 C 
ATOM     14  C   UNL     1       7.603   5.838  17.842  0.00  0.00    +0.000 C 
ATOM     15  C   UNL     1       6.943   5.496  16.507  0.00  0.00    +0.000 C 
ATOM     16  C   UNL     1       6.154   4.195  16.593  0.00  0.00    +0.000 C 
ENDBRANCH   1  10
BRANCH   6  17
ATOM     17  C   UNL     1       1.156   8.525  20.640  0.00  0.00    +0.000 A 
ATOM     18  C   UNL     1       0.752   8.740  21.965  0.00  0.00    +0.000 A 
ATOM     19  C   UNL     1       0.172   9.949  22.371  0.00  0.00    +0.000 A 
ATOM     20  C   UNL     1      -0.023  10.972  21.450  0.00  0.00    +0.000 A 
ATOM     21  C   UNL     1       0.372  10.783  20.132  0.00  0.00    +0.000 A 
ATOM     22 CL   UNL     1       0.115  12.029  18.972  0.00  0.00    +0.000 Cl
ATOM     23  C   UNL     1       0.957   9.580  19.734  0.00  0.00    +0.000 A 
ENDBRANCH   6  17
TORSDOF 2
ENDMDL
MODEL 8
REMARK VINA RESULT:      -6.8      6.692      8.782
REMARK  Name = 
REMARK  2 active torsions:
REMARK  status: ('A' for Active; 'I' for Inactive)
REMARK    1  A    between atoms: C_2  and  C_3
REMARK    2  A    between atoms: N_8  and  C_9
REMARK                            x       y       z     vdW  Elec       q    Type
REMARK                         _______ _______ _______ _____ _____    ______ ____
ROOT
ATOM      1  C   UNL     1       0.938  11.522  19.288  0.00  0.00    +0.000 C 
ATOM      2  O   UNL     1       1.065  12.280  18.334  0.00  0.00    +0.000 OA
ATOM      3  N   UNL     1       0.985  10.135  19.210  0.00  0.00    +0.000 N 
ATOM      4  C   UNL     1       1.318   9.485  17.940  0.00  0.00    +0.000 C 
ATOM      5  C   UNL     1       2.423   8.419  18.117  0.00  0.00    +0.000 C 
ATOM      6  N   UNL     1       2.039   7.502  19.206  0.00  0.00    +0.000 N 
ATOM      7  C   UNL     1       1.809   8.176  20.500  0.00  0.00    +0.000 C 
ATOM      8  C   UNL     1       0.696   9.226  20.327  0.00  0.00    +0.000 C 
ENDROOT
BRANCH   1  10
ATOM      9  O   UNL     1       1.717  12.318  21.373  0.00  0.00    +0.000 OA
ATOM     10  C   UNL     1       0.723  12.120  20.682  0.00  0.00    +0.000 C 
ATOM     11  N   UNL     1      -0.590  12.355  21.091  0.00  0.00    +0.000 N 
ATOM     12  C   UNL     1      -1.770  11.943  20.335  0.00  0.00    +0.000 C 
ATOM     13  C   UNL     1      -2.838  13.034  20.340  0.00  0.00    +0.000 C 
ATOM     14  C   UNL     1      -3.145  13.520  21.756  0.00  0.00    +0.000 C 
ATOM     15  C   UNL     1      -1.867  13.932  22.483  0.00  0.00    +0.000 C 
ATOM     16  C   UNL     1      -0.825  12.820  22.452  0.00  0.00    +0.000 C 
ENDBRANCH   1  10
BRANCH   6  17
ATOM     17  C   UNL     1       2.319   6.149  19.168  0.00  0.00    +0.000 A 
ATOM     18  C   UNL     1       2.706   5.487  17.994  0.00  0.00    +0.000 A 
ATOM     19  C   UNL     1       2.918   4.102  17.965  0.00  0.00    +0.000 A 
ATOM     20  C   UNL     1       2.741   3.346  19.119  0.00  0.00    +0.000 A 
ATOM     21  C   UNL     1       2.360   3.981  20.294  0.00  0.00    +0.000 A 
ATOM     22 CL   UNL     1       2.109   3.057  21.725  0.00  0.00    +0.000 Cl
ATOM     23  C   UNL     1       2.156   5.362  20.319  0.00  0.00    +0.000 A 
ENDBRANCH   6  17
TORSDOF 2
ENDMDL
MODEL 9
REMARK VINA RESULT:      -6.7      6.126      7.903
REMARK  Name = 
REMARK  2 active torsions:
REMARK  status: ('A' for Active; 'I' for Inactive)
REMARK    1  A    between atoms: C_2  and  C_3
REMARK    2  A    between atoms: N_8  and  C_9
REMARK                            x       y       z     vdW  Elec       q    Type
REMARK                         _______ _______ _______ _____ _____    ______ ____
ROOT
ATOM      1  C   UNL     1       0.986  10.918  19.601  0.00  0.00    +0.000 C 
ATOM      2  O   UNL     1       1.125  11.909  18.895  0.00  0.00    +0.000 OA
ATOM      3  N   UNL     1       1.152   9.607  19.167  0.00  0.00    +0.000 N 
ATOM      4  C   UNL     1       1.635   9.342  17.811  0.00  0.00    +0.000 C 
ATOM      5  C   UNL     1       2.806   8.333  17.808  0.00  0.00    +0.000 C 
ATOM      6  N   UNL     1       2.414   7.137  18.577  0.00  0.00    +0.000 N 
ATOM      7  C   UNL     1       2.031   7.425  19.974  0.00  0.00    +0.000 C 
ATOM      8  C   UNL     1       0.853   8.417  19.975  0.00  0.00    +0.000 C 
ENDROOT
BRANCH   1  10
ATOM      9  O   UNL     1       1.469  10.835  21.913  0.00  0.00    +0.000 OA
ATOM     10  C   UNL     1       0.616  11.108  21.075  0.00  0.00    +0.000 C 
ATOM     11  N   UNL     1      -0.681  11.529  21.368  0.00  0.00    +0.000 N 
ATOM     12  C   UNL     1      -1.742  11.669  20.373  0.00  0.00    +0.000 C 
ATOM     13  C   UNL     1      -2.555  12.940  20.608  0.00  0.00    +0.000 C 
ATOM     14  C   UNL     1      -3.041  13.043  22.053  0.00  0.00    +0.000 C 
ATOM     15  C   UNL     1      -1.881  12.887  23.034  0.00  0.00    +0.000 C 
ATOM     16  C   UNL     1      -1.092  11.611  22.764  0.00  0.00    +0.000 C 
ENDBRANCH   1  10
BRANCH   6  17
ATOM     17  C   UNL     1       2.806   5.862  18.214  0.00  0.00    +0.000 A 
ATOM     18  C   UNL     1       3.944   5.611  17.433  0.00  0.00    +0.000 A 
ATOM     19  C   UNL     1       4.282   4.316  17.021  0.00  0.00    +0.000 A 
ATOM     20  C   UNL     1       3.480   3.238  17.380  0.00  0.00    +0.000 A 
ATOM     21  C   UNL     1       2.349   3.463  18.155  0.00  0.00    +0.000 A 
ATOM     22 CL   UNL     1       1.329   2.144  18.586  0.00  0.00    +0.000 Cl
ATOM     23  C   UNL     1       2.020   4.754  18.569  0.00  0.00    +0.000 A 
ENDBRANCH   6  17
TORSDOF 2
ENDMDL
