MODEL 1
REMARK VINA RESULT:      -8.6      0.000      0.000
REMARK  Name = 
REMARK  5 active torsions:
REMARK  status: ('A' for Active; 'I' for Inactive)
REMARK    1  A    between atoms: C_1  and  C_2
REMARK    2  A    between atoms: N_4  and  C_5
REMARK    3  A    between atoms: C_11  and  O_12
REMARK    4  A    between atoms: O_12  and  C_13
REMARK    5  A    between atoms: C_20  and  C_21
REMARK                            x       y       z     vdW  Elec       q    Type
REMARK                         _______ _______ _______ _____ _____    ______ ____
ROOT
ATOM      1  C   UNL     1       7.890   7.889  17.849  0.00  0.00    +0.000 C 
ATOM      2  C   UNL     1       7.336   6.646  17.261  0.00  0.00    +0.000 A 
ATOM      3  N   UNL     1       7.489   6.371  15.960  0.00  0.00    +0.000 NA
ATOM      4  N   UNL     1       6.742   5.257  15.743  0.00  0.00    +0.000 N 
ATOM      5  C   UNL     1       6.181   4.780  16.925  0.00  0.00    +0.000 A 
ATOM      6  C   UNL     1       6.634   5.617  17.931  0.00  0.00    +0.000 A 
ENDROOT
BRANCH   4   7
ATOM      7  C   UNL     1       6.597   4.737  14.424  0.00  0.00    +0.000 A 
ATOM      8  C   UNL     1       7.580   5.021  13.464  0.00  0.00    +0.000 A 
ATOM      9  C   UNL     1       7.488   4.466  12.186  0.00  0.00    +0.000 A 
ATOM     10  C   UNL     1       6.397   3.667  11.844  0.00  0.00    +0.000 A 
ATOM     11  C   UNL     1       5.394   3.422  12.779  0.00  0.00    +0.000 A 
ATOM     12  C   UNL     1       5.496   3.946  14.070  0.00  0.00    +0.000 A 
ENDBRANCH   4   7
BRANCH   6  13
ATOM     13  C   UNL     1       6.401   5.474  19.349  0.00  0.00    +0.000 C 
ATOM     14  O   UNL     1       7.294   5.303  20.172  0.00  0.00    +0.000 OA
ENDBRANCH   6  13
BRANCH   5  15
ATOM     15  O   UNL     1       5.436   3.670  16.944  0.00  0.00    +0.000 OA
BRANCH  15  16
ATOM     16  C   UNL     1       4.245   3.606  17.630  0.00  0.00    +0.000 A 
ATOM     17  C   UNL     1       3.173   4.478  17.416  0.00  0.00    +0.000 A 
ATOM     18  C   UNL     1       2.010   4.356  18.177  0.00  0.00    +0.000 A 
ATOM     19  C   UNL     1       1.900   3.330  19.115  0.00  0.00    +0.000 A 
ATOM     20 CL   UNL     1       0.462   3.171  20.040  0.00  0.00    +0.000 Cl
ATOM     21  C   UNL     1       2.948   2.429  19.300  0.00  0.00    +0.000 A 
ATOM     22  C   UNL     1       4.125   2.568  18.555  0.00  0.00    +0.000 A 
ENDBRANCH  15  16
ENDBRANCH   5  15
TORSDOF 4
ENDMDL
MODEL 2
REMARK VINA RESULT:      -8.6      0.318      1.061
REMARK  Name = 
REMARK  5 active torsions:
REMARK  status: ('A' for Active; 'I' for Inactive)
REMARK    1  A    between atoms: C_1  and  C_2
REMARK    2  A    between atoms: N_4  and  C_5
REMARK    3  A    between atoms: C_11  and  O_12
REMARK    4  A    between atoms: O_12  and  C_13
REMARK    5  A    between atoms: C_20  and  C_21
REMARK                            x       y       z     vdW  Elec       q    Type
REMARK                         _______ _______ _______ _____ _____    ______ ____
ROOT
ATOM      1  C   UNL     1       8.020   8.009  17.891  0.00  0.00    +0.000 C 
ATOM      2  C   UNL     1       7.462   6.747  17.350  0.00  0.00    +0.000 A 
ATOM      3  N   UNL     1       7.538   6.462  16.044  0.00  0.00    +0.000 NA
ATOM      4  N   UNL     1       6.807   5.328  15.883  0.00  0.00    +0.000 N 
ATOM      5  C   UNL     1       6.335   4.849  17.103  0.00  0.00    +0.000 A 
ATOM      6  C   UNL     1       6.829   5.707  18.071  0.00  0.00    +0.000 A 
ENDROOT
BRANCH   4   7
ATOM      7  C   UNL     1       6.592   4.791  14.581  0.00  0.00    +0.000 A 
ATOM      8  C   UNL     1       7.568   4.985  13.592  0.00  0.00    +0.000 A 
ATOM      9  C   UNL     1       7.404   4.410  12.329  0.00  0.00    +0.000 A 
ATOM     10  C   UNL     1       6.252   3.684  12.032  0.00  0.00    +0.000 A 
ATOM     11  C   UNL     1       5.258   3.531  12.996  0.00  0.00    +0.000 A 
ATOM     12  C   UNL     1       5.430   4.073  14.272  0.00  0.00    +0.000 A 
ENDBRANCH   4   7
BRANCH   6  13
ATOM     13  C   UNL     1       6.690   5.572  19.503  0.00  0.00    +0.000 C 
ATOM     14  O   UNL     1       7.629   5.347  20.260  0.00  0.00    +0.000 OA
ENDBRANCH   6  13
BRANCH   5  15
ATOM     15  O   UNL     1       5.621   3.722  17.179  0.00  0.00    +0.000 OA
BRANCH  15  16
ATOM     16  C   UNL     1       4.465   3.641  17.921  0.00  0.00    +0.000 A 
ATOM     17  C   UNL     1       4.345   2.901  19.101  0.00  0.00    +0.000 A 
ATOM     18  C   UNL     1       3.125   2.854  19.776  0.00  0.00    +0.000 A 
ATOM     19  C   UNL     1       2.041   3.588  19.298  0.00  0.00    +0.000 A 
ATOM     20 CL   UNL     1       0.543   3.542  20.138  0.00  0.00    +0.000 Cl
ATOM     21  C   UNL     1       2.167   4.365  18.147  0.00  0.00    +0.000 A 
ATOM     22  C   UNL     1       3.383   4.391  17.456  0.00  0.00    +0.000 A 
ENDBRANCH  15  16
ENDBRANCH   5  15
TORSDOF 4
ENDMDL
MODEL 3
REMARK VINA RESULT:      -8.5      0.305      1.474
REMARK  Name = 
REMARK  5 active torsions:
REMARK  status: ('A' for Active; 'I' for Inactive)
REMARK    1  A    between atoms: C_1  and  C_2
REMARK    2  A    between atoms: N_4  and  C_5
REMARK    3  A    between atoms: C_11  and  O_12
REMARK    4  A    between atoms: O_12  and  C_13
REMARK    5  A    between atoms: C_20  and  C_21
REMARK                            x       y       z     vdW  Elec       q    Type
REMARK                         _______ _______ _______ _____ _____    ______ ____
ROOT
ATOM      1  C   UNL     1       7.951   8.043  17.811  0.00  0.00    +0.000 C 
ATOM      2  C   UNL     1       7.417   6.762  17.290  0.00  0.00    +0.000 A 
ATOM      3  N   UNL     1       7.507   6.455  15.990  0.00  0.00    +0.000 NA
ATOM      4  N   UNL     1       6.796   5.306  15.846  0.00  0.00    +0.000 N 
ATOM      5  C   UNL     1       6.323   4.843  17.071  0.00  0.00    +0.000 A 
ATOM      6  C   UNL     1       6.797   5.726  18.027  0.00  0.00    +0.000 A 
ENDROOT
BRANCH   4   7
ATOM      7  C   UNL     1       6.599   4.742  14.552  0.00  0.00    +0.000 A 
ATOM      8  C   UNL     1       5.417   4.034  14.288  0.00  0.00    +0.000 A 
ATOM      9  C   UNL     1       5.177   3.531  13.007  0.00  0.00    +0.000 A 
ATOM     10  C   UNL     1       6.130   3.688  12.001  0.00  0.00    +0.000 A 
ATOM     11  C   UNL     1       7.326   4.348  12.273  0.00  0.00    +0.000 A 
ATOM     12  C   UNL     1       7.559   4.884  13.542  0.00  0.00    +0.000 A 
ENDBRANCH   4   7
BRANCH   6  13
ATOM     13  C   UNL     1       6.650   5.616  19.459  0.00  0.00    +0.000 C 
ATOM     14  O   UNL     1       7.581   5.386  20.223  0.00  0.00    +0.000 OA
ENDBRANCH   6  13
BRANCH   5  15
ATOM     15  O   UNL     1       5.627   3.705  17.163  0.00  0.00    +0.000 OA
BRANCH  15  16
ATOM     16  C   UNL     1       4.470   3.618  17.904  0.00  0.00    +0.000 A 
ATOM     17  C   UNL     1       4.352   2.873  19.082  0.00  0.00    +0.000 A 
ATOM     18  C   UNL     1       3.132   2.820  19.755  0.00  0.00    +0.000 A 
ATOM     19  C   UNL     1       2.045   3.551  19.279  0.00  0.00    +0.000 A 
ATOM     20 CL   UNL     1       0.547   3.497  20.117  0.00  0.00    +0.000 Cl
ATOM     21  C   UNL     1       2.170   4.332  18.130  0.00  0.00    +0.000 A 
ATOM     22  C   UNL     1       3.387   4.365  17.440  0.00  0.00    +0.000 A 
ENDBRANCH  15  16
ENDBRANCH   5  15
TORSDOF 4
ENDMDL
MODEL 4
REMARK VINA RESULT:      -8.4      0.429      1.108
REMARK  Name = 
REMARK  5 active torsions:
REMARK  status: ('A' for Active; 'I' for Inactive)
REMARK    1  A    between atoms: C_1  and  C_2
REMARK    2  A    between atoms: N_4  and  C_5
REMARK    3  A    between atoms: C_11  and  O_12
REMARK    4  A    between atoms: O_12  and  C_13
REMARK    5  A    between atoms: C_20  and  C_21
REMARK                            x       y       z     vdW  Elec       q    Type
REMARK                         _______ _______ _______ _____ _____    ______ ____
ROOT
ATOM      1  C   UNL     1       8.042   8.152  17.794  0.00  0.00    +0.000 C 
ATOM      2  C   UNL     1       7.508   6.855  17.314  0.00  0.00    +0.000 A 
ATOM      3  N   UNL     1       7.548   6.530  16.016  0.00  0.00    +0.000 NA
ATOM      4  N   UNL     1       6.852   5.367  15.919  0.00  0.00    +0.000 N 
ATOM      5  C   UNL     1       6.440   4.914  17.170  0.00  0.00    +0.000 A 
ATOM      6  C   UNL     1       6.938   5.819  18.091  0.00  0.00    +0.000 A 
ENDROOT
BRANCH   4   7
ATOM      7  C   UNL     1       6.610   4.780  14.643  0.00  0.00    +0.000 A 
ATOM      8  C   UNL     1       5.380   4.149  14.403  0.00  0.00    +0.000 A 
ATOM      9  C   UNL     1       5.100   3.626  13.138  0.00  0.00    +0.000 A 
ATOM     10  C   UNL     1       6.056   3.687  12.125  0.00  0.00    +0.000 A 
ATOM     11  C   UNL     1       7.297   4.270  12.374  0.00  0.00    +0.000 A 
ATOM     12  C   UNL     1       7.572   4.825  13.626  0.00  0.00    +0.000 A 
ENDBRANCH   4   7
BRANCH   6  13
ATOM     13  C   UNL     1       6.855   5.728  19.530  0.00  0.00    +0.000 C 
ATOM     14  O   UNL     1       7.717   5.209  20.231  0.00  0.00    +0.000 OA
ENDBRANCH   6  13
BRANCH   5  15
ATOM     15  O   UNL     1       5.769   3.766  17.307  0.00  0.00    +0.000 OA
BRANCH  15  16
ATOM     16  C   UNL     1       4.537   3.713  17.920  0.00  0.00    +0.000 A 
ATOM     17  C   UNL     1       3.369   4.251  17.371  0.00  0.00    +0.000 A 
ATOM     18  C   UNL     1       2.166   4.175  18.075  0.00  0.00    +0.000 A 
ATOM     19  C   UNL     1       2.123   3.515  19.302  0.00  0.00    +0.000 A 
ATOM     20 CL   UNL     1       0.640   3.409  20.161  0.00  0.00    +0.000 Cl
ATOM     21  C   UNL     1       3.276   2.936  19.833  0.00  0.00    +0.000 A 
ATOM     22  C   UNL     1       4.487   3.036  19.139  0.00  0.00    +0.000 A 
ENDBRANCH  15  16
ENDBRANCH   5  15
TORSDOF 4
ENDMDL
MODEL 5
REMARK VINA RESULT:      -8.3      3.704      5.701
REMARK  Name = 
REMARK  5 active torsions:
REMARK  status: ('A' for Active; 'I' for Inactive)
REMARK    1  A    between atoms: C_1  and  C_2
REMARK    2  A    between atoms: N_4  and  C_5
REMARK    3  A    between atoms: C_11  and  O_12
REMARK    4  A    between atoms: O_12  and  C_13
REMARK    5  A    between atoms: C_20  and  C_21
REMARK                            x       y       z     vdW  Elec       q    Type
REMARK                         _______ _______ _______ _____ _____    ______ ____
ROOT
ATOM      1  C   UNL     1       2.688   1.766  17.834  0.00  0.00    +0.000 C 
ATOM      2  C   UNL     1       3.101   3.130  18.244  0.00  0.00    +0.000 A 
ATOM      3  N   UNL     1       4.250   3.663  17.811  0.00  0.00    +0.000 NA
ATOM      4  N   UNL     1       4.379   4.832  18.490  0.00  0.00    +0.000 N 
ATOM      5  C   UNL     1       3.269   5.078  19.296  0.00  0.00    +0.000 A 
ATOM      6  C   UNL     1       2.392   4.029  19.075  0.00  0.00    +0.000 A 
ENDROOT
BRANCH   4   7
ATOM      7  C   UNL     1       5.555   5.622  18.342  0.00  0.00    +0.000 A 
ATOM      8  C   UNL     1       6.632   5.417  19.218  0.00  0.00    +0.000 A 
ATOM      9  C   UNL     1       7.817   6.135  19.047  0.00  0.00    +0.000 A 
ATOM     10  C   UNL     1       7.919   7.092  18.038  0.00  0.00    +0.000 A 
ATOM     11  C   UNL     1       6.835   7.333  17.197  0.00  0.00    +0.000 A 
ATOM     12  C   UNL     1       5.659   6.595  17.339  0.00  0.00    +0.000 A 
ENDBRANCH   4   7
BRANCH   6  13
ATOM     13  C   UNL     1       1.060   3.885  19.612  0.00  0.00    +0.000 C 
ATOM     14  O   UNL     1       0.792   3.198  20.592  0.00  0.00    +0.000 OA
ENDBRANCH   6  13
BRANCH   5  15
ATOM     15  O   UNL     1       3.173   6.194  20.025  0.00  0.00    +0.000 OA
BRANCH  15  16
ATOM     16  C   UNL     1       2.436   7.278  19.602  0.00  0.00    +0.000 A 
ATOM     17  C   UNL     1       2.394   7.723  18.277  0.00  0.00    +0.000 A 
ATOM     18  C   UNL     1       1.640   8.849  17.942  0.00  0.00    +0.000 A 
ATOM     19  C   UNL     1       0.889   9.496  18.922  0.00  0.00    +0.000 A 
ATOM     20 CL   UNL     1      -0.050  10.872  18.505  0.00  0.00    +0.000 Cl
ATOM     21  C   UNL     1       0.892   9.029  20.236  0.00  0.00    +0.000 A 
ATOM     22  C   UNL     1       1.668   7.916  20.577  0.00  0.00    +0.000 A 
ENDBRANCH  15  16
ENDBRANCH   5  15
TORSDOF 4
ENDMDL
MODEL 6
REMARK VINA RESULT:      -8.2      3.697      5.659
REMARK  Name = 
REMARK  5 active torsions:
REMARK  status: ('A' for Active; 'I' for Inactive)
REMARK    1  A    between atoms: C_1  and  C_2
REMARK    2  A    between atoms: N_4  and  C_5
REMARK    3  A    between atoms: C_11  and  O_12
REMARK    4  A    between atoms: O_12  and  C_13
REMARK    5  A    between atoms: C_20  and  C_21
REMARK                            x       y       z     vdW  Elec       q    Type
REMARK                         _______ _______ _______ _____ _____    ______ ____
ROOT
ATOM      1  C   UNL     1       2.781   1.847  17.631  0.00  0.00    +0.000 C 
ATOM      2  C   UNL     1       3.196   3.198  18.080  0.00  0.00    +0.000 A 
ATOM      3  N   UNL     1       4.360   3.729  17.685  0.00  0.00    +0.000 NA
ATOM      4  N   UNL     1       4.483   4.882  18.392  0.00  0.00    +0.000 N 
ATOM      5  C   UNL     1       3.357   5.122  19.176  0.00  0.00    +0.000 A 
ATOM      6  C   UNL     1       2.476   4.087  18.912  0.00  0.00    +0.000 A 
ENDROOT
BRANCH   4   7
ATOM      7  C   UNL     1       5.670   5.664  18.289  0.00  0.00    +0.000 A 
ATOM      8  C   UNL     1       5.736   6.685  17.329  0.00  0.00    +0.000 A 
ATOM      9  C   UNL     1       6.866   7.504  17.258  0.00  0.00    +0.000 A 
ATOM     10  C   UNL     1       7.950   7.280  18.105  0.00  0.00    +0.000 A 
ATOM     11  C   UNL     1       7.908   6.235  19.027  0.00  0.00    +0.000 A 
ATOM     12  C   UNL     1       6.769   5.435  19.127  0.00  0.00    +0.000 A 
ENDBRANCH   4   7
BRANCH   6  13
ATOM     13  C   UNL     1       1.130   3.943  19.415  0.00  0.00    +0.000 C 
ATOM     14  O   UNL     1       0.862   3.493  20.524  0.00  0.00    +0.000 OA
ENDBRANCH   6  13
BRANCH   5  15
ATOM     15  O   UNL     1       3.254   6.223  19.926  0.00  0.00    +0.000 OA
BRANCH  15  16
ATOM     16  C   UNL     1       2.497   7.303  19.532  0.00  0.00    +0.000 A 
ATOM     17  C   UNL     1       2.416   7.760  18.213  0.00  0.00    +0.000 A 
ATOM     18  C   UNL     1       1.644   8.881  17.907  0.00  0.00    +0.000 A 
ATOM     19  C   UNL     1       0.913   9.513  18.911  0.00  0.00    +0.000 A 
ATOM     20 CL   UNL     1      -0.049  10.884  18.531  0.00  0.00    +0.000 Cl
ATOM     21  C   UNL     1       0.954   9.034  20.221  0.00  0.00    +0.000 A 
ATOM     22  C   UNL     1       1.749   7.926  20.532  0.00  0.00    +0.000 A 
ENDBRANCH  15  16
ENDBRANCH   5  15
TORSDOF 4
ENDMDL
MODEL 7
REMARK VINA RESULT:      -8.1      3.660      5.680
REMARK  Name = 
REMARK  5 active torsions:
REMARK  status: ('A' for Active; 'I' for Inactive)
REMARK    1  A    between atoms: C_1  and  C_2
REMARK    2  A    between atoms: N_4  and  C_5
REMARK    3  A    between atoms: C_11  and  O_12
REMARK    4  A    between atoms: O_12  and  C_13
REMARK    5  A    between atoms: C_20  and  C_21
REMARK                            x       y       z     vdW  Elec       q    Type
REMARK                         _______ _______ _______ _____ _____    ______ ____
ROOT
ATOM      1  C   UNL     1       2.584   1.932  17.570  0.00  0.00    +0.000 C 
ATOM      2  C   UNL     1       3.058   3.254  18.045  0.00  0.00    +0.000 A 
ATOM      3  N   UNL     1       4.234   3.751  17.645  0.00  0.00    +0.000 NA
ATOM      4  N   UNL     1       4.412   4.881  18.378  0.00  0.00    +0.000 N 
ATOM      5  C   UNL     1       3.307   5.143  19.186  0.00  0.00    +0.000 A 
ATOM      6  C   UNL     1       2.384   4.149  18.911  0.00  0.00    +0.000 A 
ENDROOT
BRANCH   4   7
ATOM      7  C   UNL     1       5.626   5.619  18.275  0.00  0.00    +0.000 A 
ATOM      8  C   UNL     1       5.750   6.596  17.276  0.00  0.00    +0.000 A 
ATOM      9  C   UNL     1       6.908   7.375  17.201  0.00  0.00    +0.000 A 
ATOM     10  C   UNL     1       7.961   7.154  18.087  0.00  0.00    +0.000 A 
ATOM     11  C   UNL     1       7.861   6.152  19.050  0.00  0.00    +0.000 A 
ATOM     12  C   UNL     1       6.694   5.392  19.153  0.00  0.00    +0.000 A 
ENDBRANCH   4   7
BRANCH   6  13
ATOM     13  C   UNL     1       1.041   4.043  19.431  0.00  0.00    +0.000 C 
ATOM     14  O   UNL     1       0.759   4.169  20.618  0.00  0.00    +0.000 OA
ENDBRANCH   6  13
BRANCH   5  15
ATOM     15  O   UNL     1       3.257   6.228  19.964  0.00  0.00    +0.000 OA
BRANCH  15  16
ATOM     16  C   UNL     1       2.436   7.294  19.674  0.00  0.00    +0.000 A 
ATOM     17  C   UNL     1       1.609   7.920  20.611  0.00  0.00    +0.000 A 
ATOM     18  C   UNL     1       0.788   8.979  20.222  0.00  0.00    +0.000 A 
ATOM     19  C   UNL     1       0.833   9.444  18.909  0.00  0.00    +0.000 A 
ATOM     20 CL   UNL     1      -0.167  10.757  18.435  0.00  0.00    +0.000 Cl
ATOM     21  C   UNL     1       1.690   8.853  17.981  0.00  0.00    +0.000 A 
ATOM     22  C   UNL     1       2.494   7.775  18.365  0.00  0.00    +0.000 A 
ENDBRANCH  15  16
ENDBRANCH   5  15
TORSDOF 4
ENDMDL
MODEL 8
REMARK VINA RESULT:      -8.1      3.709      5.723
REMARK  Name = 
REMARK  5 active torsions:
REMARK  status: ('A' for Active; 'I' for Inactive)
REMARK    1  A    between atoms: C_1  and  C_2
REMARK    2  A    between atoms: N_4  and  C_5
REMARK    3  A    between atoms: C_11  and  O_12
REMARK    4  A    between atoms: O_12  and  C_13
REMARK    5  A    between atoms: C_20  and  C_21
REMARK                            x       y       z     vdW  Elec       q    Type
REMARK                         _______ _______ _______ _____ _____    ______ ____
ROOT
ATOM      1  C   UNL     1       2.563   1.973  17.480  0.00  0.00    +0.000 C 
ATOM      2  C   UNL     1       3.019   3.288  17.992  0.00  0.00    +0.000 A 
ATOM      3  N   UNL     1       4.193   3.806  17.612  0.00  0.00    +0.000 NA
ATOM      4  N   UNL     1       4.355   4.919  18.375  0.00  0.00    +0.000 N 
ATOM      5  C   UNL     1       3.243   5.149  19.182  0.00  0.00    +0.000 A 
ATOM      6  C   UNL     1       2.332   4.152  18.876  0.00  0.00    +0.000 A 
ENDROOT
BRANCH   4   7
ATOM      7  C   UNL     1       5.562   5.672  18.300  0.00  0.00    +0.000 A 
ATOM      8  C   UNL     1       6.597   5.399  19.206  0.00  0.00    +0.000 A 
ATOM      9  C   UNL     1       7.811   6.082  19.105  0.00  0.00    +0.000 A 
ATOM     10  C   UNL     1       7.983   7.069  18.136  0.00  0.00    +0.000 A 
ATOM     11  C   UNL     1       6.941   7.377  17.264  0.00  0.00    +0.000 A 
ATOM     12  C   UNL     1       5.736   6.675  17.337  0.00  0.00    +0.000 A 
ENDBRANCH   4   7
BRANCH   6  13
ATOM     13  C   UNL     1       0.987   4.020  19.385  0.00  0.00    +0.000 C 
ATOM     14  O   UNL     1       0.688   4.165  20.566  0.00  0.00    +0.000 OA
ENDBRANCH   6  13
BRANCH   5  15
ATOM     15  O   UNL     1       3.177   6.213  19.989  0.00  0.00    +0.000 OA
BRANCH  15  16
ATOM     16  C   UNL     1       2.386   7.300  19.694  0.00  0.00    +0.000 A 
ATOM     17  C   UNL     1       1.590   7.964  20.633  0.00  0.00    +0.000 A 
ATOM     18  C   UNL     1       0.799   9.044  20.239  0.00  0.00    +0.000 A 
ATOM     19  C   UNL     1       0.844   9.491  18.919  0.00  0.00    +0.000 A 
ATOM     20 CL   UNL     1      -0.120  10.829  18.439  0.00  0.00    +0.000 Cl
ATOM     21  C   UNL     1       1.671   8.861  17.989  0.00  0.00    +0.000 A 
ATOM     22  C   UNL     1       2.444   7.762  18.378  0.00  0.00    +0.000 A 
ENDBRANCH  15  16
ENDBRANCH   5  15
TORSDOF 4
ENDMDL
MODEL 9
REMARK VINA RESULT:      -8.1      3.900      6.615
REMARK  Name = 
REMARK  5 active torsions:
REMARK  status: ('A' for Active; 'I' for Inactive)
REMARK    1  A    between atoms: C_1  and  C_2
REMARK    2  A    between atoms: N_4  and  C_5
REMARK    3  A    between atoms: C_11  and  O_12
REMARK    4  A    between atoms: O_12  and  C_13
REMARK    5  A    between atoms: C_20  and  C_21
REMARK                            x       y       z     vdW  Elec       q    Type
REMARK                         _______ _______ _______ _____ _____    ______ ____
ROOT
ATOM      1  C   UNL     1       1.385   2.375  20.433  0.00  0.00    +0.000 C 
ATOM      2  C   UNL     1       2.140   3.616  20.139  0.00  0.00    +0.000 A 
ATOM      3  N   UNL     1       1.533   4.809  20.139  0.00  0.00    +0.000 NA
ATOM      4  N   UNL     1       2.470   5.685  19.689  0.00  0.00    +0.000 N 
ATOM      5  C   UNL     1       3.696   5.057  19.481  0.00  0.00    +0.000 A 
ATOM      6  C   UNL     1       3.522   3.736  19.857  0.00  0.00    +0.000 A 
ENDROOT
BRANCH   4   7
ATOM      7  C   UNL     1       2.128   7.051  19.470  0.00  0.00    +0.000 A 
ATOM      8  C   UNL     1       2.269   7.593  18.184  0.00  0.00    +0.000 A 
ATOM      9  C   UNL     1       1.877   8.910  17.935  0.00  0.00    +0.000 A 
ATOM     10  C   UNL     1       1.390   9.706  18.971  0.00  0.00    +0.000 A 
ATOM     11  C   UNL     1       1.294   9.186  20.260  0.00  0.00    +0.000 A 
ATOM     12  C   UNL     1       1.651   7.859  20.510  0.00  0.00    +0.000 A 
ENDBRANCH   4   7
BRANCH   6  13
ATOM     13  C   UNL     1       4.534   2.708  19.910  0.00  0.00    +0.000 C 
ATOM     14  O   UNL     1       4.817   2.083  20.926  0.00  0.00    +0.000 OA
ENDBRANCH   6  13
BRANCH   5  15
ATOM     15  O   UNL     1       4.767   5.743  19.071  0.00  0.00    +0.000 OA
BRANCH  15  16
ATOM     16  C   UNL     1       5.311   5.564  17.819  0.00  0.00    +0.000 A 
ATOM     17  C   UNL     1       4.752   6.079  16.645  0.00  0.00    +0.000 A 
ATOM     18  C   UNL     1       5.357   5.825  15.414  0.00  0.00    +0.000 A 
ATOM     19  C   UNL     1       6.547   5.101  15.363  0.00  0.00    +0.000 A 
ATOM     20 CL   UNL     1       7.299   4.801  13.848  0.00  0.00    +0.000 Cl
ATOM     21  C   UNL     1       7.133   4.624  16.535  0.00  0.00    +0.000 A 
ATOM     22  C   UNL     1       6.512   4.856  17.767  0.00  0.00    +0.000 A 
ENDBRANCH  15  16
ENDBRANCH   5  15
TORSDOF 4
ENDMDL
