MODEL 1
REMARK VINA RESULT:      -7.3      0.000      0.000
REMARK  Name = 
REMARK  9 active torsions:
REMARK  status: ('A' for Active; 'I' for Inactive)
REMARK    1  A    between atoms: C_1  and  C_2
REMARK    2  A    between atoms: C_2  and  C_3
REMARK    3  A    between atoms: C_3  and  C_4
REMARK    4  A    between atoms: C_9  and  C_10
REMARK    5  A    between atoms: C_13  and  O_14
REMARK    6  A    between atoms: C_15  and  O_16
REMARK    7  A    between atoms: O_16  and  C_17
REMARK    8  A    between atoms: C_19  and  C_20
REMARK    9  A    between atoms: C_22  and  N_23
REMARK                            x       y       z     vdW  Elec       q    Type
REMARK                         _______ _______ _______ _____ _____    ______ ____
ROOT
ATOM      1  C   UNL     1       2.083   2.770  19.300  0.00  0.00    +0.000 A 
ATOM      2  N   UNL     1       1.634   2.296  20.476  0.00  0.00    +0.000 NA
ATOM      3  N   UNL     1       1.298   3.399  21.175  0.00  0.00    +0.000 N 
ATOM      4  C   UNL     1       1.530   4.545  20.489  0.00  0.00    +0.000 A 
ATOM      5  C   UNL     1       2.029   4.184  19.261  0.00  0.00    +0.000 A 
ATOM      6  C   UNL     1       2.378   5.235  18.265  0.00  0.00    +0.000 C 
ATOM      7  C   UNL     1       2.243   6.613  18.898  0.00  0.00    +0.000 C 
ATOM      8  C   UNL     1       1.778   6.828  20.157  0.00  0.00    +0.000 C 
ATOM      9  O   UNL     1       1.332   5.768  20.968  0.00  0.00    +0.000 OA
ATOM     10  H   UNL     1       0.941   3.292  22.117  0.00  0.00    +0.000 HD
ENDROOT
BRANCH   6  11
ATOM     11  C   UNL     1       3.796   4.957  17.786  0.00  0.00    +0.000 A 
ATOM     12  C   UNL     1       4.078   4.511  16.488  0.00  0.00    +0.000 A 
ATOM     13  C   UNL     1       5.388   4.215  16.111  0.00  0.00    +0.000 A 
ATOM     14  C   UNL     1       6.438   4.358  17.025  0.00  0.00    +0.000 A 
ATOM     15  C   UNL     1       6.185   4.805  18.324  0.00  0.00    +0.000 A 
ATOM     16  C   UNL     1       4.863   5.088  18.693  0.00  0.00    +0.000 A 
BRANCH  14  17
ATOM     17  O   UNL     1       7.702   4.046  16.607  0.00  0.00    +0.000 OA
ATOM     18  H   UNL     1       7.675   3.808  15.666  0.00  0.00    +0.000 HD
ENDBRANCH  14  17
BRANCH  15  19
ATOM     19  O   UNL     1       7.073   5.012  19.346  0.00  0.00    +0.000 OA
ATOM     20  C   UNL     1       7.971   6.107  19.243  0.00  0.00    +0.000 C 
ENDBRANCH  15  19
ENDBRANCH   6  11
BRANCH   8  21
ATOM     21  N   UNL     1       1.724   8.049  20.788  0.00  0.00    +0.000 N 
ATOM     22  H   UNL     1       1.500   8.037  21.780  0.00  0.00    +0.000 HD
ATOM     23  H   UNL     1       2.506   8.653  20.553  0.00  0.00    +0.000 HD
ENDBRANCH   8  21
BRANCH   7  24
ATOM     24  C   UNL     1       2.813   7.777  18.103  0.00  0.00    +0.000 C 
ATOM     25  N   UNL     1       3.285   8.742  17.444  0.00  0.00    +0.000 NA
ENDBRANCH   7  24
BRANCH   1  26
ATOM     26  C   UNL     1       2.623   1.837  18.267  0.00  0.00    +0.000 C 
BRANCH  26  28
ATOM     27  C   UNL     1       4.517   1.839  19.899  0.00  0.00    +0.000 C 
ATOM     28  C   UNL     1       4.067   1.409  18.510  0.00  0.00    +0.000 C 
ENDBRANCH  26  28
ENDBRANCH   1  26
TORSDOF 7
ENDMDL
MODEL 2
REMARK VINA RESULT:      -7.1      0.734      1.816
REMARK  Name = 
REMARK  9 active torsions:
REMARK  status: ('A' for Active; 'I' for Inactive)
REMARK    1  A    between atoms: C_1  and  C_2
REMARK    2  A    between atoms: C_2  and  C_3
REMARK    3  A    between atoms: C_3  and  C_4
REMARK    4  A    between atoms: C_9  and  C_10
REMARK    5  A    between atoms: C_13  and  O_14
REMARK    6  A    between atoms: C_15  and  O_16
REMARK    7  A    between atoms: O_16  and  C_17
REMARK    8  A    between atoms: C_19  and  C_20
REMARK    9  A    between atoms: C_22  and  N_23
REMARK                            x       y       z     vdW  Elec       q    Type
REMARK                         _______ _______ _______ _____ _____    ______ ____
ROOT
ATOM      1  C   UNL     1       2.168   2.769  19.335  0.00  0.00    +0.000 A 
ATOM      2  N   UNL     1       1.599   2.311  20.464  0.00  0.00    +0.000 NA
ATOM      3  N   UNL     1       1.172   3.421  21.098  0.00  0.00    +0.000 N 
ATOM      4  C   UNL     1       1.460   4.558  20.417  0.00  0.00    +0.000 A 
ATOM      5  C   UNL     1       2.097   4.181  19.259  0.00  0.00    +0.000 A 
ATOM      6  C   UNL     1       2.537   5.218  18.285  0.00  0.00    +0.000 C 
ATOM      7  C   UNL     1       2.313   6.606  18.869  0.00  0.00    +0.000 C 
ATOM      8  C   UNL     1       1.709   6.838  20.065  0.00  0.00    +0.000 C 
ATOM      9  O   UNL     1       1.193   5.787  20.845  0.00  0.00    +0.000 OA
ATOM     10  H   UNL     1       0.715   3.327  21.997  0.00  0.00    +0.000 HD
ENDROOT
BRANCH   6  11
ATOM     11  C   UNL     1       4.004   4.955  17.971  0.00  0.00    +0.000 A 
ATOM     12  C   UNL     1       5.036   5.302  18.853  0.00  0.00    +0.000 A 
ATOM     13  C   UNL     1       6.369   5.095  18.498  0.00  0.00    +0.000 A 
ATOM     14  C   UNL     1       6.693   4.538  17.255  0.00  0.00    +0.000 A 
ATOM     15  C   UNL     1       5.683   4.179  16.360  0.00  0.00    +0.000 A 
ATOM     16  C   UNL     1       4.349   4.404  16.724  0.00  0.00    +0.000 A 
BRANCH  14  17
ATOM     17  O   UNL     1       8.016   4.365  16.954  0.00  0.00    +0.000 OA
ATOM     18  H   UNL     1       8.502   4.156  17.768  0.00  0.00    +0.000 HD
ENDBRANCH  14  17
BRANCH  15  19
ATOM     19  O   UNL     1       5.803   3.621  15.114  0.00  0.00    +0.000 OA
ATOM     20  C   UNL     1       6.225   4.452  14.044  0.00  0.00    +0.000 C 
ENDBRANCH  15  19
ENDBRANCH   6  11
BRANCH   8  21
ATOM     21  N   UNL     1       1.567   8.069  20.660  0.00  0.00    +0.000 N 
ATOM     22  H   UNL     1       0.618   8.364  20.872  0.00  0.00    +0.000 HD
ATOM     23  H   UNL     1       2.222   8.220  21.422  0.00  0.00    +0.000 HD
ENDBRANCH   8  21
BRANCH   7  24
ATOM     24  C   UNL     1       2.949   7.763  18.117  0.00  0.00    +0.000 C 
ATOM     25  N   UNL     1       3.477   8.724  17.493  0.00  0.00    +0.000 NA
ENDBRANCH   7  24
BRANCH   1  26
ATOM     26  C   UNL     1       2.832   1.825  18.387  0.00  0.00    +0.000 C 
BRANCH  26  28
ATOM     27  C   UNL     1       4.699   1.963  20.044  0.00  0.00    +0.000 C 
ATOM     28  C   UNL     1       4.040   1.103  18.975  0.00  0.00    +0.000 C 
ENDBRANCH  26  28
ENDBRANCH   1  26
TORSDOF 7
ENDMDL
MODEL 3
REMARK VINA RESULT:      -7.1      0.735      1.074
REMARK  Name = 
REMARK  9 active torsions:
REMARK  status: ('A' for Active; 'I' for Inactive)
REMARK    1  A    between atoms: C_1  and  C_2
REMARK    2  A    between atoms: C_2  and  C_3
REMARK    3  A    between atoms: C_3  and  C_4
REMARK    4  A    between atoms: C_9  and  C_10
REMARK    5  A    between atoms: C_13  and  O_14
REMARK    6  A    between atoms: C_15  and  O_16
REMARK    7  A    between atoms: O_16  and  C_17
REMARK    8  A    between atoms: C_19  and  C_20
REMARK    9  A    between atoms: C_22  and  N_23
REMARK                            x       y       z     vdW  Elec       q    Type
REMARK                         _______ _______ _______ _____ _____    ______ ____
ROOT
ATOM      1  C   UNL     1       2.903   2.906  20.117  0.00  0.00    +0.000 A 
ATOM      2  N   UNL     1       2.694   2.576  21.403  0.00  0.00    +0.000 NA
ATOM      3  N   UNL     1       2.260   3.716  21.976  0.00  0.00    +0.000 N 
ATOM      4  C   UNL     1       2.200   4.751  21.102  0.00  0.00    +0.000 A 
ATOM      5  C   UNL     1       2.598   4.268  19.880  0.00  0.00    +0.000 A 
ATOM      6  C   UNL     1       2.631   5.176  18.700  0.00  0.00    +0.000 C 
ATOM      7  C   UNL     1       2.336   6.604  19.137  0.00  0.00    +0.000 C 
ATOM      8  C   UNL     1       2.002   6.956  20.406  0.00  0.00    +0.000 C 
ATOM      9  O   UNL     1       1.852   5.993  21.422  0.00  0.00    +0.000 OA
ATOM     10  H   UNL     1       2.047   3.717  22.967  0.00  0.00    +0.000 HD
ENDROOT
BRANCH   6  11
ATOM     11  C   UNL     1       4.005   5.041  18.058  0.00  0.00    +0.000 A 
ATOM     12  C   UNL     1       4.176   4.668  16.718  0.00  0.00    +0.000 A 
ATOM     13  C   UNL     1       5.456   4.502  16.189  0.00  0.00    +0.000 A 
ATOM     14  C   UNL     1       6.586   4.705  16.990  0.00  0.00    +0.000 A 
ATOM     15  C   UNL     1       6.443   5.082  18.327  0.00  0.00    +0.000 A 
ATOM     16  C   UNL     1       5.152   5.234  18.849  0.00  0.00    +0.000 A 
BRANCH  14  17
ATOM     17  O   UNL     1       7.817   4.520  16.423  0.00  0.00    +0.000 OA
ATOM     18  H   UNL     1       8.500   4.627  17.105  0.00  0.00    +0.000 HD
ENDBRANCH  14  17
BRANCH  15  19
ATOM     19  O   UNL     1       7.420   5.331  19.255  0.00  0.00    +0.000 OA
ATOM     20  C   UNL     1       8.176   6.525  19.129  0.00  0.00    +0.000 C 
ENDBRANCH  15  19
ENDBRANCH   6  11
BRANCH   8  21
ATOM     21  N   UNL     1       1.813   8.243  20.853  0.00  0.00    +0.000 N 
ATOM     22  H   UNL     1       2.444   8.949  20.482  0.00  0.00    +0.000 HD
ATOM     23  H   UNL     1       0.838   8.526  20.852  0.00  0.00    +0.000 HD
ENDBRANCH   8  21
BRANCH   7  24
ATOM     24  C   UNL     1       2.590   7.690  18.104  0.00  0.00    +0.000 C 
ATOM     25  N   UNL     1       2.801   8.591  17.247  0.00  0.00    +0.000 NA
ENDBRANCH   7  24
BRANCH   1  26
ATOM     26  C   UNL     1       3.464   1.905  19.161  0.00  0.00    +0.000 C 
BRANCH  26  28
ATOM     27  C   UNL     1       1.114   1.840  18.313  0.00  0.00    +0.000 C 
ATOM     28  C   UNL     1       2.577   1.639  17.949  0.00  0.00    +0.000 C 
ENDBRANCH  26  28
ENDBRANCH   1  26
TORSDOF 7
ENDMDL
MODEL 4
REMARK VINA RESULT:      -6.9      1.150      2.152
REMARK  Name = 
REMARK  9 active torsions:
REMARK  status: ('A' for Active; 'I' for Inactive)
REMARK    1  A    between atoms: C_1  and  C_2
REMARK    2  A    between atoms: C_2  and  C_3
REMARK    3  A    between atoms: C_3  and  C_4
REMARK    4  A    between atoms: C_9  and  C_10
REMARK    5  A    between atoms: C_13  and  O_14
REMARK    6  A    between atoms: C_15  and  O_16
REMARK    7  A    between atoms: O_16  and  C_17
REMARK    8  A    between atoms: C_19  and  C_20
REMARK    9  A    between atoms: C_22  and  N_23
REMARK                            x       y       z     vdW  Elec       q    Type
REMARK                         _______ _______ _______ _____ _____    ______ ____
ROOT
ATOM      1  C   UNL     1       3.076   3.017  20.121  0.00  0.00    +0.000 A 
ATOM      2  N   UNL     1       2.841   2.617  21.383  0.00  0.00    +0.000 NA
ATOM      3  N   UNL     1       2.276   3.687  21.975  0.00  0.00    +0.000 N 
ATOM      4  C   UNL     1       2.157   4.748  21.138  0.00  0.00    +0.000 A 
ATOM      5  C   UNL     1       2.654   4.353  19.920  0.00  0.00    +0.000 A 
ATOM      6  C   UNL     1       2.653   5.308  18.776  0.00  0.00    +0.000 C 
ATOM      7  C   UNL     1       2.206   6.684  19.250  0.00  0.00    +0.000 C 
ATOM      8  C   UNL     1       1.783   6.951  20.514  0.00  0.00    +0.000 C 
ATOM      9  O   UNL     1       1.680   5.938  21.485  0.00  0.00    +0.000 OA
ATOM     10  H   UNL     1       2.020   3.628  22.954  0.00  0.00    +0.000 HD
ENDROOT
BRANCH   6  11
ATOM     11  C   UNL     1       4.061   5.328  18.197  0.00  0.00    +0.000 A 
ATOM     12  C   UNL     1       5.197   5.541  18.990  0.00  0.00    +0.000 A 
ATOM     13  C   UNL     1       6.463   5.608  18.407  0.00  0.00    +0.000 A 
ATOM     14  C   UNL     1       6.615   5.464  17.023  0.00  0.00    +0.000 A 
ATOM     15  C   UNL     1       5.500   5.246  16.212  0.00  0.00    +0.000 A 
ATOM     16  C   UNL     1       4.233   5.193  16.808  0.00  0.00    +0.000 A 
BRANCH  14  17
ATOM     17  O   UNL     1       7.877   5.547  16.503  0.00  0.00    +0.000 OA
ATOM     18  H   UNL     1       8.397   6.175  17.030  0.00  0.00    +0.000 HD
ENDBRANCH  14  17
BRANCH  15  19
ATOM     19  O   UNL     1       5.450   5.076  14.853  0.00  0.00    +0.000 OA
ATOM     20  C   UNL     1       6.054   3.917  14.299  0.00  0.00    +0.000 C 
ENDBRANCH  15  19
ENDBRANCH   6  11
BRANCH   8  21
ATOM     21  N   UNL     1       1.454   8.195  20.998  0.00  0.00    +0.000 N 
ATOM     22  H   UNL     1       2.223   8.767  21.340  0.00  0.00    +0.000 HD
ATOM     23  H   UNL     1       0.808   8.698  20.396  0.00  0.00    +0.000 HD
ENDBRANCH   8  21
BRANCH   7  24
ATOM     24  C   UNL     1       2.402   7.829  18.271  0.00  0.00    +0.000 C 
ATOM     25  N   UNL     1       2.565   8.780  17.458  0.00  0.00    +0.000 NA
ENDBRANCH   7  24
BRANCH   1  26
ATOM     26  C   UNL     1       3.771   2.113  19.158  0.00  0.00    +0.000 C 
BRANCH  26  28
ATOM     27  C   UNL     1       1.475   1.860  18.202  0.00  0.00    +0.000 C 
ATOM     28  C   UNL     1       2.966   1.810  17.898  0.00  0.00    +0.000 C 
ENDBRANCH  26  28
ENDBRANCH   1  26
TORSDOF 7
ENDMDL
MODEL 5
REMARK VINA RESULT:      -6.5      2.385      4.948
REMARK  Name = 
REMARK  9 active torsions:
REMARK  status: ('A' for Active; 'I' for Inactive)
REMARK    1  A    between atoms: C_1  and  C_2
REMARK    2  A    between atoms: C_2  and  C_3
REMARK    3  A    between atoms: C_3  and  C_4
REMARK    4  A    between atoms: C_9  and  C_10
REMARK    5  A    between atoms: C_13  and  O_14
REMARK    6  A    between atoms: C_15  and  O_16
REMARK    7  A    between atoms: O_16  and  C_17
REMARK    8  A    between atoms: C_19  and  C_20
REMARK    9  A    between atoms: C_22  and  N_23
REMARK                            x       y       z     vdW  Elec       q    Type
REMARK                         _______ _______ _______ _____ _____    ______ ____
ROOT
ATOM      1  C   UNL     1       1.979   3.610  18.843  0.00  0.00    +0.000 A 
ATOM      2  N   UNL     1       1.573   2.501  18.201  0.00  0.00    +0.000 NA
ATOM      3  N   UNL     1       2.490   2.321  17.230  0.00  0.00    +0.000 N 
ATOM      4  C   UNL     1       3.448   3.280  17.230  0.00  0.00    +0.000 A 
ATOM      5  C   UNL     1       3.162   4.132  18.269  0.00  0.00    +0.000 A 
ATOM      6  C   UNL     1       4.050   5.298  18.536  0.00  0.00    +0.000 C 
ATOM      7  C   UNL     1       5.097   5.415  17.436  0.00  0.00    +0.000 C 
ATOM      8  C   UNL     1       5.238   4.518  16.424  0.00  0.00    +0.000 C 
ATOM      9  O   UNL     1       4.438   3.363  16.347  0.00  0.00    +0.000 OA
ATOM     10  H   UNL     1       2.384   1.539  16.594  0.00  0.00    +0.000 HD
ENDROOT
BRANCH   6  11
ATOM     11  C   UNL     1       3.166   6.535  18.622  0.00  0.00    +0.000 A 
ATOM     12  C   UNL     1       2.897   7.346  17.512  0.00  0.00    +0.000 A 
ATOM     13  C   UNL     1       2.128   8.501  17.651  0.00  0.00    +0.000 A 
ATOM     14  C   UNL     1       1.615   8.866  18.902  0.00  0.00    +0.000 A 
ATOM     15  C   UNL     1       1.865   8.072  20.023  0.00  0.00    +0.000 A 
ATOM     16  C   UNL     1       2.649   6.921  19.872  0.00  0.00    +0.000 A 
BRANCH  14  17
ATOM     17  O   UNL     1       0.875  10.013  18.984  0.00  0.00    +0.000 OA
ATOM     18  H   UNL     1       0.327  10.095  18.187  0.00  0.00    +0.000 HD
ENDBRANCH  14  17
BRANCH  15  19
ATOM     19  O   UNL     1       1.447   8.259  21.314  0.00  0.00    +0.000 OA
ATOM     20  C   UNL     1       0.052   8.339  21.564  0.00  0.00    +0.000 C 
ENDBRANCH  15  19
ENDBRANCH   6  11
BRANCH   8  21
ATOM     21  N   UNL     1       6.114   4.637  15.371  0.00  0.00    +0.000 N 
ATOM     22  H   UNL     1       5.988   3.985  14.601  0.00  0.00    +0.000 HD
ATOM     23  H   UNL     1       6.249   5.599  15.073  0.00  0.00    +0.000 HD
ENDBRANCH   8  21
BRANCH   7  24
ATOM     24  C   UNL     1       5.911   6.698  17.415  0.00  0.00    +0.000 C 
ATOM     25  N   UNL     1       6.586   7.763  17.398  0.00  0.00    +0.000 NA
ENDBRANCH   7  24
BRANCH   1  26
ATOM     26  C   UNL     1       1.165   4.178  19.959  0.00  0.00    +0.000 C 
BRANCH  26  28
ATOM     27  C   UNL     1       2.565   2.877  21.569  0.00  0.00    +0.000 C 
ATOM     28  C   UNL     1       1.152   3.317  21.218  0.00  0.00    +0.000 C 
ENDBRANCH  26  28
ENDBRANCH   1  26
TORSDOF 7
ENDMDL
MODEL 6
REMARK VINA RESULT:      -6.2      2.494      4.622
REMARK  Name = 
REMARK  9 active torsions:
REMARK  status: ('A' for Active; 'I' for Inactive)
REMARK    1  A    between atoms: C_1  and  C_2
REMARK    2  A    between atoms: C_2  and  C_3
REMARK    3  A    between atoms: C_3  and  C_4
REMARK    4  A    between atoms: C_9  and  C_10
REMARK    5  A    between atoms: C_13  and  O_14
REMARK    6  A    between atoms: C_15  and  O_16
REMARK    7  A    between atoms: O_16  and  C_17
REMARK    8  A    between atoms: C_19  and  C_20
REMARK    9  A    between atoms: C_22  and  N_23
REMARK                            x       y       z     vdW  Elec       q    Type
REMARK                         _______ _______ _______ _____ _____    ______ ____
ROOT
ATOM      1  C   UNL     1       5.506   5.584  16.552  0.00  0.00    +0.000 A 
ATOM      2  N   UNL     1       5.745   6.126  15.344  0.00  0.00    +0.000 NA
ATOM      3  N   UNL     1       4.967   7.225  15.311  0.00  0.00    +0.000 N 
ATOM      4  C   UNL     1       4.241   7.389  16.444  0.00  0.00    +0.000 A 
ATOM      5  C   UNL     1       4.568   6.351  17.283  0.00  0.00    +0.000 A 
ATOM      6  C   UNL     1       3.933   6.257  18.627  0.00  0.00    +0.000 C 
ATOM      7  C   UNL     1       2.855   7.323  18.766  0.00  0.00    +0.000 C 
ATOM      8  C   UNL     1       2.597   8.269  17.825  0.00  0.00    +0.000 C 
ATOM      9  O   UNL     1       3.360   8.362  16.646  0.00  0.00    +0.000 OA
ATOM     10  H   UNL     1       4.967   7.801  14.476  0.00  0.00    +0.000 HD
ENDROOT
BRANCH   6  11
ATOM     11  C   UNL     1       3.373   4.849  18.769  0.00  0.00    +0.000 A 
ATOM     12  C   UNL     1       2.372   4.349  17.925  0.00  0.00    +0.000 A 
ATOM     13  C   UNL     1       1.848   3.072  18.128  0.00  0.00    +0.000 A 
ATOM     14  C   UNL     1       2.314   2.274  19.179  0.00  0.00    +0.000 A 
ATOM     15  C   UNL     1       3.314   2.746  20.032  0.00  0.00    +0.000 A 
ATOM     16  C   UNL     1       3.823   4.035  19.824  0.00  0.00    +0.000 A 
BRANCH  14  17
ATOM     17  O   UNL     1       1.760   1.034  19.340  0.00  0.00    +0.000 OA
ATOM     18  H   UNL     1       0.872   1.030  18.946  0.00  0.00    +0.000 HD
ENDBRANCH  14  17
BRANCH  15  19
ATOM     19  O   UNL     1       3.897   2.116  21.100  0.00  0.00    +0.000 OA
ATOM     20  C   UNL     1       5.107   1.407  20.881  0.00  0.00    +0.000 C 
ENDBRANCH  15  19
ENDBRANCH   6  11
BRANCH   8  21
ATOM     21  N   UNL     1       1.578   9.191  17.880  0.00  0.00    +0.000 N 
ATOM     22  H   UNL     1       0.659   8.836  18.133  0.00  0.00    +0.000 HD
ATOM     23  H   UNL     1       1.837  10.041  18.372  0.00  0.00    +0.000 HD
ENDBRANCH   8  21
BRANCH   7  24
ATOM     24  C   UNL     1       1.935   7.196  19.969  0.00  0.00    +0.000 C 
ATOM     25  N   UNL     1       1.172   7.091  20.967  0.00  0.00    +0.000 NA
ENDBRANCH   7  24
BRANCH   1  26
ATOM     26  C   UNL     1       6.144   4.290  16.939  0.00  0.00    +0.000 C 
BRANCH  26  28
ATOM     27  C   UNL     1       7.628   5.401  18.616  0.00  0.00    +0.000 C 
ATOM     28  C   UNL     1       7.577   4.432  17.444  0.00  0.00    +0.000 C 
ENDBRANCH  26  28
ENDBRANCH   1  26
TORSDOF 7
ENDMDL
MODEL 7
REMARK VINA RESULT:      -5.9      9.725     11.936
REMARK  Name = 
REMARK  9 active torsions:
REMARK  status: ('A' for Active; 'I' for Inactive)
REMARK    1  A    between atoms: C_1  and  C_2
REMARK    2  A    between atoms: C_2  and  C_3
REMARK    3  A    between atoms: C_3  and  C_4
REMARK    4  A    between atoms: C_9  and  C_10
REMARK    5  A    between atoms: C_13  and  O_14
REMARK    6  A    between atoms: C_15  and  O_16
REMARK    7  A    between atoms: O_16  and  C_17
REMARK    8  A    between atoms: C_19  and  C_20
REMARK    9  A    between atoms: C_22  and  N_23
REMARK                            x       y       z     vdW  Elec       q    Type
REMARK                         _______ _______ _______ _____ _____    ______ ____
ROOT
ATOM      1  C   UNL     1       8.928  12.845  21.862  0.00  0.00    +0.000 A 
ATOM      2  N   UNL     1       8.654  11.546  22.079  0.00  0.00    +0.000 NA
ATOM      3  N   UNL     1       9.422  10.888  21.188  0.00  0.00    +0.000 N 
ATOM      4  C   UNL     1      10.158  11.723  20.413  0.00  0.00    +0.000 A 
ATOM      5  C   UNL     1       9.877  13.003  20.824  0.00  0.00    +0.000 A 
ATOM      6  C   UNL     1      10.546  14.157  20.161  0.00  0.00    +0.000 C 
ATOM      7  C   UNL     1      11.360  13.670  18.971  0.00  0.00    +0.000 C 
ATOM      8  C   UNL     1      11.515  12.360  18.642  0.00  0.00    +0.000 C 
ATOM      9  O   UNL     1      10.958  11.333  19.427  0.00  0.00    +0.000 OA
ATOM     10  H   UNL     1       9.375   9.877  21.152  0.00  0.00    +0.000 HD
ENDROOT
BRANCH   6  11
ATOM     11  C   UNL     1       9.459  15.141  19.751  0.00  0.00    +0.000 A 
ATOM     12  C   UNL     1       9.366  16.430  20.294  0.00  0.00    +0.000 A 
ATOM     13  C   UNL     1       8.319  17.276  19.930  0.00  0.00    +0.000 A 
ATOM     14  C   UNL     1       7.346  16.850  19.019  0.00  0.00    +0.000 A 
ATOM     15  C   UNL     1       7.417  15.572  18.460  0.00  0.00    +0.000 A 
ATOM     16  C   UNL     1       8.467  14.727  18.843  0.00  0.00    +0.000 A 
BRANCH  14  17
ATOM     17  O   UNL     1       6.336  17.717  18.704  0.00  0.00    +0.000 OA
ATOM     18  H   UNL     1       5.513  17.409  19.117  0.00  0.00    +0.000 HD
ENDBRANCH  14  17
BRANCH  15  19
ATOM     19  O   UNL     1       6.572  14.985  17.556  0.00  0.00    +0.000 OA
ATOM     20  C   UNL     1       5.277  14.606  17.997  0.00  0.00    +0.000 C 
ENDBRANCH  15  19
ENDBRANCH   6  11
BRANCH   8  21
ATOM     21  N   UNL     1      12.171  11.890  17.528  0.00  0.00    +0.000 N 
ATOM     22  H   UNL     1      11.588  11.537  16.774  0.00  0.00    +0.000 HD
ATOM     23  H   UNL     1      12.914  12.508  17.215  0.00  0.00    +0.000 HD
ENDBRANCH   8  21
BRANCH   7  24
ATOM     24  C   UNL     1      11.888  14.743  18.033  0.00  0.00    +0.000 C 
ATOM     25  N   UNL     1      12.327  15.633  17.254  0.00  0.00    +0.000 NA
ENDBRANCH   7  24
BRANCH   1  26
ATOM     26  C   UNL     1       8.204  13.906  22.623  0.00  0.00    +0.000 C 
BRANCH  26  28
ATOM     27  C   UNL     1       5.765  13.502  22.991  0.00  0.00    +0.000 C 
ATOM     28  C   UNL     1       6.796  14.189  22.108  0.00  0.00    +0.000 C 
ENDBRANCH  26  28
ENDBRANCH   1  26
TORSDOF 7
ENDMDL
MODEL 8
REMARK VINA RESULT:      -5.8      5.993      8.473
REMARK  Name = 
REMARK  9 active torsions:
REMARK  status: ('A' for Active; 'I' for Inactive)
REMARK    1  A    between atoms: C_1  and  C_2
REMARK    2  A    between atoms: C_2  and  C_3
REMARK    3  A    between atoms: C_3  and  C_4
REMARK    4  A    between atoms: C_9  and  C_10
REMARK    5  A    between atoms: C_13  and  O_14
REMARK    6  A    between atoms: C_15  and  O_16
REMARK    7  A    between atoms: O_16  and  C_17
REMARK    8  A    between atoms: C_19  and  C_20
REMARK    9  A    between atoms: C_22  and  N_23
REMARK                            x       y       z     vdW  Elec       q    Type
REMARK                         _______ _______ _______ _____ _____    ______ ____
ROOT
ATOM      1  C   UNL     1      -2.350  11.238  18.307  0.00  0.00    +0.000 A 
ATOM      2  N   UNL     1      -3.633  11.524  18.589  0.00  0.00    +0.000 NA
ATOM      3  N   UNL     1      -3.565  12.590  19.411  0.00  0.00    +0.000 N 
ATOM      4  C   UNL     1      -2.291  12.977  19.665  0.00  0.00    +0.000 A 
ATOM      5  C   UNL     1      -1.468  12.133  18.958  0.00  0.00    +0.000 A 
ATOM      6  C   UNL     1       0.009  12.311  19.026  0.00  0.00    +0.000 C 
ATOM      7  C   UNL     1       0.355  13.377  20.056  0.00  0.00    +0.000 C 
ATOM      8  C   UNL     1      -0.569  14.111  20.729  0.00  0.00    +0.000 C 
ATOM      9  O   UNL     1      -1.947  13.967  20.480  0.00  0.00    +0.000 OA
ATOM     10  H   UNL     1      -4.425  12.984  19.775  0.00  0.00    +0.000 HD
ENDROOT
BRANCH   6  11
ATOM     11  C   UNL     1       0.616  10.958  19.372  0.00  0.00    +0.000 A 
ATOM     12  C   UNL     1       1.289  10.171  18.427  0.00  0.00    +0.000 A 
ATOM     13  C   UNL     1       1.779   8.913  18.775  0.00  0.00    +0.000 A 
ATOM     14  C   UNL     1       1.605   8.418  20.073  0.00  0.00    +0.000 A 
ATOM     15  C   UNL     1       0.942   9.183  21.035  0.00  0.00    +0.000 A 
ATOM     16  C   UNL     1       0.444  10.441  20.669  0.00  0.00    +0.000 A 
BRANCH  14  17
ATOM     17  O   UNL     1       2.097   7.174  20.358  0.00  0.00    +0.000 OA
ATOM     18  H   UNL     1       1.593   6.512  19.859  0.00  0.00    +0.000 HD
ENDBRANCH  14  17
BRANCH  15  19
ATOM     19  O   UNL     1       0.684   8.875  22.344  0.00  0.00    +0.000 OA
ATOM     20  C   UNL     1      -0.285   9.647  23.037  0.00  0.00    +0.000 C 
ENDBRANCH  15  19
ENDBRANCH   6  11
BRANCH   8  21
ATOM     21  N   UNL     1      -0.295  15.020  21.725  0.00  0.00    +0.000 N 
ATOM     22  H   UNL     1      -0.139  15.981  21.431  0.00  0.00    +0.000 HD
ATOM     23  H   UNL     1      -0.915  14.933  22.525  0.00  0.00    +0.000 HD
ENDBRANCH   8  21
BRANCH   7  24
ATOM     24  C   UNL     1       1.822  13.493  20.438  0.00  0.00    +0.000 C 
ATOM     25  N   UNL     1       3.039  13.589  20.754  0.00  0.00    +0.000 NA
ENDBRANCH   7  24
BRANCH   1  26
ATOM     26  C   UNL     1      -2.008  10.053  17.465  0.00  0.00    +0.000 C 
BRANCH  26  28
ATOM     27  C   UNL     1      -2.840  10.485  15.147  0.00  0.00    +0.000 C 
ATOM     28  C   UNL     1      -3.072   9.700  16.429  0.00  0.00    +0.000 C 
ENDBRANCH  26  28
ENDBRANCH   1  26
TORSDOF 7
ENDMDL
MODEL 9
REMARK VINA RESULT:      -5.7      6.700      9.118
REMARK  Name = 
REMARK  9 active torsions:
REMARK  status: ('A' for Active; 'I' for Inactive)
REMARK    1  A    between atoms: C_1  and  C_2
REMARK    2  A    between atoms: C_2  and  C_3
REMARK    3  A    between atoms: C_3  and  C_4
REMARK    4  A    between atoms: C_9  and  C_10
REMARK    5  A    between atoms: C_13  and  O_14
REMARK    6  A    between atoms: C_15  and  O_16
REMARK    7  A    between atoms: O_16  and  C_17
REMARK    8  A    between atoms: C_19  and  C_20
REMARK    9  A    between atoms: C_22  and  N_23
REMARK                            x       y       z     vdW  Elec       q    Type
REMARK                         _______ _______ _______ _____ _____    ______ ____
ROOT
ATOM      1  C   UNL     1      -3.257  11.423  18.363  0.00  0.00    +0.000 A 
ATOM      2  N   UNL     1      -4.590  11.370  18.532  0.00  0.00    +0.000 NA
ATOM      3  N   UNL     1      -4.831  12.201  19.565  0.00  0.00    +0.000 N 
ATOM      4  C   UNL     1      -3.700  12.763  20.060  0.00  0.00    +0.000 A 
ATOM      5  C   UNL     1      -2.655  12.295  19.301  0.00  0.00    +0.000 A 
ATOM      6  C   UNL     1      -1.266  12.744  19.597  0.00  0.00    +0.000 C 
ATOM      7  C   UNL     1      -1.252  13.581  20.869  0.00  0.00    +0.000 C 
ATOM      8  C   UNL     1      -2.370  13.933  21.558  0.00  0.00    +0.000 C 
ATOM      9  O   UNL     1      -3.655  13.579  21.107  0.00  0.00    +0.000 OA
ATOM     10  H   UNL     1      -5.784  12.316  19.891  0.00  0.00    +0.000 HD
ENDROOT
BRANCH   6  11
ATOM     11  C   UNL     1      -0.400  11.498  19.719  0.00  0.00    +0.000 A 
ATOM     12  C   UNL     1       0.546  11.141  18.748  0.00  0.00    +0.000 A 
ATOM     13  C   UNL     1       1.277   9.960  18.874  0.00  0.00    +0.000 A 
ATOM     14  C   UNL     1       1.075   9.114  19.971  0.00  0.00    +0.000 A 
ATOM     15  C   UNL     1       0.142   9.449  20.955  0.00  0.00    +0.000 A 
ATOM     16  C   UNL     1      -0.595  10.632  20.810  0.00  0.00    +0.000 A 
BRANCH  14  17
ATOM     17  O   UNL     1       1.811   7.964  20.041  0.00  0.00    +0.000 OA
ATOM     18  H   UNL     1       1.302   7.237  19.648  0.00  0.00    +0.000 HD
ENDBRANCH  14  17
BRANCH  15  19
ATOM     19  O   UNL     1      -0.187   8.759  22.092  0.00  0.00    +0.000 OA
ATOM     20  C   UNL     1      -0.112   9.441  23.335  0.00  0.00    +0.000 C 
ENDBRANCH  15  19
ENDBRANCH   6  11
BRANCH   8  21
ATOM     21  N   UNL     1      -2.387  14.614  22.753  0.00  0.00    +0.000 N 
ATOM     22  H   UNL     1      -1.603  14.451  23.379  0.00  0.00    +0.000 HD
ATOM     23  H   UNL     1      -2.629  15.595  22.647  0.00  0.00    +0.000 HD
ENDBRANCH   8  21
BRANCH   7  24
ATOM     24  C   UNL     1       0.115  13.895  21.453  0.00  0.00    +0.000 C 
ATOM     25  N   UNL     1       1.250  14.154  21.938  0.00  0.00    +0.000 NA
ENDBRANCH   7  24
BRANCH   1  26
ATOM     26  C   UNL     1      -2.591  10.567  17.337  0.00  0.00    +0.000 C 
BRANCH  26  28
ATOM     27  C   UNL     1      -3.023   9.963  14.950  0.00  0.00    +0.000 C 
ATOM     28  C   UNL     1      -2.710  11.099  15.912  0.00  0.00    +0.000 C 
ENDBRANCH  26  28
ENDBRANCH   1  26
TORSDOF 7
ENDMDL
