MODEL 1
REMARK VINA RESULT:      -6.8      0.000      0.000
REMARK  Name = 
REMARK  7 active torsions:
REMARK  status: ('A' for Active; 'I' for Inactive)
REMARK    1  A    between atoms: C_1  and  C_2
REMARK    2  A    between atoms: C_2  and  C_3
REMARK    3  A    between atoms: C_3  and  N_4
REMARK    4  A    between atoms: N_7  and  S_8
REMARK    5  A    between atoms: S_8  and  C_11
REMARK    6  A    between atoms: C_14  and  C_15
REMARK    7  A    between atoms: C_17  and  C_18
REMARK                            x       y       z     vdW  Elec       q    Type
REMARK                         _______ _______ _______ _____ _____    ______ ____
ROOT
ATOM      1  S   UNL     1       4.731   4.711  18.900  0.00  0.00    +0.000 S 
ATOM      2  O   UNL     1       4.495   3.283  18.899  0.00  0.00    +0.000 OA
ATOM      3  O   UNL     1       5.858   5.285  19.596  0.00  0.00    +0.000 OA
ENDROOT
BRANCH   1   7
ATOM      4  N   UNL     1       6.971   4.369  15.519  0.00  0.00    +0.000 NA
ATOM      5  C   UNL     1       7.128   5.456  16.509  0.00  0.00    +0.000 C 
ATOM      6  C   UNL     1       5.837   6.200  16.912  0.00  0.00    +0.000 C 
ATOM      7  N   UNL     1       4.733   5.268  17.290  0.00  0.00    +0.000 NA
ATOM      8  C   UNL     1       4.541   4.217  16.250  0.00  0.00    +0.000 C 
ATOM      9  C   UNL     1       5.860   3.483  15.943  0.00  0.00    +0.000 C 
BRANCH   4  10
ATOM     10  C   UNL     1       6.795   4.825  14.133  0.00  0.00    +0.000 C 
BRANCH  10  12
ATOM     11  C   UNL     1       6.875   3.449  11.970  0.00  0.00    +0.000 C 
ATOM     12  C   UNL     1       6.072   3.838  13.203  0.00  0.00    +0.000 C 
ENDBRANCH  10  12
ENDBRANCH   4  10
ENDBRANCH   1   7
BRANCH   1  13
ATOM     13  C   UNL     1       3.307   5.418  19.695  0.00  0.00    +0.000 A 
ATOM     14  C   UNL     1       2.396   4.921  20.605  0.00  0.00    +0.000 A 
ATOM     15  C   UNL     1       1.467   5.918  21.035  0.00  0.00    +0.000 A 
ATOM     16  C   UNL     1       1.706   7.145  20.448  0.00  0.00    +0.000 A 
ATOM     17  S   UNL     1       2.992   7.052  19.321  0.00  0.00    +0.000 S 
BRANCH  16  18
ATOM     18  C   UNL     1       1.044   8.387  20.730  0.00  0.00    +0.000 A 
ATOM     19  C   UNL     1       0.568   8.882  21.929  0.00  0.00    +0.000 A 
ATOM     20  C   UNL     1      -0.098  10.078  21.605  0.00  0.00    +0.000 A 
ATOM     21  C   UNL     1      -0.858  10.970  22.508  0.00  0.00    +0.000 C 
ATOM     22  N   UNL     1       0.004  10.350  20.301  0.00  0.00    +0.000 NA
ATOM     23  O   UNL     1       0.722   9.298  19.757  0.00  0.00    +0.000 OA
ENDBRANCH  16  18
ENDBRANCH   1  13
TORSDOF 5
ENDMDL
MODEL 2
REMARK VINA RESULT:      -6.7      2.437      3.229
REMARK  Name = 
REMARK  7 active torsions:
REMARK  status: ('A' for Active; 'I' for Inactive)
REMARK    1  A    between atoms: C_1  and  C_2
REMARK    2  A    between atoms: C_2  and  C_3
REMARK    3  A    between atoms: C_3  and  N_4
REMARK    4  A    between atoms: N_7  and  S_8
REMARK    5  A    between atoms: S_8  and  C_11
REMARK    6  A    between atoms: C_14  and  C_15
REMARK    7  A    between atoms: C_17  and  C_18
REMARK                            x       y       z     vdW  Elec       q    Type
REMARK                         _______ _______ _______ _____ _____    ______ ____
ROOT
ATOM      1  S   UNL     1       2.381   3.943  18.589  0.00  0.00    +0.000 S 
ATOM      2  O   UNL     1       1.770   3.774  17.287  0.00  0.00    +0.000 OA
ATOM      3  O   UNL     1       1.904   3.214  19.741  0.00  0.00    +0.000 OA
ENDROOT
BRANCH   1   7
ATOM      4  N   UNL     1       5.710   6.025  17.517  0.00  0.00    +0.000 NA
ATOM      5  C   UNL     1       4.921   5.190  16.586  0.00  0.00    +0.000 C 
ATOM      6  C   UNL     1       4.618   3.751  17.055  0.00  0.00    +0.000 C 
ATOM      7  N   UNL     1       4.062   3.705  18.440  0.00  0.00    +0.000 NA
ATOM      8  C   UNL     1       4.904   4.496  19.381  0.00  0.00    +0.000 C 
ATOM      9  C   UNL     1       5.116   5.934  18.873  0.00  0.00    +0.000 C 
BRANCH   4  10
ATOM     10  C   UNL     1       7.148   5.724  17.539  0.00  0.00    +0.000 C 
BRANCH  10  12
ATOM     11  C   UNL     1       8.117   8.086  17.784  0.00  0.00    +0.000 C 
ATOM     12  C   UNL     1       8.008   6.686  18.373  0.00  0.00    +0.000 C 
ENDBRANCH  10  12
ENDBRANCH   4  10
ENDBRANCH   1   7
BRANCH   1  13
ATOM     13  C   UNL     1       2.129   5.652  19.004  0.00  0.00    +0.000 A 
ATOM     14  C   UNL     1       2.167   6.814  18.260  0.00  0.00    +0.000 A 
ATOM     15  C   UNL     1       1.792   7.958  19.030  0.00  0.00    +0.000 A 
ATOM     16  C   UNL     1       1.470   7.629  20.332  0.00  0.00    +0.000 A 
ATOM     17  S   UNL     1       1.711   5.960  20.628  0.00  0.00    +0.000 S 
BRANCH  16  18
ATOM     18  C   UNL     1       0.949   8.504  21.345  0.00  0.00    +0.000 A 
ATOM     19  C   UNL     1      -0.237   9.211  21.376  0.00  0.00    +0.000 A 
ATOM     20  C   UNL     1      -0.177   9.998  22.542  0.00  0.00    +0.000 A 
ATOM     21  C   UNL     1      -1.155  11.001  23.014  0.00  0.00    +0.000 C 
ATOM     22  N   UNL     1       0.941   9.754  23.230  0.00  0.00    +0.000 NA
ATOM     23  O   UNL     1       1.641   8.818  22.487  0.00  0.00    +0.000 OA
ENDBRANCH  16  18
ENDBRANCH   1  13
TORSDOF 5
ENDMDL
MODEL 3
REMARK VINA RESULT:      -6.7      1.587      1.890
REMARK  Name = 
REMARK  7 active torsions:
REMARK  status: ('A' for Active; 'I' for Inactive)
REMARK    1  A    between atoms: C_1  and  C_2
REMARK    2  A    between atoms: C_2  and  C_3
REMARK    3  A    between atoms: C_3  and  N_4
REMARK    4  A    between atoms: N_7  and  S_8
REMARK    5  A    between atoms: S_8  and  C_11
REMARK    6  A    between atoms: C_14  and  C_15
REMARK    7  A    between atoms: C_17  and  C_18
REMARK                            x       y       z     vdW  Elec       q    Type
REMARK                         _______ _______ _______ _____ _____    ______ ____
ROOT
ATOM      1  S   UNL     1       3.433   5.537  18.619  0.00  0.00    +0.000 S 
ATOM      2  O   UNL     1       2.409   4.516  18.674  0.00  0.00    +0.000 OA
ATOM      3  O   UNL     1       4.579   5.498  19.496  0.00  0.00    +0.000 OA
ENDROOT
BRANCH   1   7
ATOM      4  N   UNL     1       6.712   4.668  16.369  0.00  0.00    +0.000 NA
ATOM      5  C   UNL     1       6.483   5.972  17.027  0.00  0.00    +0.000 C 
ATOM      6  C   UNL     1       5.107   6.628  16.774  0.00  0.00    +0.000 C 
ATOM      7  N   UNL     1       3.973   5.686  17.009  0.00  0.00    +0.000 NA
ATOM      8  C   UNL     1       4.186   4.400  16.286  0.00  0.00    +0.000 C 
ATOM      9  C   UNL     1       5.553   3.781  16.631  0.00  0.00    +0.000 C 
BRANCH   4  10
ATOM     10  C   UNL     1       7.011   4.752  14.933  0.00  0.00    +0.000 C 
BRANCH  10  12
ATOM     11  C   UNL     1       6.653   3.787  12.584  0.00  0.00    +0.000 C 
ATOM     12  C   UNL     1       6.196   3.808  14.036  0.00  0.00    +0.000 C 
ENDBRANCH  10  12
ENDBRANCH   4  10
ENDBRANCH   1   7
BRANCH   1  13
ATOM     13  C   UNL     1       2.604   7.053  19.034  0.00  0.00    +0.000 A 
ATOM     14  C   UNL     1       2.223   8.150  18.286  0.00  0.00    +0.000 A 
ATOM     15  C   UNL     1       1.480   9.094  19.059  0.00  0.00    +0.000 A 
ATOM     16  C   UNL     1       1.309   8.683  20.366  0.00  0.00    +0.000 A 
ATOM     17  S   UNL     1       2.122   7.206  20.662  0.00  0.00    +0.000 S 
BRANCH  16  18
ATOM     18  C   UNL     1       0.525   9.326  21.383  0.00  0.00    +0.000 A 
ATOM     19  C   UNL     1      -0.499  10.244  21.261  0.00  0.00    +0.000 A 
ATOM     20  C   UNL     1      -0.820  10.630  22.576  0.00  0.00    +0.000 A 
ATOM     21  C   UNL     1      -1.797  11.650  23.013  0.00  0.00    +0.000 C 
ATOM     22  N   UNL     1      -0.090   9.954  23.468  0.00  0.00    +0.000 NA
ATOM     23  O   UNL     1       0.745   9.137  22.724  0.00  0.00    +0.000 OA
ENDBRANCH  16  18
ENDBRANCH   1  13
TORSDOF 5
ENDMDL
MODEL 4
REMARK VINA RESULT:      -6.6      2.043      2.790
REMARK  Name = 
REMARK  7 active torsions:
REMARK  status: ('A' for Active; 'I' for Inactive)
REMARK    1  A    between atoms: C_1  and  C_2
REMARK    2  A    between atoms: C_2  and  C_3
REMARK    3  A    between atoms: C_3  and  N_4
REMARK    4  A    between atoms: N_7  and  S_8
REMARK    5  A    between atoms: S_8  and  C_11
REMARK    6  A    between atoms: C_14  and  C_15
REMARK    7  A    between atoms: C_17  and  C_18
REMARK                            x       y       z     vdW  Elec       q    Type
REMARK                         _______ _______ _______ _____ _____    ______ ____
ROOT
ATOM      1  S   UNL     1       2.606   5.673  19.302  0.00  0.00    +0.000 S 
ATOM      2  O   UNL     1       1.908   4.993  18.232  0.00  0.00    +0.000 OA
ATOM      3  O   UNL     1       2.367   5.338  20.685  0.00  0.00    +0.000 OA
ENDROOT
BRANCH   1   7
ATOM      4  N   UNL     1       5.171   4.233  16.488  0.00  0.00    +0.000 NA
ATOM      5  C   UNL     1       4.769   3.487  17.699  0.00  0.00    +0.000 C 
ATOM      6  C   UNL     1       4.904   4.243  19.039  0.00  0.00    +0.000 C 
ATOM      7  N   UNL     1       4.281   5.599  18.996  0.00  0.00    +0.000 NA
ATOM      8  C   UNL     1       4.748   6.365  17.806  0.00  0.00    +0.000 C 
ATOM      9  C   UNL     1       4.530   5.570  16.505  0.00  0.00    +0.000 C 
BRANCH   4  10
ATOM     10  C   UNL     1       6.623   4.337  16.288  0.00  0.00    +0.000 C 
BRANCH  10  12
ATOM     11  C   UNL     1       6.433   4.008  13.752  0.00  0.00    +0.000 C 
ATOM     12  C   UNL     1       7.063   4.799  14.890  0.00  0.00    +0.000 C 
ENDBRANCH  10  12
ENDBRANCH   4  10
ENDBRANCH   1   7
BRANCH   1  13
ATOM     13  C   UNL     1       2.125   7.378  19.164  0.00  0.00    +0.000 A 
ATOM     14  C   UNL     1       2.072   8.256  18.099  0.00  0.00    +0.000 A 
ATOM     15  C   UNL     1       1.513   9.517  18.470  0.00  0.00    +0.000 A 
ATOM     16  C   UNL     1       1.147   9.557  19.801  0.00  0.00    +0.000 A 
ATOM     17  S   UNL     1       1.566   8.103  20.602  0.00  0.00    +0.000 S 
BRANCH  16  18
ATOM     18  C   UNL     1       0.459  10.617  20.481  0.00  0.00    +0.000 A 
ATOM     19  C   UNL     1      -0.836  11.072  20.326  0.00  0.00    +0.000 A 
ATOM     20  C   UNL     1      -0.940  12.206  21.153  0.00  0.00    +0.000 A 
ATOM     21  C   UNL     1      -2.092  13.121  21.303  0.00  0.00    +0.000 C 
ATOM     22  N   UNL     1       0.193  12.414  21.830  0.00  0.00    +0.000 NA
ATOM     23  O   UNL     1       1.063  11.420  21.416  0.00  0.00    +0.000 OA
ENDBRANCH  16  18
ENDBRANCH   1  13
TORSDOF 5
ENDMDL
MODEL 5
REMARK VINA RESULT:      -6.6      4.153      6.913
REMARK  Name = 
REMARK  7 active torsions:
REMARK  status: ('A' for Active; 'I' for Inactive)
REMARK    1  A    between atoms: C_1  and  C_2
REMARK    2  A    between atoms: C_2  and  C_3
REMARK    3  A    between atoms: C_3  and  N_4
REMARK    4  A    between atoms: N_7  and  S_8
REMARK    5  A    between atoms: S_8  and  C_11
REMARK    6  A    between atoms: C_14  and  C_15
REMARK    7  A    between atoms: C_17  and  C_18
REMARK                            x       y       z     vdW  Elec       q    Type
REMARK                         _______ _______ _______ _____ _____    ______ ____
ROOT
ATOM      1  S   UNL     1       5.630   5.056  16.270  0.00  0.00    +0.000 S 
ATOM      2  O   UNL     1       6.079   3.688  16.414  0.00  0.00    +0.000 OA
ATOM      3  O   UNL     1       5.689   5.735  14.998  0.00  0.00    +0.000 OA
ENDROOT
BRANCH   1   7
ATOM      4  N   UNL     1       3.599   4.329  19.722  0.00  0.00    +0.000 NA
ATOM      5  C   UNL     1       3.713   3.361  18.610  0.00  0.00    +0.000 C 
ATOM      6  C   UNL     1       3.356   3.895  17.206  0.00  0.00    +0.000 C 
ATOM      7  N   UNL     1       4.047   5.180  16.890  0.00  0.00    +0.000 NA
ATOM      8  C   UNL     1       3.867   6.169  17.990  0.00  0.00    +0.000 C 
ATOM      9  C   UNL     1       4.296   5.583  19.348  0.00  0.00    +0.000 C 
BRANCH   4  10
ATOM     10  C   UNL     1       2.223   4.591  20.167  0.00  0.00    +0.000 C 
BRANCH  10  12
ATOM     11  C   UNL     1       1.611   2.590  21.650  0.00  0.00    +0.000 C 
ATOM     12  C   UNL     1       1.345   3.344  20.354  0.00  0.00    +0.000 C 
ENDBRANCH  10  12
ENDBRANCH   4  10
ENDBRANCH   1   7
BRANCH   1  13
ATOM     13  C   UNL     1       6.684   6.009  17.337  0.00  0.00    +0.000 A 
ATOM     14  C   UNL     1       7.560   5.661  18.346  0.00  0.00    +0.000 A 
ATOM     15  C   UNL     1       8.270   6.791  18.854  0.00  0.00    +0.000 A 
ATOM     16  C   UNL     1       7.920   7.962  18.211  0.00  0.00    +0.000 A 
ATOM     17  S   UNL     1       6.678   7.692  17.064  0.00  0.00    +0.000 S 
BRANCH  16  18
ATOM     18  C   UNL     1       8.509   9.260  18.388  0.00  0.00    +0.000 A 
ATOM     19  C   UNL     1       8.431  10.382  17.586  0.00  0.00    +0.000 A 
ATOM     20  C   UNL     1       9.297  11.325  18.171  0.00  0.00    +0.000 A 
ATOM     21  C   UNL     1       9.648  12.672  17.671  0.00  0.00    +0.000 C 
ATOM     22  N   UNL     1       9.835  10.851  19.298  0.00  0.00    +0.000 NA
ATOM     23  O   UNL     1       9.339   9.566  19.437  0.00  0.00    +0.000 OA
ENDBRANCH  16  18
ENDBRANCH   1  13
TORSDOF 5
ENDMDL
MODEL 6
REMARK VINA RESULT:      -6.5      4.461      7.200
REMARK  Name = 
REMARK  7 active torsions:
REMARK  status: ('A' for Active; 'I' for Inactive)
REMARK    1  A    between atoms: C_1  and  C_2
REMARK    2  A    between atoms: C_2  and  C_3
REMARK    3  A    between atoms: C_3  and  N_4
REMARK    4  A    between atoms: N_7  and  S_8
REMARK    5  A    between atoms: S_8  and  C_11
REMARK    6  A    between atoms: C_14  and  C_15
REMARK    7  A    between atoms: C_17  and  C_18
REMARK                            x       y       z     vdW  Elec       q    Type
REMARK                         _______ _______ _______ _____ _____    ______ ____
ROOT
ATOM      1  S   UNL     1       6.982   5.231  18.310  0.00  0.00    +0.000 S 
ATOM      2  O   UNL     1       6.945   5.062  19.747  0.00  0.00    +0.000 OA
ATOM      3  O   UNL     1       7.884   4.461  17.487  0.00  0.00    +0.000 OA
ENDROOT
BRANCH   1   7
ATOM      4  N   UNL     1       3.278   4.125  19.585  0.00  0.00    +0.000 NA
ATOM      5  C   UNL     1       4.243   3.203  18.950  0.00  0.00    +0.000 C 
ATOM      6  C   UNL     1       4.861   3.678  17.616  0.00  0.00    +0.000 C 
ATOM      7  N   UNL     1       5.400   5.068  17.698  0.00  0.00    +0.000 NA
ATOM      8  C   UNL     1       4.391   5.999  18.279  0.00  0.00    +0.000 C 
ATOM      9  C   UNL     1       3.865   5.486  19.631  0.00  0.00    +0.000 C 
BRANCH   4  10
ATOM     10  C   UNL     1       1.945   4.135  18.966  0.00  0.00    +0.000 C 
BRANCH  10  12
ATOM     11  C   UNL     1       1.188   2.989  21.132  0.00  0.00    +0.000 C 
ATOM     12  C   UNL     1       0.890   3.263  19.664  0.00  0.00    +0.000 C 
ENDBRANCH  10  12
ENDBRANCH   4  10
ENDBRANCH   1   7
BRANCH   1  13
ATOM     13  C   UNL     1       7.470   6.920  18.051  0.00  0.00    +0.000 A 
ATOM     14  C   UNL     1       7.094   7.876  17.128  0.00  0.00    +0.000 A 
ATOM     15  C   UNL     1       7.699   9.143  17.390  0.00  0.00    +0.000 A 
ATOM     16  C   UNL     1       8.508   9.116  18.508  0.00  0.00    +0.000 A 
ATOM     17  S   UNL     1       8.593   7.541  19.174  0.00  0.00    +0.000 S 
BRANCH  16  18
ATOM     18  C   UNL     1       9.179  10.228  19.122  0.00  0.00    +0.000 A 
ATOM     19  C   UNL     1       9.950  11.220  18.548  0.00  0.00    +0.000 A 
ATOM     20  C   UNL     1      10.458  11.972  19.624  0.00  0.00    +0.000 A 
ATOM     21  C   UNL     1      11.406  13.106  19.574  0.00  0.00    +0.000 C 
ATOM     22  N   UNL     1       9.989  11.522  20.791  0.00  0.00    +0.000 NA
ATOM     23  O   UNL     1       9.186  10.439  20.477  0.00  0.00    +0.000 OA
ENDBRANCH  16  18
ENDBRANCH   1  13
TORSDOF 5
ENDMDL
MODEL 7
REMARK VINA RESULT:      -6.5      2.632      7.987
REMARK  Name = 
REMARK  7 active torsions:
REMARK  status: ('A' for Active; 'I' for Inactive)
REMARK    1  A    between atoms: C_1  and  C_2
REMARK    2  A    between atoms: C_2  and  C_3
REMARK    3  A    between atoms: C_3  and  N_4
REMARK    4  A    between atoms: N_7  and  S_8
REMARK    5  A    between atoms: S_8  and  C_11
REMARK    6  A    between atoms: C_14  and  C_15
REMARK    7  A    between atoms: C_17  and  C_18
REMARK                            x       y       z     vdW  Elec       q    Type
REMARK                         _______ _______ _______ _____ _____    ______ ____
ROOT
ATOM      1  S   UNL     1       2.931   2.838  19.093  0.00  0.00    +0.000 S 
ATOM      2  O   UNL     1       3.394   2.442  20.405  0.00  0.00    +0.000 OA
ATOM      3  O   UNL     1       2.518   1.859  18.115  0.00  0.00    +0.000 OA
ENDROOT
BRANCH   1   7
ATOM      4  N   UNL     1       2.489   6.762  20.080  0.00  0.00    +0.000 NA
ATOM      5  C   UNL     1       2.393   5.650  21.049  0.00  0.00    +0.000 C 
ATOM      6  C   UNL     1       1.448   4.492  20.662  0.00  0.00    +0.000 C 
ATOM      7  N   UNL     1       1.691   3.994  19.276  0.00  0.00    +0.000 NA
ATOM      8  C   UNL     1       1.719   5.120  18.300  0.00  0.00    +0.000 C 
ATOM      9  C   UNL     1       2.722   6.208  18.725  0.00  0.00    +0.000 C 
BRANCH   4  10
ATOM     10  C   UNL     1       1.345   7.685  20.093  0.00  0.00    +0.000 C 
BRANCH  10  12
ATOM     11  C   UNL     1      -0.257   9.130  21.479  0.00  0.00    +0.000 C 
ATOM     12  C   UNL     1       1.043   8.338  21.451  0.00  0.00    +0.000 C 
ENDBRANCH  10  12
ENDBRANCH   4  10
ENDBRANCH   1   7
BRANCH   1  13
ATOM     13  C   UNL     1       4.311   3.668  18.341  0.00  0.00    +0.000 A 
ATOM     14  C   UNL     1       5.470   4.216  18.854  0.00  0.00    +0.000 A 
ATOM     15  C   UNL     1       6.339   4.692  17.826  0.00  0.00    +0.000 A 
ATOM     16  C   UNL     1       5.822   4.481  16.563  0.00  0.00    +0.000 A 
ATOM     17  S   UNL     1       4.256   3.793  16.642  0.00  0.00    +0.000 S 
BRANCH  16  18
ATOM     18  C   UNL     1       6.470   4.731  15.306  0.00  0.00    +0.000 A 
ATOM     19  C   UNL     1       6.205   4.206  14.056  0.00  0.00    +0.000 A 
ATOM     20  C   UNL     1       7.221   4.700  13.216  0.00  0.00    +0.000 A 
ATOM     21  C   UNL     1       7.457   4.384  11.791  0.00  0.00    +0.000 C 
ATOM     22  N   UNL     1       8.033   5.528  13.878  0.00  0.00    +0.000 NA
ATOM     23  O   UNL     1       7.561   5.553  15.179  0.00  0.00    +0.000 OA
ENDBRANCH  16  18
ENDBRANCH   1  13
TORSDOF 5
ENDMDL
MODEL 8
REMARK VINA RESULT:      -6.5      4.572      7.080
REMARK  Name = 
REMARK  7 active torsions:
REMARK  status: ('A' for Active; 'I' for Inactive)
REMARK    1  A    between atoms: C_1  and  C_2
REMARK    2  A    between atoms: C_2  and  C_3
REMARK    3  A    between atoms: C_3  and  N_4
REMARK    4  A    between atoms: N_7  and  S_8
REMARK    5  A    between atoms: S_8  and  C_11
REMARK    6  A    between atoms: C_14  and  C_15
REMARK    7  A    between atoms: C_17  and  C_18
REMARK                            x       y       z     vdW  Elec       q    Type
REMARK                         _______ _______ _______ _____ _____    ______ ____
ROOT
ATOM      1  S   UNL     1       6.868   5.405  18.477  0.00  0.00    +0.000 S 
ATOM      2  O   UNL     1       7.178   5.143  19.866  0.00  0.00    +0.000 OA
ATOM      3  O   UNL     1       7.435   4.605  17.417  0.00  0.00    +0.000 OA
ENDROOT
BRANCH   1   7
ATOM      4  N   UNL     1       3.773   2.853  17.785  0.00  0.00    +0.000 NA
ATOM      5  C   UNL     1       4.491   3.590  16.722  0.00  0.00    +0.000 C 
ATOM      6  C   UNL     1       4.646   5.111  16.937  0.00  0.00    +0.000 C 
ATOM      7  N   UNL     1       5.174   5.447  18.292  0.00  0.00    +0.000 NA
ATOM      8  C   UNL     1       4.398   4.750  19.357  0.00  0.00    +0.000 C 
ATOM      9  C   UNL     1       4.335   3.232  19.103  0.00  0.00    +0.000 C 
BRANCH   4  10
ATOM     10  C   UNL     1       2.312   3.011  17.758  0.00  0.00    +0.000 C 
BRANCH  10  12
ATOM     11  C   UNL     1       0.876   3.202  19.874  0.00  0.00    +0.000 C 
ATOM     12  C   UNL     1       1.552   2.275  18.872  0.00  0.00    +0.000 C 
ENDBRANCH  10  12
ENDBRANCH   4  10
ENDBRANCH   1   7
BRANCH   1  13
ATOM     13  C   UNL     1       7.467   7.049  18.167  0.00  0.00    +0.000 A 
ATOM     14  C   UNL     1       7.170   7.991  17.203  0.00  0.00    +0.000 A 
ATOM     15  C   UNL     1       7.850   9.227  17.431  0.00  0.00    +0.000 A 
ATOM     16  C   UNL     1       8.635   9.191  18.566  0.00  0.00    +0.000 A 
ATOM     17  S   UNL     1       8.608   7.639  19.289  0.00  0.00    +0.000 S 
BRANCH  16  18
ATOM     18  C   UNL     1       9.365  10.279  19.153  0.00  0.00    +0.000 A 
ATOM     19  C   UNL     1      10.279  11.141  18.579  0.00  0.00    +0.000 A 
ATOM     20  C   UNL     1      10.772  11.928  19.637  0.00  0.00    +0.000 A 
ATOM     21  C   UNL     1      11.833  12.957  19.588  0.00  0.00    +0.000 C 
ATOM     22  N   UNL     1      10.164  11.625  20.787  0.00  0.00    +0.000 NA
ATOM     23  O   UNL     1       9.282  10.601  20.484  0.00  0.00    +0.000 OA
ENDBRANCH  16  18
ENDBRANCH   1  13
TORSDOF 5
ENDMDL
MODEL 9
REMARK VINA RESULT:      -6.4      4.434      6.727
REMARK  Name = 
REMARK  7 active torsions:
REMARK  status: ('A' for Active; 'I' for Inactive)
REMARK    1  A    between atoms: C_1  and  C_2
REMARK    2  A    between atoms: C_2  and  C_3
REMARK    3  A    between atoms: C_3  and  N_4
REMARK    4  A    between atoms: N_7  and  S_8
REMARK    5  A    between atoms: S_8  and  C_11
REMARK    6  A    between atoms: C_14  and  C_15
REMARK    7  A    between atoms: C_17  and  C_18
REMARK                            x       y       z     vdW  Elec       q    Type
REMARK                         _______ _______ _______ _____ _____    ______ ____
ROOT
ATOM      1  S   UNL     1       6.010   5.288  16.376  0.00  0.00    +0.000 S 
ATOM      2  O   UNL     1       6.578   3.963  16.513  0.00  0.00    +0.000 OA
ATOM      3  O   UNL     1       6.017   5.980  15.109  0.00  0.00    +0.000 OA
ENDROOT
BRANCH   1   7
ATOM      4  N   UNL     1       3.889   3.599  19.412  0.00  0.00    +0.000 NA
ATOM      5  C   UNL     1       3.998   3.018  18.057  0.00  0.00    +0.000 C 
ATOM      6  C   UNL     1       3.685   3.971  16.883  0.00  0.00    +0.000 C 
ATOM      7  N   UNL     1       4.419   5.267  16.987  0.00  0.00    +0.000 NA
ATOM      8  C   UNL     1       4.244   5.874  18.337  0.00  0.00    +0.000 C 
ATOM      9  C   UNL     1       4.628   4.883  19.452  0.00  0.00    +0.000 C 
BRANCH   4  10
ATOM     10  C   UNL     1       2.512   3.756  19.901  0.00  0.00    +0.000 C 
BRANCH  10  12
ATOM     11  C   UNL     1       0.625   2.358  18.869  0.00  0.00    +0.000 C 
ATOM     12  C   UNL     1       1.684   2.463  19.958  0.00  0.00    +0.000 C 
ENDBRANCH  10  12
ENDBRANCH   4  10
ENDBRANCH   1   7
BRANCH   1  13
ATOM     13  C   UNL     1       6.970   6.321  17.457  0.00  0.00    +0.000 A 
ATOM     14  C   UNL     1       7.782   6.048  18.540  0.00  0.00    +0.000 A 
ATOM     15  C   UNL     1       8.433   7.221  19.032  0.00  0.00    +0.000 A 
ATOM     16  C   UNL     1       8.104   8.347  18.303  0.00  0.00    +0.000 A 
ATOM     17  S   UNL     1       6.949   7.986  17.093  0.00  0.00    +0.000 S 
BRANCH  16  18
ATOM     18  C   UNL     1       8.654   9.666  18.447  0.00  0.00    +0.000 A 
ATOM     19  C   UNL     1       9.490  10.173  19.423  0.00  0.00    +0.000 A 
ATOM     20  C   UNL     1       9.609  11.547  19.142  0.00  0.00    +0.000 A 
ATOM     21  C   UNL     1      10.328  12.577  19.923  0.00  0.00    +0.000 C 
ATOM     22  N   UNL     1       8.945  11.870  18.029  0.00  0.00    +0.000 NA
ATOM     23  O   UNL     1       8.354  10.697  17.593  0.00  0.00    +0.000 OA
ENDBRANCH  16  18
ENDBRANCH   1  13
TORSDOF 5
ENDMDL
