MODEL 1
REMARK VINA RESULT:      -8.9      0.000      0.000
REMARK  Name = 
REMARK  11 active torsions:
REMARK  status: ('A' for Active; 'I' for Inactive)
REMARK    1  A    between atoms: C_2  and  C_3
REMARK    2  A    between atoms: C_5  and  C_6
REMARK    3  A    between atoms: N_8  and  C_9
REMARK    4  A    between atoms: C_9  and  C_10
REMARK    5  A    between atoms: C_9  and  C_14
REMARK    6  A    between atoms: C_10  and  C_11
REMARK    7  A    between atoms: C_11  and  O_13
REMARK    8  A    between atoms: C_14  and  C_15
REMARK    9  A    between atoms: C_21  and  O_22
REMARK   10  A    between atoms: C_26  and  O_27
REMARK   11  A    between atoms: O_27  and  C_28
REMARK                            x       y       z     vdW  Elec       q    Type
REMARK                         _______ _______ _______ _____ _____    ______ ____
ROOT
ATOM      1  C   UNL     1       0.011  10.452  19.068  0.00  0.00    +0.000 A 
ATOM      2  N   UNL     1       0.762   9.679  18.236  0.00  0.00    +0.000 NA
ATOM      3  C   UNL     1       1.457   8.677  18.826  0.00  0.00    +0.000 A 
ATOM      4  C   UNL     1       1.389   8.364  20.182  0.00  0.00    +0.000 A 
ATOM      5  C   UNL     1       0.633   9.184  21.019  0.00  0.00    +0.000 A 
ATOM      6  C   UNL     1       0.612   8.952  22.399  0.00  0.00    +0.000 A 
ATOM      7  C   UNL     1      -0.080   9.797  23.250  0.00  0.00    +0.000 A 
ATOM      8  C   UNL     1      -0.754  10.909  22.741  0.00  0.00    +0.000 A 
ATOM      9  C   UNL     1      -0.796  11.121  21.363  0.00  0.00    +0.000 A 
ATOM     10  C   UNL     1      -0.080  10.277  20.472  0.00  0.00    +0.000 A 
ENDROOT
BRANCH   3  11
ATOM     11  C   UNL     1       2.433   7.930  17.996  0.00  0.00    +0.000 C 
ATOM     12  O   UNL     1       3.051   8.540  17.121  0.00  0.00    +0.000 OA
ATOM     13  N   UNL     1       2.648   6.606  18.272  0.00  0.00    +0.000 N 
ATOM     14  H   UNL     1       2.151   6.174  19.049  0.00  0.00    +0.000 HD
BRANCH  13  15
ATOM     15  C   UNL     1       3.661   5.853  17.542  0.00  0.00    +0.000 C 
BRANCH  15  16
ATOM     16  C   UNL     1       5.099   6.197  17.999  0.00  0.00    +0.000 C 
BRANCH  16  17
ATOM     17  C   UNL     1       5.970   6.795  16.920  0.00  0.00    +0.000 C 
ATOM     18  O   UNL     1       7.095   7.245  17.090  0.00  0.00    +0.000 OA
BRANCH  17  19
ATOM     19  O   UNL     1       5.355   6.852  15.716  0.00  0.00    +0.000 OA
ATOM     20  H   UNL     1       5.521   7.675  15.218  0.00  0.00    +0.000 HD
ENDBRANCH  17  19
ENDBRANCH  16  17
ENDBRANCH  15  16
BRANCH  15  21
ATOM     21  C   UNL     1       3.394   4.339  17.580  0.00  0.00    +0.000 C 
BRANCH  21  22
ATOM     22  C   UNL     1       2.643   3.849  18.804  0.00  0.00    +0.000 A 
ATOM     23  C   UNL     1       1.257   3.631  18.790  0.00  0.00    +0.000 A 
ATOM     24  C   UNL     1       0.602   3.142  19.926  0.00  0.00    +0.000 A 
ATOM     25  C   UNL     1       1.322   2.873  21.088  0.00  0.00    +0.000 A 
ATOM     26  C   UNL     1       2.696   3.093  21.116  0.00  0.00    +0.000 A 
ATOM     27  C   UNL     1       3.353   3.574  19.981  0.00  0.00    +0.000 A 
ENDBRANCH  21  22
ENDBRANCH  15  21
ENDBRANCH  13  15
ENDBRANCH   3  11
BRANCH   1  29
ATOM     28  N   UNL     1      -1.200  12.417  17.858  0.00  0.00    +0.000 NA
ATOM     29  C   UNL     1      -0.669  11.524  18.407  0.00  0.00    +0.000 C 
ENDBRANCH   1  29
BRANCH   4  30
ATOM     30  O   UNL     1       2.043   7.290  20.739  0.00  0.00    +0.000 OA
ATOM     31  H   UNL     1       2.737   7.624  21.350  0.00  0.00    +0.000 HD
ENDBRANCH   4  30
BRANCH   8  32
ATOM     32  O   UNL     1      -1.390  11.849  23.529  0.00  0.00    +0.000 OA
BRANCH  32  33
ATOM     33  C   UNL     1      -2.676  12.217  23.186  0.00  0.00    +0.000 A 
ATOM     34  C   UNL     1      -3.032  12.597  21.886  0.00  0.00    +0.000 A 
ATOM     35  C   UNL     1      -4.280  13.140  21.630  0.00  0.00    +0.000 A 
ATOM     36  C   UNL     1      -5.221  13.207  22.653  0.00  0.00    +0.000 A 
ATOM     37  C   UNL     1      -4.914  12.722  23.927  0.00  0.00    +0.000 A 
ATOM     38  C   UNL     1      -3.637  12.226  24.199  0.00  0.00    +0.000 A 
ENDBRANCH  32  33
ENDBRANCH   8  32
TORSDOF 11
ENDMDL
MODEL 2
REMARK VINA RESULT:      -8.7      2.322      4.216
REMARK  Name = 
REMARK  11 active torsions:
REMARK  status: ('A' for Active; 'I' for Inactive)
REMARK    1  A    between atoms: C_2  and  C_3
REMARK    2  A    between atoms: C_5  and  C_6
REMARK    3  A    between atoms: N_8  and  C_9
REMARK    4  A    between atoms: C_9  and  C_10
REMARK    5  A    between atoms: C_9  and  C_14
REMARK    6  A    between atoms: C_10  and  C_11
REMARK    7  A    between atoms: C_11  and  O_13
REMARK    8  A    between atoms: C_14  and  C_15
REMARK    9  A    between atoms: C_21  and  O_22
REMARK   10  A    between atoms: C_26  and  O_27
REMARK   11  A    between atoms: O_27  and  C_28
REMARK                            x       y       z     vdW  Elec       q    Type
REMARK                         _______ _______ _______ _____ _____    ______ ____
ROOT
ATOM      1  C   UNL     1       0.507   9.663  21.306  0.00  0.00    +0.000 A 
ATOM      2  N   UNL     1       1.399   8.693  20.964  0.00  0.00    +0.000 NA
ATOM      3  C   UNL     1       1.669   8.578  19.641  0.00  0.00    +0.000 A 
ATOM      4  C   UNL     1       1.153   9.418  18.657  0.00  0.00    +0.000 A 
ATOM      5  C   UNL     1       0.223  10.388  19.028  0.00  0.00    +0.000 A 
ATOM      6  C   UNL     1      -0.380  11.191  18.053  0.00  0.00    +0.000 A 
ATOM      7  C   UNL     1      -1.355  12.112  18.398  0.00  0.00    +0.000 A 
ATOM      8  C   UNL     1      -1.762  12.240  19.727  0.00  0.00    +0.000 A 
ATOM      9  C   UNL     1      -1.128  11.492  20.720  0.00  0.00    +0.000 A 
ATOM     10  C   UNL     1      -0.139  10.530  20.388  0.00  0.00    +0.000 A 
ENDROOT
BRANCH   3  11
ATOM     11  C   UNL     1       2.483   7.420  19.200  0.00  0.00    +0.000 C 
ATOM     12  O   UNL     1       3.279   7.578  18.272  0.00  0.00    +0.000 OA
ATOM     13  N   UNL     1       2.359   6.236  19.878  0.00  0.00    +0.000 N 
ATOM     14  H   UNL     1       1.729   6.186  20.677  0.00  0.00    +0.000 HD
BRANCH  13  15
ATOM     15  C   UNL     1       3.202   5.096  19.539  0.00  0.00    +0.000 C 
BRANCH  15  16
ATOM     16  C   UNL     1       2.876   3.844  20.388  0.00  0.00    +0.000 C 
BRANCH  16  17
ATOM     17  C   UNL     1       1.596   3.144  20.003  0.00  0.00    +0.000 C 
ATOM     18  O   UNL     1       1.527   2.080  19.401  0.00  0.00    +0.000 OA
BRANCH  17  19
ATOM     19  O   UNL     1       0.489   3.849  20.332  0.00  0.00    +0.000 OA
ATOM     20  H   UNL     1      -0.139   3.981  19.596  0.00  0.00    +0.000 HD
ENDBRANCH  17  19
ENDBRANCH  16  17
ENDBRANCH  15  16
BRANCH  15  21
ATOM     21  C   UNL     1       3.180   4.790  18.033  0.00  0.00    +0.000 C 
BRANCH  21  22
ATOM     22  C   UNL     1       4.544   4.622  17.391  0.00  0.00    +0.000 A 
ATOM     23  C   UNL     1       4.695   4.224  16.054  0.00  0.00    +0.000 A 
ATOM     24  C   UNL     1       5.968   4.115  15.483  0.00  0.00    +0.000 A 
ATOM     25  C   UNL     1       7.102   4.397  16.241  0.00  0.00    +0.000 A 
ATOM     26  C   UNL     1       6.965   4.787  17.571  0.00  0.00    +0.000 A 
ATOM     27  C   UNL     1       5.695   4.902  18.140  0.00  0.00    +0.000 A 
ENDBRANCH  21  22
ENDBRANCH  15  21
ENDBRANCH  13  15
ENDBRANCH   3  11
BRANCH   1  29
ATOM     28  N   UNL     1       0.005   9.741  23.862  0.00  0.00    +0.000 NA
ATOM     29  C   UNL     1       0.219   9.717  22.708  0.00  0.00    +0.000 C 
ENDBRANCH   1  29
BRANCH   4  30
ATOM     30  O   UNL     1       1.510   9.328  17.332  0.00  0.00    +0.000 OA
ATOM     31  H   UNL     1       1.315   8.417  17.013  0.00  0.00    +0.000 HD
ENDBRANCH   4  30
BRANCH   8  32
ATOM     32  O   UNL     1      -2.788  13.068  20.141  0.00  0.00    +0.000 OA
BRANCH  32  33
ATOM     33  C   UNL     1      -4.075  12.568  20.116  0.00  0.00    +0.000 A 
ATOM     34  C   UNL     1      -4.632  11.974  18.976  0.00  0.00    +0.000 A 
ATOM     35  C   UNL     1      -5.981  11.662  18.936  0.00  0.00    +0.000 A 
ATOM     36  C   UNL     1      -6.760  11.841  20.075  0.00  0.00    +0.000 A 
ATOM     37  C   UNL     1      -6.186  12.323  21.254  0.00  0.00    +0.000 A 
ATOM     38  C   UNL     1      -4.838  12.691  21.278  0.00  0.00    +0.000 A 
ENDBRANCH  32  33
ENDBRANCH   8  32
TORSDOF 11
ENDMDL
MODEL 3
REMARK VINA RESULT:      -8.7      2.302      4.290
REMARK  Name = 
REMARK  11 active torsions:
REMARK  status: ('A' for Active; 'I' for Inactive)
REMARK    1  A    between atoms: C_2  and  C_3
REMARK    2  A    between atoms: C_5  and  C_6
REMARK    3  A    between atoms: N_8  and  C_9
REMARK    4  A    between atoms: C_9  and  C_10
REMARK    5  A    between atoms: C_9  and  C_14
REMARK    6  A    between atoms: C_10  and  C_11
REMARK    7  A    between atoms: C_11  and  O_13
REMARK    8  A    between atoms: C_14  and  C_15
REMARK    9  A    between atoms: C_21  and  O_22
REMARK   10  A    between atoms: C_26  and  O_27
REMARK   11  A    between atoms: O_27  and  C_28
REMARK                            x       y       z     vdW  Elec       q    Type
REMARK                         _______ _______ _______ _____ _____    ______ ____
ROOT
ATOM      1  C   UNL     1       0.710   9.295  21.553  0.00  0.00    +0.000 A 
ATOM      2  N   UNL     1       1.463   8.188  21.302  0.00  0.00    +0.000 NA
ATOM      3  C   UNL     1       1.743   7.947  19.998  0.00  0.00    +0.000 A 
ATOM      4  C   UNL     1       1.374   8.783  18.947  0.00  0.00    +0.000 A 
ATOM      5  C   UNL     1       0.583   9.897  19.225  0.00  0.00    +0.000 A 
ATOM      6  C   UNL     1       0.122  10.708  18.183  0.00  0.00    +0.000 A 
ATOM      7  C   UNL     1      -0.720  11.779  18.437  0.00  0.00    +0.000 A 
ATOM      8  C   UNL     1      -1.134  12.052  19.742  0.00  0.00    +0.000 A 
ATOM      9  C   UNL     1      -0.635  11.292  20.800  0.00  0.00    +0.000 A 
ATOM     10  C   UNL     1       0.215  10.180  20.562  0.00  0.00    +0.000 A 
ENDROOT
BRANCH   3  11
ATOM     11  C   UNL     1       2.394   6.659  19.658  0.00  0.00    +0.000 C 
ATOM     12  O   UNL     1       2.471   5.790  20.529  0.00  0.00    +0.000 OA
ATOM     13  N   UNL     1       2.834   6.467  18.376  0.00  0.00    +0.000 N 
ATOM     14  H   UNL     1       2.686   7.201  17.685  0.00  0.00    +0.000 HD
BRANCH  13  15
ATOM     15  C   UNL     1       3.400   5.186  17.971  0.00  0.00    +0.000 C 
BRANCH  15  16
ATOM     16  C   UNL     1       2.323   4.195  17.467  0.00  0.00    +0.000 C 
BRANCH  16  17
ATOM     17  C   UNL     1       2.265   2.894  18.231  0.00  0.00    +0.000 C 
ATOM     18  O   UNL     1       2.221   1.780  17.726  0.00  0.00    +0.000 OA
BRANCH  17  19
ATOM     19  O   UNL     1       2.195   3.072  19.571  0.00  0.00    +0.000 OA
ATOM     20  H   UNL     1       2.465   3.959  19.874  0.00  0.00    +0.000 HD
ENDBRANCH  17  19
ENDBRANCH  16  17
ENDBRANCH  15  16
BRANCH  15  21
ATOM     21  C   UNL     1       4.544   5.354  16.958  0.00  0.00    +0.000 C 
BRANCH  21  22
ATOM     22  C   UNL     1       5.834   5.908  17.531  0.00  0.00    +0.000 A 
ATOM     23  C   UNL     1       6.452   7.054  17.007  0.00  0.00    +0.000 A 
ATOM     24  C   UNL     1       7.622   7.560  17.585  0.00  0.00    +0.000 A 
ATOM     25  C   UNL     1       8.189   6.925  18.687  0.00  0.00    +0.000 A 
ATOM     26  C   UNL     1       7.588   5.784  19.213  0.00  0.00    +0.000 A 
ATOM     27  C   UNL     1       6.418   5.282  18.641  0.00  0.00    +0.000 A 
ENDBRANCH  21  22
ENDBRANCH  15  21
ENDBRANCH  13  15
ENDBRANCH   3  11
BRANCH   1  29
ATOM     28  N   UNL     1       0.122   9.622  24.071  0.00  0.00    +0.000 NA
ATOM     29  C   UNL     1       0.401   9.484  22.939  0.00  0.00    +0.000 C 
ENDBRANCH   1  29
BRANCH   4  30
ATOM     30  O   UNL     1       1.743   8.555  17.642  0.00  0.00    +0.000 OA
ATOM     31  H   UNL     1       1.113   9.022  17.048  0.00  0.00    +0.000 HD
ENDBRANCH   4  30
BRANCH   8  32
ATOM     32  O   UNL     1      -2.041  13.042  20.069  0.00  0.00    +0.000 OA
BRANCH  32  33
ATOM     33  C   UNL     1      -3.360  12.678  20.253  0.00  0.00    +0.000 A 
ATOM     34  C   UNL     1      -4.144  12.139  19.225  0.00  0.00    +0.000 A 
ATOM     35  C   UNL     1      -5.508  11.968  19.399  0.00  0.00    +0.000 A 
ATOM     36  C   UNL     1      -6.079  12.232  20.640  0.00  0.00    +0.000 A 
ATOM     37  C   UNL     1      -5.283  12.658  21.706  0.00  0.00    +0.000 A 
ATOM     38  C   UNL     1      -3.918  12.885  21.515  0.00  0.00    +0.000 A 
ENDBRANCH  32  33
ENDBRANCH   8  32
TORSDOF 11
ENDMDL
MODEL 4
REMARK VINA RESULT:      -8.6      0.957      1.618
REMARK  Name = 
REMARK  11 active torsions:
REMARK  status: ('A' for Active; 'I' for Inactive)
REMARK    1  A    between atoms: C_2  and  C_3
REMARK    2  A    between atoms: C_5  and  C_6
REMARK    3  A    between atoms: N_8  and  C_9
REMARK    4  A    between atoms: C_9  and  C_10
REMARK    5  A    between atoms: C_9  and  C_14
REMARK    6  A    between atoms: C_10  and  C_11
REMARK    7  A    between atoms: C_11  and  O_13
REMARK    8  A    between atoms: C_14  and  C_15
REMARK    9  A    between atoms: C_21  and  O_22
REMARK   10  A    between atoms: C_26  and  O_27
REMARK   11  A    between atoms: O_27  and  C_28
REMARK                            x       y       z     vdW  Elec       q    Type
REMARK                         _______ _______ _______ _____ _____    ______ ____
ROOT
ATOM      1  C   UNL     1      -0.051  10.297  19.088  0.00  0.00    +0.000 A 
ATOM      2  N   UNL     1       0.727   9.551  18.256  0.00  0.00    +0.000 NA
ATOM      3  C   UNL     1       1.493   8.606  18.853  0.00  0.00    +0.000 A 
ATOM      4  C   UNL     1       1.471   8.320  20.216  0.00  0.00    +0.000 A 
ATOM      5  C   UNL     1       0.684   9.112  21.051  0.00  0.00    +0.000 A 
ATOM      6  C   UNL     1       0.706   8.909  22.436  0.00  0.00    +0.000 A 
ATOM      7  C   UNL     1      -0.018   9.730  23.284  0.00  0.00    +0.000 A 
ATOM      8  C   UNL     1      -0.768  10.789  22.767  0.00  0.00    +0.000 A 
ATOM      9  C   UNL     1      -0.850  10.967  21.385  0.00  0.00    +0.000 A 
ATOM     10  C   UNL     1      -0.104  10.149  20.498  0.00  0.00    +0.000 A 
ENDROOT
BRANCH   3  11
ATOM     11  C   UNL     1       2.494   7.900  18.017  0.00  0.00    +0.000 C 
ATOM     12  O   UNL     1       3.111   8.543  17.167  0.00  0.00    +0.000 OA
ATOM     13  N   UNL     1       2.732   6.573  18.262  0.00  0.00    +0.000 N 
ATOM     14  H   UNL     1       2.234   6.112  19.021  0.00  0.00    +0.000 HD
BRANCH  13  15
ATOM     15  C   UNL     1       3.770   5.859  17.528  0.00  0.00    +0.000 C 
BRANCH  15  16
ATOM     16  C   UNL     1       5.189   6.160  18.065  0.00  0.00    +0.000 C 
BRANCH  16  17
ATOM     17  C   UNL     1       6.173   6.612  17.013  0.00  0.00    +0.000 C 
ATOM     18  O   UNL     1       5.915   6.769  15.827  0.00  0.00    +0.000 OA
BRANCH  17  19
ATOM     19  O   UNL     1       7.426   6.773  17.496  0.00  0.00    +0.000 OA
ATOM     20  H   UNL     1       8.010   7.314  16.931  0.00  0.00    +0.000 HD
ENDBRANCH  17  19
ENDBRANCH  16  17
ENDBRANCH  15  16
BRANCH  15  21
ATOM     21  C   UNL     1       3.491   4.349  17.456  0.00  0.00    +0.000 C 
BRANCH  21  22
ATOM     22  C   UNL     1       2.757   3.773  18.652  0.00  0.00    +0.000 A 
ATOM     23  C   UNL     1       3.399   3.536  19.878  0.00  0.00    +0.000 A 
ATOM     24  C   UNL     1       2.682   3.039  20.972  0.00  0.00    +0.000 A 
ATOM     25  C   UNL     1       1.321   2.769  20.854  0.00  0.00    +0.000 A 
ATOM     26  C   UNL     1       0.675   2.995  19.641  0.00  0.00    +0.000 A 
ATOM     27  C   UNL     1       1.386   3.496  18.550  0.00  0.00    +0.000 A 
ENDBRANCH  21  22
ENDBRANCH  15  21
ENDBRANCH  13  15
ENDBRANCH   3  11
BRANCH   1  29
ATOM     28  N   UNL     1      -1.409  12.143  17.847  0.00  0.00    +0.000 NA
ATOM     29  C   UNL     1      -0.808  11.312  18.420  0.00  0.00    +0.000 C 
ENDBRANCH   1  29
BRANCH   4  30
ATOM     30  O   UNL     1       2.198   7.298  20.780  0.00  0.00    +0.000 OA
ATOM     31  H   UNL     1       3.011   7.676  21.187  0.00  0.00    +0.000 HD
ENDBRANCH   4  30
BRANCH   8  32
ATOM     32  O   UNL     1      -1.443  11.707  23.548  0.00  0.00    +0.000 OA
BRANCH  32  33
ATOM     33  C   UNL     1      -1.748  12.932  22.990  0.00  0.00    +0.000 A 
ATOM     34  C   UNL     1      -3.032  13.256  22.535  0.00  0.00    +0.000 A 
ATOM     35  C   UNL     1      -3.248  14.418  21.811  0.00  0.00    +0.000 A 
ATOM     36  C   UNL     1      -2.202  15.317  21.630  0.00  0.00    +0.000 A 
ATOM     37  C   UNL     1      -0.945  15.057  22.183  0.00  0.00    +0.000 A 
ATOM     38  C   UNL     1      -0.713  13.860  22.864  0.00  0.00    +0.000 A 
ENDBRANCH  32  33
ENDBRANCH   8  32
TORSDOF 11
ENDMDL
MODEL 5
REMARK VINA RESULT:      -8.6      0.987      1.292
REMARK  Name = 
REMARK  11 active torsions:
REMARK  status: ('A' for Active; 'I' for Inactive)
REMARK    1  A    between atoms: C_2  and  C_3
REMARK    2  A    between atoms: C_5  and  C_6
REMARK    3  A    between atoms: N_8  and  C_9
REMARK    4  A    between atoms: C_9  and  C_10
REMARK    5  A    between atoms: C_9  and  C_14
REMARK    6  A    between atoms: C_10  and  C_11
REMARK    7  A    between atoms: C_11  and  O_13
REMARK    8  A    between atoms: C_14  and  C_15
REMARK    9  A    between atoms: C_21  and  O_22
REMARK   10  A    between atoms: C_26  and  O_27
REMARK   11  A    between atoms: O_27  and  C_28
REMARK                            x       y       z     vdW  Elec       q    Type
REMARK                         _______ _______ _______ _____ _____    ______ ____
ROOT
ATOM      1  C   UNL     1       0.123  10.306  19.088  0.00  0.00    +0.000 A 
ATOM      2  N   UNL     1       0.885   9.562  18.239  0.00  0.00    +0.000 NA
ATOM      3  C   UNL     1       1.606   8.567  18.810  0.00  0.00    +0.000 A 
ATOM      4  C   UNL     1       1.555   8.233  20.161  0.00  0.00    +0.000 A 
ATOM      5  C   UNL     1       0.787   9.023  21.015  0.00  0.00    +0.000 A 
ATOM      6  C   UNL     1       0.782   8.770  22.391  0.00  0.00    +0.000 A 
ATOM      7  C   UNL     1       0.078   9.587  23.260  0.00  0.00    +0.000 A 
ATOM      8  C   UNL     1      -0.624  10.691  22.773  0.00  0.00    +0.000 A 
ATOM      9  C   UNL     1      -0.681  10.923  21.398  0.00  0.00    +0.000 A 
ATOM     10  C   UNL     1       0.046  10.109  20.490  0.00  0.00    +0.000 A 
ENDROOT
BRANCH   3  11
ATOM     11  C   UNL     1       2.591   7.854  17.961  0.00  0.00    +0.000 C 
ATOM     12  O   UNL     1       3.193   8.491  17.095  0.00  0.00    +0.000 OA
ATOM     13  N   UNL     1       2.833   6.529  18.211  0.00  0.00    +0.000 N 
ATOM     14  H   UNL     1       2.348   6.074  18.982  0.00  0.00    +0.000 HD
BRANCH  13  15
ATOM     15  C   UNL     1       3.856   5.809  17.463  0.00  0.00    +0.000 C 
BRANCH  15  16
ATOM     16  C   UNL     1       5.281   6.066  18.011  0.00  0.00    +0.000 C 
BRANCH  16  17
ATOM     17  C   UNL     1       6.390   5.506  17.152  0.00  0.00    +0.000 C 
ATOM     18  O   UNL     1       6.748   5.963  16.075  0.00  0.00    +0.000 OA
BRANCH  17  19
ATOM     19  O   UNL     1       6.930   4.375  17.661  0.00  0.00    +0.000 OA
ATOM     20  H   UNL     1       6.462   3.556  17.410  0.00  0.00    +0.000 HD
ENDBRANCH  17  19
ENDBRANCH  16  17
ENDBRANCH  15  16
BRANCH  15  21
ATOM     21  C   UNL     1       3.544   4.307  17.357  0.00  0.00    +0.000 C 
BRANCH  21  22
ATOM     22  C   UNL     1       2.761   3.730  18.520  0.00  0.00    +0.000 A 
ATOM     23  C   UNL     1       1.403   3.392  18.411  0.00  0.00    +0.000 A 
ATOM     24  C   UNL     1       0.721   2.826  19.494  0.00  0.00    +0.000 A 
ATOM     25  C   UNL     1       1.385   2.596  20.697  0.00  0.00    +0.000 A 
ATOM     26  C   UNL     1       2.730   2.933  20.819  0.00  0.00    +0.000 A 
ATOM     27  C   UNL     1       3.414   3.492  19.738  0.00  0.00    +0.000 A 
ENDBRANCH  21  22
ENDBRANCH  15  21
ENDBRANCH  13  15
ENDBRANCH   3  11
BRANCH   1  29
ATOM     28  N   UNL     1      -1.145  12.248  17.899  0.00  0.00    +0.000 NA
ATOM     29  C   UNL     1      -0.585  11.373  18.448  0.00  0.00    +0.000 C 
ENDBRANCH   1  29
BRANCH   4  30
ATOM     30  O   UNL     1       2.235   7.165  20.696  0.00  0.00    +0.000 OA
ATOM     31  H   UNL     1       1.590   6.452  20.906  0.00  0.00    +0.000 HD
ENDBRANCH   4  30
BRANCH   8  32
ATOM     32  O   UNL     1      -1.275  11.606  23.579  0.00  0.00    +0.000 OA
BRANCH  32  33
ATOM     33  C   UNL     1      -1.894  12.680  22.971  0.00  0.00    +0.000 A 
ATOM     34  C   UNL     1      -3.167  12.591  22.394  0.00  0.00    +0.000 A 
ATOM     35  C   UNL     1      -3.666  13.634  21.631  0.00  0.00    +0.000 A 
ATOM     36  C   UNL     1      -2.941  14.817  21.529  0.00  0.00    +0.000 A 
ATOM     37  C   UNL     1      -1.722  14.957  22.199  0.00  0.00    +0.000 A 
ATOM     38  C   UNL     1      -1.193  13.886  22.922  0.00  0.00    +0.000 A 
ENDBRANCH  32  33
ENDBRANCH   8  32
TORSDOF 11
ENDMDL
MODEL 6
REMARK VINA RESULT:      -8.6      2.873      9.905
REMARK  Name = 
REMARK  11 active torsions:
REMARK  status: ('A' for Active; 'I' for Inactive)
REMARK    1  A    between atoms: C_2  and  C_3
REMARK    2  A    between atoms: C_5  and  C_6
REMARK    3  A    between atoms: N_8  and  C_9
REMARK    4  A    between atoms: C_9  and  C_10
REMARK    5  A    between atoms: C_9  and  C_14
REMARK    6  A    between atoms: C_10  and  C_11
REMARK    7  A    between atoms: C_11  and  O_13
REMARK    8  A    between atoms: C_14  and  C_15
REMARK    9  A    between atoms: C_21  and  O_22
REMARK   10  A    between atoms: C_26  and  O_27
REMARK   11  A    between atoms: O_27  and  C_28
REMARK                            x       y       z     vdW  Elec       q    Type
REMARK                         _______ _______ _______ _____ _____    ______ ____
ROOT
ATOM      1  C   UNL     1       2.900   5.659  19.215  0.00  0.00    +0.000 A 
ATOM      2  N   UNL     1       2.107   6.608  19.785  0.00  0.00    +0.000 NA
ATOM      3  C   UNL     1       2.078   7.808  19.157  0.00  0.00    +0.000 A 
ATOM      4  C   UNL     1       2.737   8.088  17.962  0.00  0.00    +0.000 A 
ATOM      5  C   UNL     1       3.561   7.109  17.409  0.00  0.00    +0.000 A 
ATOM      6  C   UNL     1       4.306   7.386  16.258  0.00  0.00    +0.000 A 
ATOM      7  C   UNL     1       5.180   6.447  15.736  0.00  0.00    +0.000 A 
ATOM      8  C   UNL     1       5.344   5.212  16.366  0.00  0.00    +0.000 A 
ATOM      9  C   UNL     1       4.564   4.896  17.479  0.00  0.00    +0.000 A 
ATOM     10  C   UNL     1       3.674   5.848  18.042  0.00  0.00    +0.000 A 
ENDROOT
BRANCH   3  11
ATOM     11  C   UNL     1       1.384   8.927  19.839  0.00  0.00    +0.000 C 
ATOM     12  O   UNL     1       1.398   8.966  21.071  0.00  0.00    +0.000 OA
ATOM     13  N   UNL     1       0.804   9.902  19.072  0.00  0.00    +0.000 N 
ATOM     14  H   UNL     1       0.881   9.846  18.058  0.00  0.00    +0.000 HD
BRANCH  13  15
ATOM     15  C   UNL     1       0.189  11.067  19.696  0.00  0.00    +0.000 C 
BRANCH  15  16
ATOM     16  C   UNL     1       0.516  12.382  18.949  0.00  0.00    +0.000 C 
BRANCH  16  17
ATOM     17  C   UNL     1       1.987  12.608  18.697  0.00  0.00    +0.000 C 
ATOM     18  O   UNL     1       2.729  13.279  19.401  0.00  0.00    +0.000 OA
BRANCH  17  19
ATOM     19  O   UNL     1       2.419  12.039  17.547  0.00  0.00    +0.000 OA
ATOM     20  H   UNL     1       2.129  11.116  17.421  0.00  0.00    +0.000 HD
ENDBRANCH  17  19
ENDBRANCH  16  17
ENDBRANCH  15  16
BRANCH  15  21
ATOM     21  C   UNL     1      -1.324  10.882  19.897  0.00  0.00    +0.000 C 
BRANCH  21  22
ATOM     22  C   UNL     1      -2.141  10.834  18.620  0.00  0.00    +0.000 A 
ATOM     23  C   UNL     1      -3.303  11.602  18.448  0.00  0.00    +0.000 A 
ATOM     24  C   UNL     1      -4.011  11.561  17.241  0.00  0.00    +0.000 A 
ATOM     25  C   UNL     1      -3.571  10.748  16.198  0.00  0.00    +0.000 A 
ATOM     26  C   UNL     1      -2.424   9.977  16.360  0.00  0.00    +0.000 A 
ATOM     27  C   UNL     1      -1.712  10.021  17.561  0.00  0.00    +0.000 A 
ENDBRANCH  21  22
ENDBRANCH  15  21
ENDBRANCH  13  15
ENDBRANCH   3  11
BRANCH   1  29
ATOM     28  N   UNL     1       2.971   3.393  20.502  0.00  0.00    +0.000 NA
ATOM     29  C   UNL     1       2.935   4.422  19.936  0.00  0.00    +0.000 C 
ENDBRANCH   1  29
BRANCH   4  30
ATOM     30  O   UNL     1       2.622   9.291  17.306  0.00  0.00    +0.000 OA
ATOM     31  H   UNL     1       3.246   9.934  17.713  0.00  0.00    +0.000 HD
ENDBRANCH   4  30
BRANCH   8  32
ATOM     32  O   UNL     1       6.259   4.259  15.963  0.00  0.00    +0.000 OA
BRANCH  32  33
ATOM     33  C   UNL     1       6.622   4.231  14.631  0.00  0.00    +0.000 A 
ATOM     34  C   UNL     1       7.671   5.005  14.119  0.00  0.00    +0.000 A 
ATOM     35  C   UNL     1       7.875   5.092  12.751  0.00  0.00    +0.000 A 
ATOM     36  C   UNL     1       7.100   4.320  11.892  0.00  0.00    +0.000 A 
ATOM     37  C   UNL     1       6.128   3.456  12.403  0.00  0.00    +0.000 A 
ATOM     38  C   UNL     1       5.884   3.410  13.778  0.00  0.00    +0.000 A 
ENDBRANCH  32  33
ENDBRANCH   8  32
TORSDOF 11
ENDMDL
MODEL 7
REMARK VINA RESULT:      -8.6      1.910      3.809
REMARK  Name = 
REMARK  11 active torsions:
REMARK  status: ('A' for Active; 'I' for Inactive)
REMARK    1  A    between atoms: C_2  and  C_3
REMARK    2  A    between atoms: C_5  and  C_6
REMARK    3  A    between atoms: N_8  and  C_9
REMARK    4  A    between atoms: C_9  and  C_10
REMARK    5  A    between atoms: C_9  and  C_14
REMARK    6  A    between atoms: C_10  and  C_11
REMARK    7  A    between atoms: C_11  and  O_13
REMARK    8  A    between atoms: C_14  and  C_15
REMARK    9  A    between atoms: C_21  and  O_22
REMARK   10  A    between atoms: C_26  and  O_27
REMARK   11  A    between atoms: O_27  and  C_28
REMARK                            x       y       z     vdW  Elec       q    Type
REMARK                         _______ _______ _______ _____ _____    ______ ____
ROOT
ATOM      1  C   UNL     1       1.799   9.476  18.996  0.00  0.00    +0.000 A 
ATOM      2  N   UNL     1       2.441   8.332  18.630  0.00  0.00    +0.000 NA
ATOM      3  C   UNL     1       2.292   7.277  19.467  0.00  0.00    +0.000 A 
ATOM      4  C   UNL     1       1.488   7.282  20.605  0.00  0.00    +0.000 A 
ATOM      5  C   UNL     1       0.860   8.472  20.973  0.00  0.00    +0.000 A 
ATOM      6  C   UNL     1       0.116   8.536  22.156  0.00  0.00    +0.000 A 
ATOM      7  C   UNL     1      -0.457   9.727  22.570  0.00  0.00    +0.000 A 
ATOM      8  C   UNL     1      -0.283  10.889  21.816  0.00  0.00    +0.000 A 
ATOM      9  C   UNL     1       0.403  10.830  20.603  0.00  0.00    +0.000 A 
ATOM     10  C   UNL     1       1.013   9.625  20.167  0.00  0.00    +0.000 A 
ENDROOT
BRANCH   3  11
ATOM     11  C   UNL     1       3.119   6.073  19.215  0.00  0.00    +0.000 C 
ATOM     12  O   UNL     1       4.341   6.157  19.357  0.00  0.00    +0.000 OA
ATOM     13  N   UNL     1       2.488   4.902  18.888  0.00  0.00    +0.000 N 
ATOM     14  H   UNL     1       1.471   4.882  18.846  0.00  0.00    +0.000 HD
BRANCH  13  15
ATOM     15  C   UNL     1       3.251   3.672  18.717  0.00  0.00    +0.000 C 
BRANCH  15  16
ATOM     16  C   UNL     1       2.609   2.470  19.450  0.00  0.00    +0.000 C 
BRANCH  16  17
ATOM     17  C   UNL     1       1.902   2.827  20.735  0.00  0.00    +0.000 C 
ATOM     18  O   UNL     1       2.342   2.631  21.860  0.00  0.00    +0.000 OA
BRANCH  17  19
ATOM     19  O   UNL     1       0.667   3.340  20.533  0.00  0.00    +0.000 OA
ATOM     20  H   UNL     1       0.005   2.690  20.228  0.00  0.00    +0.000 HD
ENDBRANCH  17  19
ENDBRANCH  16  17
ENDBRANCH  15  16
BRANCH  15  21
ATOM     21  C   UNL     1       3.525   3.362  17.236  0.00  0.00    +0.000 C 
BRANCH  21  22
ATOM     22  C   UNL     1       4.823   3.925  16.691  0.00  0.00    +0.000 A 
ATOM     23  C   UNL     1       5.963   4.083  17.494  0.00  0.00    +0.000 A 
ATOM     24  C   UNL     1       7.156   4.571  16.949  0.00  0.00    +0.000 A 
ATOM     25  C   UNL     1       7.222   4.911  15.599  0.00  0.00    +0.000 A 
ATOM     26  C   UNL     1       6.096   4.765  14.794  0.00  0.00    +0.000 A 
ATOM     27  C   UNL     1       4.906   4.273  15.335  0.00  0.00    +0.000 A 
ENDBRANCH  21  22
ENDBRANCH  15  21
ENDBRANCH  13  15
ENDBRANCH   3  11
BRANCH   1  29
ATOM     28  N   UNL     1       2.230  11.485  17.392  0.00  0.00    +0.000 NA
ATOM     29  C   UNL     1       2.021  10.576  18.106  0.00  0.00    +0.000 C 
ENDBRANCH   1  29
BRANCH   4  30
ATOM     30  O   UNL     1       1.291   6.171  21.390  0.00  0.00    +0.000 OA
ATOM     31  H   UNL     1       2.168   5.837  21.690  0.00  0.00    +0.000 HD
ENDBRANCH   4  30
BRANCH   8  32
ATOM     32  O   UNL     1      -0.744  12.133  22.203  0.00  0.00    +0.000 OA
BRANCH  32  33
ATOM     33  C   UNL     1      -2.104  12.366  22.147  0.00  0.00    +0.000 A 
ATOM     34  C   UNL     1      -2.775  12.632  20.948  0.00  0.00    +0.000 A 
ATOM     35  C   UNL     1      -4.096  13.048  20.960  0.00  0.00    +0.000 A 
ATOM     36  C   UNL     1      -4.789  13.097  22.166  0.00  0.00    +0.000 A 
ATOM     37  C   UNL     1      -4.159  12.719  23.356  0.00  0.00    +0.000 A 
ATOM     38  C   UNL     1      -2.811  12.354  23.350  0.00  0.00    +0.000 A 
ENDBRANCH  32  33
ENDBRANCH   8  32
TORSDOF 11
ENDMDL
MODEL 8
REMARK VINA RESULT:      -8.6      1.332      1.603
REMARK  Name = 
REMARK  11 active torsions:
REMARK  status: ('A' for Active; 'I' for Inactive)
REMARK    1  A    between atoms: C_2  and  C_3
REMARK    2  A    between atoms: C_5  and  C_6
REMARK    3  A    between atoms: N_8  and  C_9
REMARK    4  A    between atoms: C_9  and  C_10
REMARK    5  A    between atoms: C_9  and  C_14
REMARK    6  A    between atoms: C_10  and  C_11
REMARK    7  A    between atoms: C_11  and  O_13
REMARK    8  A    between atoms: C_14  and  C_15
REMARK    9  A    between atoms: C_21  and  O_22
REMARK   10  A    between atoms: C_26  and  O_27
REMARK   11  A    between atoms: O_27  and  C_28
REMARK                            x       y       z     vdW  Elec       q    Type
REMARK                         _______ _______ _______ _____ _____    ______ ____
ROOT
ATOM      1  C   UNL     1      -0.195  10.236  18.928  0.00  0.00    +0.000 A 
ATOM      2  N   UNL     1       0.612   9.486  18.127  0.00  0.00    +0.000 NA
ATOM      3  C   UNL     1       1.438   8.621  18.764  0.00  0.00    +0.000 A 
ATOM      4  C   UNL     1       1.453   8.417  20.142  0.00  0.00    +0.000 A 
ATOM      5  C   UNL     1       0.635   9.212  20.944  0.00  0.00    +0.000 A 
ATOM      6  C   UNL     1       0.690   9.094  22.337  0.00  0.00    +0.000 A 
ATOM      7  C   UNL     1      -0.066   9.924  23.148  0.00  0.00    +0.000 A 
ATOM      8  C   UNL     1      -0.882  10.907  22.584  0.00  0.00    +0.000 A 
ATOM      9  C   UNL     1      -0.995  10.998  21.196  0.00  0.00    +0.000 A 
ATOM     10  C   UNL     1      -0.218  10.170  20.345  0.00  0.00    +0.000 A 
ENDROOT
BRANCH   3  11
ATOM     11  C   UNL     1       2.464   7.923  17.953  0.00  0.00    +0.000 C 
ATOM     12  O   UNL     1       3.098   8.572  17.119  0.00  0.00    +0.000 OA
ATOM     13  N   UNL     1       2.705   6.598  18.202  0.00  0.00    +0.000 N 
ATOM     14  H   UNL     1       2.190   6.132  18.948  0.00  0.00    +0.000 HD
BRANCH  13  15
ATOM     15  C   UNL     1       3.765   5.891  17.493  0.00  0.00    +0.000 C 
BRANCH  15  16
ATOM     16  C   UNL     1       5.175   6.267  18.009  0.00  0.00    +0.000 C 
BRANCH  16  17
ATOM     17  C   UNL     1       6.092   6.842  16.956  0.00  0.00    +0.000 C 
ATOM     18  O   UNL     1       7.010   7.622  17.170  0.00  0.00    +0.000 OA
BRANCH  17  19
ATOM     19  O   UNL     1       5.759   6.461  15.701  0.00  0.00    +0.000 OA
ATOM     20  H   UNL     1       6.260   5.693  15.367  0.00  0.00    +0.000 HD
ENDBRANCH  17  19
ENDBRANCH  16  17
ENDBRANCH  15  16
BRANCH  15  21
ATOM     21  C   UNL     1       3.542   4.370  17.489  0.00  0.00    +0.000 C 
BRANCH  21  22
ATOM     22  C   UNL     1       2.734   3.835  18.656  0.00  0.00    +0.000 A 
ATOM     23  C   UNL     1       1.377   3.501  18.533  0.00  0.00    +0.000 A 
ATOM     24  C   UNL     1       0.672   2.974  19.622  0.00  0.00    +0.000 A 
ATOM     25  C   UNL     1       1.313   2.781  20.843  0.00  0.00    +0.000 A 
ATOM     26  C   UNL     1       2.658   3.115  20.979  0.00  0.00    +0.000 A 
ATOM     27  C   UNL     1       3.364   3.635  19.893  0.00  0.00    +0.000 A 
ENDBRANCH  21  22
ENDBRANCH  15  21
ENDBRANCH  13  15
ENDBRANCH   3  11
BRANCH   1  29
ATOM     28  N   UNL     1      -1.691  11.910  17.605  0.00  0.00    +0.000 NA
ATOM     29  C   UNL     1      -1.017  11.166  18.215  0.00  0.00    +0.000 C 
ENDBRANCH   1  29
BRANCH   4  30
ATOM     30  O   UNL     1       2.245   7.472  20.751  0.00  0.00    +0.000 OA
ATOM     31  H   UNL     1       2.366   6.715  20.134  0.00  0.00    +0.000 HD
ENDBRANCH   4  30
BRANCH   8  32
ATOM     32  O   UNL     1      -1.595  11.831  23.322  0.00  0.00    +0.000 OA
BRANCH  32  33
ATOM     33  C   UNL     1      -1.295  13.168  23.150  0.00  0.00    +0.000 A 
ATOM     34  C   UNL     1      -0.225  13.606  22.360  0.00  0.00    +0.000 A 
ATOM     35  C   UNL     1       0.155  14.938  22.370  0.00  0.00    +0.000 A 
ATOM     36  C   UNL     1      -0.599  15.862  23.087  0.00  0.00    +0.000 A 
ATOM     37  C   UNL     1      -1.738  15.451  23.785  0.00  0.00    +0.000 A 
ATOM     38  C   UNL     1      -2.089  14.099  23.820  0.00  0.00    +0.000 A 
ENDBRANCH  32  33
ENDBRANCH   8  32
TORSDOF 11
ENDMDL
MODEL 9
REMARK VINA RESULT:      -8.6      1.013      1.143
REMARK  Name = 
REMARK  11 active torsions:
REMARK  status: ('A' for Active; 'I' for Inactive)
REMARK    1  A    between atoms: C_2  and  C_3
REMARK    2  A    between atoms: C_5  and  C_6
REMARK    3  A    between atoms: N_8  and  C_9
REMARK    4  A    between atoms: C_9  and  C_10
REMARK    5  A    between atoms: C_9  and  C_14
REMARK    6  A    between atoms: C_10  and  C_11
REMARK    7  A    between atoms: C_11  and  O_13
REMARK    8  A    between atoms: C_14  and  C_15
REMARK    9  A    between atoms: C_21  and  O_22
REMARK   10  A    between atoms: C_26  and  O_27
REMARK   11  A    between atoms: O_27  and  C_28
REMARK                            x       y       z     vdW  Elec       q    Type
REMARK                         _______ _______ _______ _____ _____    ______ ____
ROOT
ATOM      1  C   UNL     1       0.024  10.329  19.105  0.00  0.00    +0.000 A 
ATOM      2  N   UNL     1       0.789   9.580  18.263  0.00  0.00    +0.000 NA
ATOM      3  C   UNL     1       1.527   8.604  18.846  0.00  0.00    +0.000 A 
ATOM      4  C   UNL     1       1.489   8.293  20.203  0.00  0.00    +0.000 A 
ATOM      5  C   UNL     1       0.717   9.088  21.049  0.00  0.00    +0.000 A 
ATOM      6  C   UNL     1       0.726   8.859  22.429  0.00  0.00    +0.000 A 
ATOM      7  C   UNL     1       0.018   9.682  23.289  0.00  0.00    +0.000 A 
ATOM      8  C   UNL     1      -0.702  10.768  22.788  0.00  0.00    +0.000 A 
ATOM      9  C   UNL     1      -0.771  10.975  21.410  0.00  0.00    +0.000 A 
ATOM     10  C   UNL     1      -0.041  10.155  20.511  0.00  0.00    +0.000 A 
ENDROOT
BRANCH   3  11
ATOM     11  C   UNL     1       2.515   7.889  18.002  0.00  0.00    +0.000 C 
ATOM     12  O   UNL     1       3.113   8.522  17.131  0.00  0.00    +0.000 OA
ATOM     13  N   UNL     1       2.763   6.567  18.263  0.00  0.00    +0.000 N 
ATOM     14  H   UNL     1       2.281   6.116  19.038  0.00  0.00    +0.000 HD
BRANCH  13  15
ATOM     15  C   UNL     1       3.789   5.846  17.520  0.00  0.00    +0.000 C 
BRANCH  15  16
ATOM     16  C   UNL     1       5.218   6.166  18.021  0.00  0.00    +0.000 C 
BRANCH  16  17
ATOM     17  C   UNL     1       6.236   5.089  17.732  0.00  0.00    +0.000 C 
ATOM     18  O   UNL     1       6.709   4.323  18.562  0.00  0.00    +0.000 OA
BRANCH  17  19
ATOM     19  O   UNL     1       6.648   5.085  16.443  0.00  0.00    +0.000 OA
ATOM     20  H   UNL     1       6.247   5.781  15.889  0.00  0.00    +0.000 HD
ENDBRANCH  17  19
ENDBRANCH  16  17
ENDBRANCH  15  16
BRANCH  15  21
ATOM     21  C   UNL     1       3.519   4.333  17.483  0.00  0.00    +0.000 C 
BRANCH  21  22
ATOM     22  C   UNL     1       2.753   3.787  18.673  0.00  0.00    +0.000 A 
ATOM     23  C   UNL     1       1.370   3.554  18.628  0.00  0.00    +0.000 A 
ATOM     24  C   UNL     1       0.702   3.015  19.733  0.00  0.00    +0.000 A 
ATOM     25  C   UNL     1       1.406   2.708  20.895  0.00  0.00    +0.000 A 
ATOM     26  C   UNL     1       2.778   2.940  20.955  0.00  0.00    +0.000 A 
ATOM     27  C   UNL     1       3.447   3.473  19.851  0.00  0.00    +0.000 A 
ENDBRANCH  21  22
ENDBRANCH  15  21
ENDBRANCH  13  15
ENDBRANCH   3  11
BRANCH   1  29
ATOM     28  N   UNL     1      -1.273  12.251  17.915  0.00  0.00    +0.000 NA
ATOM     29  C   UNL     1      -0.703  11.375  18.452  0.00  0.00    +0.000 C 
ENDBRANCH   1  29
BRANCH   4  30
ATOM     30  O   UNL     1       2.188   7.243  20.752  0.00  0.00    +0.000 OA
ATOM     31  H   UNL     1       1.618   6.799  21.420  0.00  0.00    +0.000 HD
ENDBRANCH   4  30
BRANCH   8  32
ATOM     32  O   UNL     1      -1.358  11.688  23.583  0.00  0.00    +0.000 OA
BRANCH  32  33
ATOM     33  C   UNL     1      -2.052  12.705  22.959  0.00  0.00    +0.000 A 
ATOM     34  C   UNL     1      -1.443  13.901  22.560  0.00  0.00    +0.000 A 
ATOM     35  C   UNL     1      -2.209  14.966  22.114  0.00  0.00    +0.000 A 
ATOM     36  C   UNL     1      -3.583  14.804  21.962  0.00  0.00    +0.000 A 
ATOM     37  C   UNL     1      -4.185  13.575  22.246  0.00  0.00    +0.000 A 
ATOM     38  C   UNL     1      -3.420  12.520  22.749  0.00  0.00    +0.000 A 
ENDBRANCH  32  33
ENDBRANCH   8  32
TORSDOF 11
ENDMDL
