MODEL 1
REMARK VINA RESULT:      -7.2      0.000      0.000
REMARK  Name = 
REMARK  10 active torsions:
REMARK  status: ('A' for Active; 'I' for Inactive)
REMARK    1  A    between atoms: N_1  and  C_2
REMARK    2  A    between atoms: C_4  and  O_5
REMARK    3  A    between atoms: O_5  and  C_6
REMARK    4  A    between atoms: C_6  and  C_7
REMARK    5  A    between atoms: C_7  and  O_8
REMARK    6  A    between atoms: N_14  and  C1*_15
REMARK    7  A    between atoms: C4*_17  and  C5*_18
REMARK    8  A    between atoms: C5*_18  and  O5*_19
REMARK    9  A    between atoms: C3*_20  and  O3*_21
REMARK   10  A    between atoms: C2*_22  and  O2*_23
REMARK                            x       y       z     vdW  Elec       q    Type
REMARK                         _______ _______ _______ _____ _____    ______ ____
ROOT
ATOM      1  C   UNL     1       6.980   6.033  16.578  0.00  0.00    +0.000 A 
ATOM      2  N   UNL     1       7.153   5.189  15.533  0.00  0.00    +0.000 NA
ATOM      3  C   UNL     1       6.290   4.160  15.386  0.00  0.00    +0.000 A 
ATOM      4  N   UNL     1       5.244   3.849  16.170  0.00  0.00    +0.000 NA
ATOM      5  C   UNL     1       5.138   4.683  17.210  0.00  0.00    +0.000 A 
ATOM      6  C   UNL     1       5.945   5.770  17.490  0.00  0.00    +0.000 A 
ATOM      7  N   UNL     1       5.535   6.397  18.650  0.00  0.00    +0.000 NA
ATOM      8  C   UNL     1       4.480   5.713  19.044  0.00  0.00    +0.000 A 
ATOM      9  N   UNL     1       4.194   4.675  18.196  0.00  0.00    +0.000 N 
ENDROOT
BRANCH   9  10
ATOM     10  C1* UNL     1       3.054   3.789  18.300  0.00  0.00    +0.000 C 
ATOM     11  O4* UNL     1       2.031   4.413  19.108  0.00  0.00    +0.000 OA
ATOM     12  C4* UNL     1       1.468   3.408  19.992  0.00  0.00    +0.000 C 
ATOM     13  C3* UNL     1       2.028   2.061  19.543  0.00  0.00    +0.000 C 
ATOM     14  C2* UNL     1       3.365   2.424  18.916  0.00  0.00    +0.000 C 
BRANCH  13  15
ATOM     15  O3* UNL     1       1.219   1.454  18.518  0.00  0.00    +0.000 OA
ATOM     16  H3* UNL     1       0.913   0.578  18.824  0.00  0.00    +0.000 HD
ENDBRANCH  13  15
BRANCH  14  17
ATOM     17  O2* UNL     1       3.765   1.465  17.937  0.00  0.00    +0.000 OA
ATOM     18  H2* UNL     1       3.925   1.969  17.112  0.00  0.00    +0.000 HD
ENDBRANCH  14  17
BRANCH  12  19
ATOM     19  C5* UNL     1       1.816   3.752  21.443  0.00  0.00    +0.000 C 
BRANCH  19  20
ATOM     20  O5* UNL     1       1.731   2.579  22.249  0.00  0.00    +0.000 OA
ATOM     21  H5* UNL     1       1.021   2.750  22.897  0.00  0.00    +0.000 HD
ENDBRANCH  19  20
ENDBRANCH  12  19
ENDBRANCH   9  10
BRANCH   1  22
ATOM     22  N   UNL     1       7.827   7.125  16.698  0.00  0.00    +0.000 N 
ATOM     23  H   UNL     1       7.358   7.986  16.943  0.00  0.00    +0.000 HD
ATOM     24  H   UNL     1       8.576   7.154  16.018  0.00  0.00    +0.000 HD
ENDBRANCH   1  22
BRANCH   3  25
ATOM     25  O   UNL     1       6.399   3.342  14.282  0.00  0.00    +0.000 OA
BRANCH  25  26
ATOM     26  C   UNL     1       6.394   4.065  13.050  0.00  0.00    +0.000 C 
BRANCH  26  27
ATOM     27  C   UNL     1       5.538   3.272  12.064  0.00  0.00    +0.000 C 
BRANCH  27  28
ATOM     28  O   UNL     1       6.116   1.990  11.819  0.00  0.00    +0.000 OA
ATOM     29  H   UNL     1       5.460   1.489  11.301  0.00  0.00    +0.000 HD
ENDBRANCH  27  28
ENDBRANCH  26  27
ENDBRANCH  25  26
ENDBRANCH   3  25
TORSDOF 10
ENDMDL
MODEL 2
REMARK VINA RESULT:      -7.2      0.990      1.023
REMARK  Name = 
REMARK  10 active torsions:
REMARK  status: ('A' for Active; 'I' for Inactive)
REMARK    1  A    between atoms: N_1  and  C_2
REMARK    2  A    between atoms: C_4  and  O_5
REMARK    3  A    between atoms: O_5  and  C_6
REMARK    4  A    between atoms: C_6  and  C_7
REMARK    5  A    between atoms: C_7  and  O_8
REMARK    6  A    between atoms: N_14  and  C1*_15
REMARK    7  A    between atoms: C4*_17  and  C5*_18
REMARK    8  A    between atoms: C5*_18  and  O5*_19
REMARK    9  A    between atoms: C3*_20  and  O3*_21
REMARK   10  A    between atoms: C2*_22  and  O2*_23
REMARK                            x       y       z     vdW  Elec       q    Type
REMARK                         _______ _______ _______ _____ _____    ______ ____
ROOT
ATOM      1  C   UNL     1       7.333   6.460  17.528  0.00  0.00    +0.000 A 
ATOM      2  N   UNL     1       7.466   6.231  16.200  0.00  0.00    +0.000 NA
ATOM      3  C   UNL     1       6.574   5.417  15.593  0.00  0.00    +0.000 A 
ATOM      4  N   UNL     1       5.534   4.778  16.154  0.00  0.00    +0.000 NA
ATOM      5  C   UNL     1       5.468   5.000  17.472  0.00  0.00    +0.000 A 
ATOM      6  C   UNL     1       6.307   5.800  18.224  0.00  0.00    +0.000 A 
ATOM      7  N   UNL     1       5.934   5.787  19.553  0.00  0.00    +0.000 NA
ATOM      8  C   UNL     1       4.868   5.013  19.593  0.00  0.00    +0.000 A 
ATOM      9  N   UNL     1       4.540   4.526  18.355  0.00  0.00    +0.000 N 
ENDROOT
BRANCH   9  10
ATOM     10  C1* UNL     1       3.379   3.719  18.045  0.00  0.00    +0.000 C 
ATOM     11  O4* UNL     1       2.179   4.469  18.335  0.00  0.00    +0.000 OA
ATOM     12  C4* UNL     1       1.226   3.582  18.977  0.00  0.00    +0.000 C 
ATOM     13  C3* UNL     1       1.797   2.170  18.873  0.00  0.00    +0.000 C 
ATOM     14  C2* UNL     1       3.300   2.400  18.815  0.00  0.00    +0.000 C 
BRANCH  13  15
ATOM     15  O3* UNL     1       1.411   1.520  17.648  0.00  0.00    +0.000 OA
ATOM     16  H3* UNL     1       2.117   0.903  17.374  0.00  0.00    +0.000 HD
ENDBRANCH  13  15
BRANCH  14  17
ATOM     17  O2* UNL     1       3.968   1.334  18.139  0.00  0.00    +0.000 OA
ATOM     18  H2* UNL     1       4.419   1.741  17.369  0.00  0.00    +0.000 HD
ENDBRANCH  14  17
BRANCH  12  19
ATOM     19  C5* UNL     1       1.000   4.035  20.422  0.00  0.00    +0.000 C 
BRANCH  19  20
ATOM     20  O5* UNL     1       0.897   2.895  21.273  0.00  0.00    +0.000 OA
ATOM     21  H5* UNL     1       1.617   2.983  21.926  0.00  0.00    +0.000 HD
ENDBRANCH  19  20
ENDBRANCH  12  19
ENDBRANCH   9  10
BRANCH   1  22
ATOM     22  N   UNL     1       8.210   7.342  18.141  0.00  0.00    +0.000 N 
ATOM     23  H   UNL     1       7.804   7.863  18.906  0.00  0.00    +0.000 HD
ATOM     24  H   UNL     1       8.843   7.815  17.509  0.00  0.00    +0.000 HD
ENDBRANCH   1  22
BRANCH   3  25
ATOM     25  O   UNL     1       6.643   5.240  14.228  0.00  0.00    +0.000 OA
BRANCH  25  26
ATOM     26  C   UNL     1       6.018   4.032  13.791  0.00  0.00    +0.000 C 
BRANCH  26  27
ATOM     27  C   UNL     1       6.604   3.690  12.422  0.00  0.00    +0.000 C 
BRANCH  27  28
ATOM     28  O   UNL     1       6.150   2.408  11.990  0.00  0.00    +0.000 OA
ATOM     29  H   UNL     1       5.256   2.294  12.364  0.00  0.00    +0.000 HD
ENDBRANCH  27  28
ENDBRANCH  26  27
ENDBRANCH  25  26
ENDBRANCH   3  25
TORSDOF 10
ENDMDL
MODEL 3
REMARK VINA RESULT:      -6.9      1.077      1.245
REMARK  Name = 
REMARK  10 active torsions:
REMARK  status: ('A' for Active; 'I' for Inactive)
REMARK    1  A    between atoms: N_1  and  C_2
REMARK    2  A    between atoms: C_4  and  O_5
REMARK    3  A    between atoms: O_5  and  C_6
REMARK    4  A    between atoms: C_6  and  C_7
REMARK    5  A    between atoms: C_7  and  O_8
REMARK    6  A    between atoms: N_14  and  C1*_15
REMARK    7  A    between atoms: C4*_17  and  C5*_18
REMARK    8  A    between atoms: C5*_18  and  O5*_19
REMARK    9  A    between atoms: C3*_20  and  O3*_21
REMARK   10  A    between atoms: C2*_22  and  O2*_23
REMARK                            x       y       z     vdW  Elec       q    Type
REMARK                         _______ _______ _______ _____ _____    ______ ____
ROOT
ATOM      1  C   UNL     1       6.902   6.140  16.574  0.00  0.00    +0.000 A 
ATOM      2  N   UNL     1       6.737   5.710  15.301  0.00  0.00    +0.000 NA
ATOM      3  C   UNL     1       5.738   4.840  15.039  0.00  0.00    +0.000 A 
ATOM      4  N   UNL     1       4.853   4.322  15.907  0.00  0.00    +0.000 NA
ATOM      5  C   UNL     1       5.081   4.741  17.157  0.00  0.00    +0.000 A 
ATOM      6  C   UNL     1       6.062   5.622  17.573  0.00  0.00    +0.000 A 
ATOM      7  N   UNL     1       5.994   5.819  18.938  0.00  0.00    +0.000 NA
ATOM      8  C   UNL     1       4.970   5.090  19.331  0.00  0.00    +0.000 A 
ATOM      9  N   UNL     1       4.377   4.431  18.285  0.00  0.00    +0.000 N 
ENDROOT
BRANCH   9  10
ATOM     10  C1* UNL     1       3.181   3.619  18.368  0.00  0.00    +0.000 C 
ATOM     11  O4* UNL     1       2.143   4.358  19.048  0.00  0.00    +0.000 OA
ATOM     12  C4* UNL     1       1.459   3.458  19.958  0.00  0.00    +0.000 C 
ATOM     13  C3* UNL     1       1.968   2.051  19.653  0.00  0.00    +0.000 C 
ATOM     14  C2* UNL     1       3.366   2.292  19.104  0.00  0.00    +0.000 C 
BRANCH  13  15
ATOM     15  O3* UNL     1       1.200   1.411  18.617  0.00  0.00    +0.000 OA
ATOM     16  H3* UNL     1       1.727   1.385  17.795  0.00  0.00    +0.000 HD
ENDBRANCH  13  15
BRANCH  14  17
ATOM     17  O2* UNL     1       3.776   1.238  18.232  0.00  0.00    +0.000 OA
ATOM     18  H2* UNL     1       3.460   1.487  17.337  0.00  0.00    +0.000 HD
ENDBRANCH  14  17
BRANCH  12  19
ATOM     19  C5* UNL     1       1.723   3.893  21.402  0.00  0.00    +0.000 C 
BRANCH  19  20
ATOM     20  O5* UNL     1       2.337   5.180  21.412  0.00  0.00    +0.000 OA
ATOM     21  H5* UNL     1       3.111   5.112  20.819  0.00  0.00    +0.000 HD
ENDBRANCH  19  20
ENDBRANCH  12  19
ENDBRANCH   9  10
BRANCH   1  22
ATOM     22  N   UNL     1       7.888   7.080  16.836  0.00  0.00    +0.000 N 
ATOM     23  H   UNL     1       8.787   6.860  16.430  0.00  0.00    +0.000 HD
ATOM     24  H   UNL     1       7.857   7.475  17.767  0.00  0.00    +0.000 HD
ENDBRANCH   1  22
BRANCH   3  25
ATOM     25  O   UNL     1       5.502   4.458  13.736  0.00  0.00    +0.000 OA
BRANCH  25  26
ATOM     26  C   UNL     1       6.581   3.712  13.170  0.00  0.00    +0.000 C 
BRANCH  26  27
ATOM     27  C   UNL     1       7.192   4.571  12.064  0.00  0.00    +0.000 C 
BRANCH  27  28
ATOM     28  O   UNL     1       8.049   5.568  12.621  0.00  0.00    +0.000 OA
ATOM     29  H   UNL     1       8.658   5.100  13.222  0.00  0.00    +0.000 HD
ENDBRANCH  27  28
ENDBRANCH  26  27
ENDBRANCH  25  26
ENDBRANCH   3  25
TORSDOF 10
ENDMDL
MODEL 4
REMARK VINA RESULT:      -6.9      2.832      4.554
REMARK  Name = 
REMARK  10 active torsions:
REMARK  status: ('A' for Active; 'I' for Inactive)
REMARK    1  A    between atoms: N_1  and  C_2
REMARK    2  A    between atoms: C_4  and  O_5
REMARK    3  A    between atoms: O_5  and  C_6
REMARK    4  A    between atoms: C_6  and  C_7
REMARK    5  A    between atoms: C_7  and  O_8
REMARK    6  A    between atoms: N_14  and  C1*_15
REMARK    7  A    between atoms: C4*_17  and  C5*_18
REMARK    8  A    between atoms: C5*_18  and  O5*_19
REMARK    9  A    between atoms: C3*_20  and  O3*_21
REMARK   10  A    between atoms: C2*_22  and  O2*_23
REMARK                            x       y       z     vdW  Elec       q    Type
REMARK                         _______ _______ _______ _____ _____    ______ ____
ROOT
ATOM      1  C   UNL     1       7.063   5.499  15.589  0.00  0.00    +0.000 A 
ATOM      2  N   UNL     1       7.733   6.470  16.254  0.00  0.00    +0.000 NA
ATOM      3  C   UNL     1       7.336   6.786  17.506  0.00  0.00    +0.000 A 
ATOM      4  N   UNL     1       6.324   6.246  18.206  0.00  0.00    +0.000 NA
ATOM      5  C   UNL     1       5.666   5.324  17.495  0.00  0.00    +0.000 A 
ATOM      6  C   UNL     1       5.953   4.902  16.210  0.00  0.00    +0.000 A 
ATOM      7  N   UNL     1       5.056   3.936  15.801  0.00  0.00    +0.000 NA
ATOM      8  C   UNL     1       4.260   3.760  16.835  0.00  0.00    +0.000 A 
ATOM      9  N   UNL     1       4.599   4.567  17.889  0.00  0.00    +0.000 N 
ENDROOT
BRANCH   9  10
ATOM     10  C1* UNL     1       3.978   4.556  19.196  0.00  0.00    +0.000 C 
ATOM     11  O4* UNL     1       3.794   3.190  19.630  0.00  0.00    +0.000 OA
ATOM     12  C4* UNL     1       2.486   3.078  20.250  0.00  0.00    +0.000 C 
ATOM     13  C3* UNL     1       1.941   4.497  20.393  0.00  0.00    +0.000 C 
ATOM     14  C2* UNL     1       2.617   5.251  19.259  0.00  0.00    +0.000 C 
BRANCH  13  15
ATOM     15  O3* UNL     1       2.352   5.111  21.628  0.00  0.00    +0.000 OA
ATOM     16  H3* UNL     1       3.204   5.571  21.491  0.00  0.00    +0.000 HD
ENDBRANCH  13  15
BRANCH  14  17
ATOM     17  O2* UNL     1       2.732   6.644  19.549  0.00  0.00    +0.000 OA
ATOM     18  H2* UNL     1       3.671   6.797  19.786  0.00  0.00    +0.000 HD
ENDBRANCH  14  17
BRANCH  12  19
ATOM     19  C5* UNL     1       1.593   2.173  19.397  0.00  0.00    +0.000 C 
BRANCH  19  20
ATOM     20  O5* UNL     1       2.399   1.384  18.525  0.00  0.00    +0.000 OA
ATOM     21  H5* UNL     1       3.274   1.321  18.954  0.00  0.00    +0.000 HD
ENDBRANCH  19  20
ENDBRANCH  12  19
ENDBRANCH   9  10
BRANCH   1  22
ATOM     22  N   UNL     1       7.505   5.131  14.327  0.00  0.00    +0.000 N 
ATOM     23  H   UNL     1       6.782   5.130  13.620  0.00  0.00    +0.000 HD
ATOM     24  H   UNL     1       8.194   4.390  14.322  0.00  0.00    +0.000 HD
ENDBRANCH   1  22
BRANCH   3  25
ATOM     25  O   UNL     1       8.058   7.711  18.229  0.00  0.00    +0.000 OA
BRANCH  25  26
ATOM     26  C   UNL     1       7.801   9.057  17.826  0.00  0.00    +0.000 C 
BRANCH  26  27
ATOM     27  C   UNL     1       8.977   9.905  18.307  0.00  0.00    +0.000 C 
BRANCH  27  28
ATOM     28  O   UNL     1       9.241   9.658  19.687  0.00  0.00    +0.000 OA
ATOM     29  H   UNL     1      10.106   9.210  19.725  0.00  0.00    +0.000 HD
ENDBRANCH  27  28
ENDBRANCH  26  27
ENDBRANCH  25  26
ENDBRANCH   3  25
TORSDOF 10
ENDMDL
MODEL 5
REMARK VINA RESULT:      -6.8      3.413      6.482
REMARK  Name = 
REMARK  10 active torsions:
REMARK  status: ('A' for Active; 'I' for Inactive)
REMARK    1  A    between atoms: N_1  and  C_2
REMARK    2  A    between atoms: C_4  and  O_5
REMARK    3  A    between atoms: O_5  and  C_6
REMARK    4  A    between atoms: C_6  and  C_7
REMARK    5  A    between atoms: C_7  and  O_8
REMARK    6  A    between atoms: N_14  and  C1*_15
REMARK    7  A    between atoms: C4*_17  and  C5*_18
REMARK    8  A    between atoms: C5*_18  and  O5*_19
REMARK    9  A    between atoms: C3*_20  and  O3*_21
REMARK   10  A    between atoms: C2*_22  and  O2*_23
REMARK                            x       y       z     vdW  Elec       q    Type
REMARK                         _______ _______ _______ _____ _____    ______ ____
ROOT
ATOM      1  C   UNL     1       1.823   4.178  20.580  0.00  0.00    +0.000 A 
ATOM      2  N   UNL     1       1.570   5.507  20.524  0.00  0.00    +0.000 NA
ATOM      3  C   UNL     1       2.409   6.293  19.813  0.00  0.00    +0.000 A 
ATOM      4  N   UNL     1       3.504   5.918  19.130  0.00  0.00    +0.000 NA
ATOM      5  C   UNL     1       3.737   4.606  19.249  0.00  0.00    +0.000 A 
ATOM      6  C   UNL     1       2.973   3.685  19.942  0.00  0.00    +0.000 A 
ATOM      7  N   UNL     1       3.524   2.423  19.844  0.00  0.00    +0.000 NA
ATOM      8  C   UNL     1       4.586   2.579  19.080  0.00  0.00    +0.000 A 
ATOM      9  N   UNL     1       4.747   3.882  18.684  0.00  0.00    +0.000 N 
ENDROOT
BRANCH   9  10
ATOM     10  C1* UNL     1       5.762   4.369  17.775  0.00  0.00    +0.000 C 
ATOM     11  O4* UNL     1       7.060   4.264  18.402  0.00  0.00    +0.000 OA
ATOM     12  C4* UNL     1       7.813   5.468  18.102  0.00  0.00    +0.000 C 
ATOM     13  C3* UNL     1       7.010   6.245  17.061  0.00  0.00    +0.000 C 
ATOM     14  C2* UNL     1       5.575   5.821  17.334  0.00  0.00    +0.000 C 
BRANCH  13  15
ATOM     15  O3* UNL     1       7.333   5.840  15.718  0.00  0.00    +0.000 OA
ATOM     16  H3* UNL     1       7.181   6.589  15.110  0.00  0.00    +0.000 HD
ENDBRANCH  13  15
BRANCH  14  17
ATOM     17  O2* UNL     1       4.763   5.934  16.165  0.00  0.00    +0.000 OA
ATOM     18  H2* UNL     1       5.362   6.225  15.445  0.00  0.00    +0.000 HD
ENDBRANCH  14  17
BRANCH  12  19
ATOM     19  C5* UNL     1       8.048   6.258  19.393  0.00  0.00    +0.000 C 
BRANCH  19  20
ATOM     20  O5* UNL     1       7.993   5.377  20.512  0.00  0.00    +0.000 OA
ATOM     21  H5* UNL     1       8.397   4.540  20.214  0.00  0.00    +0.000 HD
ENDBRANCH  19  20
ENDBRANCH  12  19
ENDBRANCH   9  10
BRANCH   1  22
ATOM     22  N   UNL     1       0.932   3.359  21.257  0.00  0.00    +0.000 N 
ATOM     23  H   UNL     1      -0.040   3.557  21.062  0.00  0.00    +0.000 HD
ATOM     24  H   UNL     1       1.204   3.134  22.205  0.00  0.00    +0.000 HD
ENDBRANCH   1  22
BRANCH   3  25
ATOM     25  O   UNL     1       2.120   7.634  19.675  0.00  0.00    +0.000 OA
BRANCH  25  26
ATOM     26  C   UNL     1       2.431   8.139  18.375  0.00  0.00    +0.000 C 
BRANCH  26  27
ATOM     27  C   UNL     1       1.370   9.184  18.031  0.00  0.00    +0.000 C 
BRANCH  27  28
ATOM     28  O   UNL     1       1.965  10.303  17.376  0.00  0.00    +0.000 OA
ATOM     29  H   UNL     1       2.607  10.679  18.006  0.00  0.00    +0.000 HD
ENDBRANCH  27  28
ENDBRANCH  26  27
ENDBRANCH  25  26
ENDBRANCH   3  25
TORSDOF 10
ENDMDL
MODEL 6
REMARK VINA RESULT:      -6.8      3.094      7.330
REMARK  Name = 
REMARK  10 active torsions:
REMARK  status: ('A' for Active; 'I' for Inactive)
REMARK    1  A    between atoms: N_1  and  C_2
REMARK    2  A    between atoms: C_4  and  O_5
REMARK    3  A    between atoms: O_5  and  C_6
REMARK    4  A    between atoms: C_6  and  C_7
REMARK    5  A    between atoms: C_7  and  O_8
REMARK    6  A    between atoms: N_14  and  C1*_15
REMARK    7  A    between atoms: C4*_17  and  C5*_18
REMARK    8  A    between atoms: C5*_18  and  O5*_19
REMARK    9  A    between atoms: C3*_20  and  O3*_21
REMARK   10  A    between atoms: C2*_22  and  O2*_23
REMARK                            x       y       z     vdW  Elec       q    Type
REMARK                         _______ _______ _______ _____ _____    ______ ____
ROOT
ATOM      1  C   UNL     1       1.779   4.289  20.578  0.00  0.00    +0.000 A 
ATOM      2  N   UNL     1       1.423   5.581  20.776  0.00  0.00    +0.000 NA
ATOM      3  C   UNL     1       2.146   6.548  20.170  0.00  0.00    +0.000 A 
ATOM      4  N   UNL     1       3.212   6.394  19.367  0.00  0.00    +0.000 NA
ATOM      5  C   UNL     1       3.551   5.107  19.235  0.00  0.00    +0.000 A 
ATOM      6  C   UNL     1       2.912   4.016  19.795  0.00  0.00    +0.000 A 
ATOM      7  N   UNL     1       3.547   2.843  19.440  0.00  0.00    +0.000 NA
ATOM      8  C   UNL     1       4.535   3.221  18.654  0.00  0.00    +0.000 A 
ATOM      9  N   UNL     1       4.568   4.582  18.490  0.00  0.00    +0.000 N 
ENDROOT
BRANCH   9  10
ATOM     10  C1* UNL     1       5.474   5.306  17.624  0.00  0.00    +0.000 C 
ATOM     11  O4* UNL     1       4.817   5.592  16.369  0.00  0.00    +0.000 OA
ATOM     12  C4* UNL     1       5.763   5.362  15.292  0.00  0.00    +0.000 C 
ATOM     13  C3* UNL     1       7.126   5.136  15.942  0.00  0.00    +0.000 C 
ATOM     14  C2* UNL     1       6.776   4.568  17.309  0.00  0.00    +0.000 C 
BRANCH  13  15
ATOM     15  O3* UNL     1       7.835   6.371  16.155  0.00  0.00    +0.000 OA
ATOM     16  H3* UNL     1       7.533   6.776  16.992  0.00  0.00    +0.000 HD
ENDBRANCH  13  15
BRANCH  14  17
ATOM     17  O2* UNL     1       7.799   4.838  18.268  0.00  0.00    +0.000 OA
ATOM     18  H2* UNL     1       7.364   4.806  19.146  0.00  0.00    +0.000 HD
ENDBRANCH  14  17
BRANCH  12  19
ATOM     19  C5* UNL     1       5.296   4.175  14.446  0.00  0.00    +0.000 C 
BRANCH  19  20
ATOM     20  O5* UNL     1       6.427   3.465  13.946  0.00  0.00    +0.000 OA
ATOM     21  H5* UNL     1       7.207   4.000  14.189  0.00  0.00    +0.000 HD
ENDBRANCH  19  20
ENDBRANCH  12  19
ENDBRANCH   9  10
BRANCH   1  22
ATOM     22  N   UNL     1       1.004   3.291  21.150  0.00  0.00    +0.000 N 
ATOM     23  H   UNL     1       0.131   3.618  21.539  0.00  0.00    +0.000 HD
ATOM     24  H   UNL     1       1.528   2.585  21.651  0.00  0.00    +0.000 HD
ENDBRANCH   1  22
BRANCH   3  25
ATOM     25  O   UNL     1       1.747   7.862  20.291  0.00  0.00    +0.000 OA
BRANCH  25  26
ATOM     26  C   UNL     1       0.807   8.063  21.348  0.00  0.00    +0.000 C 
BRANCH  26  27
ATOM     27  C   UNL     1       1.093   9.438  21.950  0.00  0.00    +0.000 C 
BRANCH  27  28
ATOM     28  O   UNL     1       2.165   9.360  22.890  0.00  0.00    +0.000 OA
ATOM     29  H   UNL     1       2.987   9.451  22.374  0.00  0.00    +0.000 HD
ENDBRANCH  27  28
ENDBRANCH  26  27
ENDBRANCH  25  26
ENDBRANCH   3  25
TORSDOF 10
ENDMDL
MODEL 7
REMARK VINA RESULT:      -6.7      3.001      6.911
REMARK  Name = 
REMARK  10 active torsions:
REMARK  status: ('A' for Active; 'I' for Inactive)
REMARK    1  A    between atoms: N_1  and  C_2
REMARK    2  A    between atoms: C_4  and  O_5
REMARK    3  A    between atoms: O_5  and  C_6
REMARK    4  A    between atoms: C_6  and  C_7
REMARK    5  A    between atoms: C_7  and  O_8
REMARK    6  A    between atoms: N_14  and  C1*_15
REMARK    7  A    between atoms: C4*_17  and  C5*_18
REMARK    8  A    between atoms: C5*_18  and  O5*_19
REMARK    9  A    between atoms: C3*_20  and  O3*_21
REMARK   10  A    between atoms: C2*_22  and  O2*_23
REMARK                            x       y       z     vdW  Elec       q    Type
REMARK                         _______ _______ _______ _____ _____    ______ ____
ROOT
ATOM      1  C   UNL     1       1.773   4.092  20.623  0.00  0.00    +0.000 A 
ATOM      2  N   UNL     1       1.374   5.372  20.812  0.00  0.00    +0.000 NA
ATOM      3  C   UNL     1       2.064   6.359  20.200  0.00  0.00    +0.000 A 
ATOM      4  N   UNL     1       3.137   6.236  19.400  0.00  0.00    +0.000 NA
ATOM      5  C   UNL     1       3.520   4.960  19.278  0.00  0.00    +0.000 A 
ATOM      6  C   UNL     1       2.917   3.852  19.844  0.00  0.00    +0.000 A 
ATOM      7  N   UNL     1       3.592   2.698  19.499  0.00  0.00    +0.000 NA
ATOM      8  C   UNL     1       4.568   3.105  18.713  0.00  0.00    +0.000 A 
ATOM      9  N   UNL     1       4.556   4.464  18.539  0.00  0.00    +0.000 N 
ENDROOT
BRANCH   9  10
ATOM     10  C1* UNL     1       5.439   5.212  17.670  0.00  0.00    +0.000 C 
ATOM     11  O4* UNL     1       4.786   5.446  16.403  0.00  0.00    +0.000 OA
ATOM     12  C4* UNL     1       5.754   5.240  15.342  0.00  0.00    +0.000 C 
ATOM     13  C3* UNL     1       7.118   5.087  16.011  0.00  0.00    +0.000 C 
ATOM     14  C2* UNL     1       6.777   4.528  17.385  0.00  0.00    +0.000 C 
BRANCH  13  15
ATOM     15  O3* UNL     1       7.768   6.356  16.209  0.00  0.00    +0.000 OA
ATOM     16  H3* UNL     1       8.383   6.288  16.966  0.00  0.00    +0.000 HD
ENDBRANCH  13  15
BRANCH  14  17
ATOM     17  O2* UNL     1       7.775   4.861  18.350  0.00  0.00    +0.000 OA
ATOM     18  H2* UNL     1       8.010   4.021  18.798  0.00  0.00    +0.000 HD
ENDBRANCH  14  17
BRANCH  12  19
ATOM     19  C5* UNL     1       5.351   4.018  14.512  0.00  0.00    +0.000 C 
BRANCH  19  20
ATOM     20  O5* UNL     1       6.473   3.550  13.767  0.00  0.00    +0.000 OA
ATOM     21  H5* UNL     1       6.254   3.707  12.828  0.00  0.00    +0.000 HD
ENDBRANCH  19  20
ENDBRANCH  12  19
ENDBRANCH   9  10
BRANCH   1  22
ATOM     22  N   UNL     1       1.030   3.072  21.200  0.00  0.00    +0.000 N 
ATOM     23  H   UNL     1       0.045   3.278  21.288  0.00  0.00    +0.000 HD
ATOM     24  H   UNL     1       1.497   2.586  21.955  0.00  0.00    +0.000 HD
ENDBRANCH   1  22
BRANCH   3  25
ATOM     25  O   UNL     1       1.622   7.660  20.311  0.00  0.00    +0.000 OA
BRANCH  25  26
ATOM     26  C   UNL     1       1.858   8.431  19.132  0.00  0.00    +0.000 C 
BRANCH  26  27
ATOM     27  C   UNL     1       0.956   9.662  19.210  0.00  0.00    +0.000 C 
BRANCH  27  28
ATOM     28  O   UNL     1       0.589  10.096  17.900  0.00  0.00    +0.000 OA
ATOM     29  H   UNL     1       1.337   9.870  17.317  0.00  0.00    +0.000 HD
ENDBRANCH  27  28
ENDBRANCH  26  27
ENDBRANCH  25  26
ENDBRANCH   3  25
TORSDOF 10
ENDMDL
MODEL 8
REMARK VINA RESULT:      -6.7      3.182      7.408
REMARK  Name = 
REMARK  10 active torsions:
REMARK  status: ('A' for Active; 'I' for Inactive)
REMARK    1  A    between atoms: N_1  and  C_2
REMARK    2  A    between atoms: C_4  and  O_5
REMARK    3  A    between atoms: O_5  and  C_6
REMARK    4  A    between atoms: C_6  and  C_7
REMARK    5  A    between atoms: C_7  and  O_8
REMARK    6  A    between atoms: N_14  and  C1*_15
REMARK    7  A    between atoms: C4*_17  and  C5*_18
REMARK    8  A    between atoms: C5*_18  and  O5*_19
REMARK    9  A    between atoms: C3*_20  and  O3*_21
REMARK   10  A    between atoms: C2*_22  and  O2*_23
REMARK                            x       y       z     vdW  Elec       q    Type
REMARK                         _______ _______ _______ _____ _____    ______ ____
ROOT
ATOM      1  C   UNL     1       1.208   3.436  19.627  0.00  0.00    +0.000 A 
ATOM      2  N   UNL     1       0.827   4.462  20.424  0.00  0.00    +0.000 NA
ATOM      3  C   UNL     1       1.637   5.539  20.522  0.00  0.00    +0.000 A 
ATOM      4  N   UNL     1       2.818   5.734  19.912  0.00  0.00    +0.000 NA
ATOM      5  C   UNL     1       3.174   4.679  19.170  0.00  0.00    +0.000 A 
ATOM      6  C   UNL     1       2.453   3.515  18.980  0.00  0.00    +0.000 A 
ATOM      7  N   UNL     1       3.135   2.647  18.151  0.00  0.00    +0.000 NA
ATOM      8  C   UNL     1       4.236   3.293  17.825  0.00  0.00    +0.000 A 
ATOM      9  N   UNL     1       4.296   4.533  18.407  0.00  0.00    +0.000 N 
ENDROOT
BRANCH   9  10
ATOM     10  C1* UNL     1       5.330   5.521  18.184  0.00  0.00    +0.000 C 
ATOM     11  O4* UNL     1       5.333   5.911  16.792  0.00  0.00    +0.000 OA
ATOM     12  C4* UNL     1       6.711   6.012  16.346  0.00  0.00    +0.000 C 
ATOM     13  C3* UNL     1       7.588   5.890  17.590  0.00  0.00    +0.000 C 
ATOM     14  C2* UNL     1       6.742   5.053  18.538  0.00  0.00    +0.000 C 
BRANCH  13  15
ATOM     15  O3* UNL     1       7.813   7.164  18.220  0.00  0.00    +0.000 OA
ATOM     16  H3* UNL     1       8.774   7.334  18.271  0.00  0.00    +0.000 HD
ENDBRANCH  13  15
BRANCH  14  17
ATOM     17  O2* UNL     1       7.074   5.311  19.903  0.00  0.00    +0.000 OA
ATOM     18  H2* UNL     1       6.224   5.488  20.361  0.00  0.00    +0.000 HD
ENDBRANCH  14  17
BRANCH  12  19
ATOM     19  C5* UNL     1       6.991   4.927  15.303  0.00  0.00    +0.000 C 
BRANCH  19  20
ATOM     20  O5* UNL     1       7.792   5.465  14.253  0.00  0.00    +0.000 OA
ATOM     21  H5* UNL     1       7.267   5.360  13.436  0.00  0.00    +0.000 HD
ENDBRANCH  19  20
ENDBRANCH  12  19
ENDBRANCH   9  10
BRANCH   1  22
ATOM     22  N   UNL     1       0.351   2.356  19.476  0.00  0.00    +0.000 N 
ATOM     23  H   UNL     1       0.531   1.595  20.116  0.00  0.00    +0.000 HD
ATOM     24  H   UNL     1       0.107   2.143  18.518  0.00  0.00    +0.000 HD
ENDBRANCH   1  22
BRANCH   3  25
ATOM     25  O   UNL     1       1.226   6.627  21.261  0.00  0.00    +0.000 OA
BRANCH  25  26
ATOM     26  C   UNL     1       1.621   7.873  20.684  0.00  0.00    +0.000 C 
BRANCH  26  27
ATOM     27  C   UNL     1       1.097   8.980  21.598  0.00  0.00    +0.000 C 
BRANCH  27  28
ATOM     28  O   UNL     1       2.049   9.276  22.620  0.00  0.00    +0.000 OA
ATOM     29  H   UNL     1       1.648   8.985  23.460  0.00  0.00    +0.000 HD
ENDBRANCH  27  28
ENDBRANCH  26  27
ENDBRANCH  25  26
ENDBRANCH   3  25
TORSDOF 10
ENDMDL
MODEL 9
REMARK VINA RESULT:      -6.6      1.155      1.214
REMARK  Name = 
REMARK  10 active torsions:
REMARK  status: ('A' for Active; 'I' for Inactive)
REMARK    1  A    between atoms: N_1  and  C_2
REMARK    2  A    between atoms: C_4  and  O_5
REMARK    3  A    between atoms: O_5  and  C_6
REMARK    4  A    between atoms: C_6  and  C_7
REMARK    5  A    between atoms: C_7  and  O_8
REMARK    6  A    between atoms: N_14  and  C1*_15
REMARK    7  A    between atoms: C4*_17  and  C5*_18
REMARK    8  A    between atoms: C5*_18  and  O5*_19
REMARK    9  A    between atoms: C3*_20  and  O3*_21
REMARK   10  A    between atoms: C2*_22  and  O2*_23
REMARK                            x       y       z     vdW  Elec       q    Type
REMARK                         _______ _______ _______ _____ _____    ______ ____
ROOT
ATOM      1  C   UNL     1       7.347   6.313  16.544  0.00  0.00    +0.000 A 
ATOM      2  N   UNL     1       7.446   5.718  15.332  0.00  0.00    +0.000 NA
ATOM      3  C   UNL     1       6.731   4.594  15.105  0.00  0.00    +0.000 A 
ATOM      4  N   UNL     1       5.905   3.961  15.956  0.00  0.00    +0.000 NA
ATOM      5  C   UNL     1       5.873   4.560  17.152  0.00  0.00    +0.000 A 
ATOM      6  C   UNL     1       6.549   5.706  17.528  0.00  0.00    +0.000 A 
ATOM      7  N   UNL     1       6.273   6.027  18.842  0.00  0.00    +0.000 NA
ATOM      8  C   UNL     1       5.422   5.104  19.240  0.00  0.00    +0.000 A 
ATOM      9  N   UNL     1       5.139   4.203  18.247  0.00  0.00    +0.000 N 
ENDROOT
BRANCH   9  10
ATOM     10  C1* UNL     1       4.180   3.122  18.335  0.00  0.00    +0.000 C 
ATOM     11  O4* UNL     1       2.888   3.585  17.885  0.00  0.00    +0.000 OA
ATOM     12  C4* UNL     1       1.874   3.055  18.779  0.00  0.00    +0.000 C 
ATOM     13  C3* UNL     1       2.569   2.043  19.686  0.00  0.00    +0.000 C 
ATOM     14  C2* UNL     1       4.004   2.543  19.740  0.00  0.00    +0.000 C 
BRANCH  13  15
ATOM     15  O3* UNL     1       2.591   0.725  19.107  0.00  0.00    +0.000 OA
ATOM     16  H3* UNL     1       2.615   0.059  19.821  0.00  0.00    +0.000 HD
ENDBRANCH  13  15
BRANCH  14  17
ATOM     17  O2* UNL     1       4.920   1.482  20.010  0.00  0.00    +0.000 OA
ATOM     18  H2* UNL     1       4.612   0.716  19.482  0.00  0.00    +0.000 HD
ENDBRANCH  14  17
BRANCH  12  19
ATOM     19  C5* UNL     1       1.221   4.206  19.550  0.00  0.00    +0.000 C 
BRANCH  19  20
ATOM     20  O5* UNL     1       0.566   3.697  20.709  0.00  0.00    +0.000 OA
ATOM     21  H5* UNL     1       0.088   4.454  21.101  0.00  0.00    +0.000 HD
ENDBRANCH  19  20
ENDBRANCH  12  19
ENDBRANCH   9  10
BRANCH   1  22
ATOM     22  N   UNL     1       8.031   7.499  16.760  0.00  0.00    +0.000 N 
ATOM     23  H   UNL     1       7.554   8.320  16.415  0.00  0.00    +0.000 HD
ATOM     24  H   UNL     1       9.035   7.434  16.646  0.00  0.00    +0.000 HD
ENDBRANCH   1  22
BRANCH   3  25
ATOM     25  O   UNL     1       6.753   4.023  13.851  0.00  0.00    +0.000 OA
BRANCH  25  26
ATOM     26  C   UNL     1       5.464   3.980  13.237  0.00  0.00    +0.000 C 
BRANCH  26  27
ATOM     27  C   UNL     1       5.541   2.967  12.095  0.00  0.00    +0.000 C 
BRANCH  27  28
ATOM     28  O   UNL     1       6.897   2.595  11.848  0.00  0.00    +0.000 OA
ATOM     29  H   UNL     1       7.427   3.406  11.958  0.00  0.00    +0.000 HD
ENDBRANCH  27  28
ENDBRANCH  26  27
ENDBRANCH  25  26
ENDBRANCH   3  25
TORSDOF 10
ENDMDL
