MODEL 1
REMARK VINA RESULT:      -7.9      0.000      0.000
REMARK  Name = 
REMARK  10 active torsions:
REMARK  status: ('A' for Active; 'I' for Inactive)
REMARK    1  A    between atoms: C_1  and  O_2
REMARK    2  A    between atoms: O_2  and  C_3
REMARK    3  A    between atoms: N_8  and  C_9
REMARK    4  A    between atoms: C_9  and  C_10
REMARK    5  A    between atoms: C_10  and  C_11
REMARK    6  A    between atoms: N_19  and  C_20
REMARK    7  A    between atoms: C_20  and  C_21
REMARK    8  A    between atoms: C_24  and  C_25
REMARK    9  A    between atoms: C_31  and  O_32
REMARK   10  A    between atoms: O_32  and  C_33
REMARK                            x       y       z     vdW  Elec       q    Type
REMARK                         _______ _______ _______ _____ _____    ______ ____
ROOT
ATOM      1  C   UNL     1      -3.803  10.852  17.244  0.00  0.00    +0.000 A 
ATOM      2  C   UNL     1      -3.327  11.284  18.503  0.00  0.00    +0.000 A 
ATOM      3  C   UNL     1      -2.014  11.084  18.927  0.00  0.00    +0.000 A 
ATOM      4  N   UNL     1      -1.613  11.545  20.122  0.00  0.00    +0.000 NA
ATOM      5  C   UNL     1      -0.330  11.371  20.465  0.00  0.00    +0.000 A 
ATOM      6  N   UNL     1       0.141  11.782  21.710  0.00  0.00    +0.000 N 
ATOM      7  N   UNL     1       0.577  10.797  19.674  0.00  0.00    +0.000 NA
ATOM      8  C   UNL     1       0.167  10.276  18.508  0.00  0.00    +0.000 A 
ATOM      9  N   UNL     1       1.065   9.518  17.751  0.00  0.00    +0.000 N 
ATOM     10  C   UNL     1      -1.157  10.398  18.073  0.00  0.00    +0.000 A 
ATOM     11  C   UNL     1      -1.657   9.858  16.868  0.00  0.00    +0.000 A 
ATOM     12  C   UNL     1      -2.967  10.077  16.439  0.00  0.00    +0.000 A 
ATOM     13  H   UNL     1       0.698  12.615  21.556  0.00  0.00    +0.000 HD
ATOM     14  H   UNL     1       1.095   9.768  16.772  0.00  0.00    +0.000 HD
ENDROOT
BRANCH   1  16
ATOM     15  C   UNL     1      -5.698  12.240  17.508  0.00  0.00    +0.000 C 
ATOM     16  O   UNL     1      -5.067  11.161  16.812  0.00  0.00    +0.000 OA
ENDBRANCH   1  16
BRANCH  12  17
ATOM     17  O   UNL     1      -3.191   9.483  15.232  0.00  0.00    +0.000 OA
ATOM     18  C   UNL     1      -3.350  10.258  14.058  0.00  0.00    +0.000 C 
ENDBRANCH  12  17
BRANCH   6  19
ATOM     19  C   UNL     1      -0.872  11.893  22.746  0.00  0.00    +0.000 C 
BRANCH  19  20
ATOM     20  C   UNL     1      -1.348  13.348  22.874  0.00  0.00    +0.000 C 
BRANCH  20  21
ATOM     21  C   UNL     1      -2.854  13.407  22.975  0.00  0.00    +0.000 A 
ATOM     22  C   UNL     1      -3.511  12.863  24.088  0.00  0.00    +0.000 A 
ATOM     23  C   UNL     1      -4.904  12.811  24.129  0.00  0.00    +0.000 A 
ATOM     24  C   UNL     1      -5.653  13.304  23.063  0.00  0.00    +0.000 A 
ATOM     25  C   UNL     1      -5.011  13.870  21.964  0.00  0.00    +0.000 A 
ATOM     26  C   UNL     1      -3.617  13.925  21.920  0.00  0.00    +0.000 A 
ENDBRANCH  20  21
ENDBRANCH  19  20
ENDBRANCH   6  19
BRANCH   9  27
ATOM     27  C   UNL     1       2.329   9.118  18.337  0.00  0.00    +0.000 C 
BRANCH  27  28
ATOM     28  C   UNL     1       2.171   7.695  18.821  0.00  0.00    +0.000 A 
ATOM     29  C   UNL     1       1.881   7.424  20.171  0.00  0.00    +0.000 A 
ATOM     30  C   UNL     1       1.815   6.103  20.628  0.00  0.00    +0.000 A 
ATOM     31  C   UNL     1       2.041   5.040  19.748  0.00  0.00    +0.000 A 
ATOM     32  C   UNL     1       2.342   5.303  18.407  0.00  0.00    +0.000 A 
ATOM     33  C   UNL     1       2.409   6.622  17.946  0.00  0.00    +0.000 A 
BRANCH  31  34
ATOM     34  C   UNL     1       1.980   3.687  20.221  0.00  0.00    +0.000 C 
ATOM     35  N   UNL     1       1.940   2.598  20.608  0.00  0.00    +0.000 NA
ENDBRANCH  31  34
ENDBRANCH  27  28
ENDBRANCH   9  27
TORSDOF 8
ENDMDL
MODEL 2
REMARK VINA RESULT:      -7.8      0.927      1.284
REMARK  Name = 
REMARK  10 active torsions:
REMARK  status: ('A' for Active; 'I' for Inactive)
REMARK    1  A    between atoms: C_1  and  O_2
REMARK    2  A    between atoms: O_2  and  C_3
REMARK    3  A    between atoms: N_8  and  C_9
REMARK    4  A    between atoms: C_9  and  C_10
REMARK    5  A    between atoms: C_10  and  C_11
REMARK    6  A    between atoms: N_19  and  C_20
REMARK    7  A    between atoms: C_20  and  C_21
REMARK    8  A    between atoms: C_24  and  C_25
REMARK    9  A    between atoms: C_31  and  O_32
REMARK   10  A    between atoms: O_32  and  C_33
REMARK                            x       y       z     vdW  Elec       q    Type
REMARK                         _______ _______ _______ _____ _____    ______ ____
ROOT
ATOM      1  C   UNL     1      -3.478  11.375  17.158  0.00  0.00    +0.000 A 
ATOM      2  C   UNL     1      -3.099  12.010  18.362  0.00  0.00    +0.000 A 
ATOM      3  C   UNL     1      -1.943  11.675  19.067  0.00  0.00    +0.000 A 
ATOM      4  N   UNL     1      -1.621  12.336  20.188  0.00  0.00    +0.000 NA
ATOM      5  C   UNL     1      -0.478  12.010  20.804  0.00  0.00    +0.000 A 
ATOM      6  N   UNL     1      -0.106  12.623  21.999  0.00  0.00    +0.000 N 
ATOM      7  N   UNL     1       0.373  11.091  20.348  0.00  0.00    +0.000 NA
ATOM      8  C   UNL     1       0.023  10.381  19.265  0.00  0.00    +0.000 A 
ATOM      9  N   UNL     1       0.818   9.298  18.880  0.00  0.00    +0.000 N 
ATOM     10  C   UNL     1      -1.158  10.643  18.565  0.00  0.00    +0.000 A 
ATOM     11  C   UNL     1      -1.593   9.922  17.430  0.00  0.00    +0.000 A 
ATOM     12  C   UNL     1      -2.740  10.275  16.717  0.00  0.00    +0.000 A 
ATOM     13  H   UNL     1       0.647  13.266  21.780  0.00  0.00    +0.000 HD
ATOM     14  H   UNL     1       1.046   9.280  17.895  0.00  0.00    +0.000 HD
ENDROOT
BRANCH   1  16
ATOM     15  C   UNL     1      -5.690  12.203  17.208  0.00  0.00    +0.000 C 
ATOM     16  O   UNL     1      -4.558  11.803  16.431  0.00  0.00    +0.000 OA
ENDBRANCH   1  16
BRANCH  12  17
ATOM     17  O   UNL     1      -2.922   9.449  15.647  0.00  0.00    +0.000 OA
ATOM     18  C   UNL     1      -2.941   9.962  14.328  0.00  0.00    +0.000 C 
ENDBRANCH  12  17
BRANCH   6  19
ATOM     19  C   UNL     1      -1.203  13.187  22.769  0.00  0.00    +0.000 C 
BRANCH  19  20
ATOM     20  C   UNL     1      -2.053  12.067  23.387  0.00  0.00    +0.000 C 
BRANCH  20  21
ATOM     21  C   UNL     1      -3.517  12.438  23.363  0.00  0.00    +0.000 A 
ATOM     22  C   UNL     1      -4.277  12.397  24.541  0.00  0.00    +0.000 A 
ATOM     23  C   UNL     1      -5.653  12.625  24.501  0.00  0.00    +0.000 A 
ATOM     24  C   UNL     1      -6.281  12.897  23.287  0.00  0.00    +0.000 A 
ATOM     25  C   UNL     1      -5.531  12.966  22.116  0.00  0.00    +0.000 A 
ATOM     26  C   UNL     1      -4.154  12.740  22.152  0.00  0.00    +0.000 A 
ENDBRANCH  20  21
ENDBRANCH  19  20
ENDBRANCH   6  19
BRANCH   9  27
ATOM     27  C   UNL     1       1.856   8.822  19.773  0.00  0.00    +0.000 C 
BRANCH  27  28
ATOM     28  C   UNL     1       2.057   7.351  19.487  0.00  0.00    +0.000 A 
ATOM     29  C   UNL     1       2.451   6.916  18.208  0.00  0.00    +0.000 A 
ATOM     30  C   UNL     1       2.557   5.549  17.927  0.00  0.00    +0.000 A 
ATOM     31  C   UNL     1       2.268   4.602  18.915  0.00  0.00    +0.000 A 
ATOM     32  C   UNL     1       1.864   5.028  20.185  0.00  0.00    +0.000 A 
ATOM     33  C   UNL     1       1.757   6.394  20.469  0.00  0.00    +0.000 A 
BRANCH  31  34
ATOM     34  C   UNL     1       2.371   3.202  18.623  0.00  0.00    +0.000 C 
ATOM     35  N   UNL     1       2.450   2.075  18.377  0.00  0.00    +0.000 NA
ENDBRANCH  31  34
ENDBRANCH  27  28
ENDBRANCH   9  27
TORSDOF 8
ENDMDL
MODEL 3
REMARK VINA RESULT:      -7.8      0.631      1.079
REMARK  Name = 
REMARK  10 active torsions:
REMARK  status: ('A' for Active; 'I' for Inactive)
REMARK    1  A    between atoms: C_1  and  O_2
REMARK    2  A    between atoms: O_2  and  C_3
REMARK    3  A    between atoms: N_8  and  C_9
REMARK    4  A    between atoms: C_9  and  C_10
REMARK    5  A    between atoms: C_10  and  C_11
REMARK    6  A    between atoms: N_19  and  C_20
REMARK    7  A    between atoms: C_20  and  C_21
REMARK    8  A    between atoms: C_24  and  C_25
REMARK    9  A    between atoms: C_31  and  O_32
REMARK   10  A    between atoms: O_32  and  C_33
REMARK                            x       y       z     vdW  Elec       q    Type
REMARK                         _______ _______ _______ _____ _____    ______ ____
ROOT
ATOM      1  C   UNL     1      -3.759  11.288  17.168  0.00  0.00    +0.000 A 
ATOM      2  C   UNL     1      -3.275  11.918  18.338  0.00  0.00    +0.000 A 
ATOM      3  C   UNL     1      -2.004  11.677  18.860  0.00  0.00    +0.000 A 
ATOM      4  N   UNL     1      -1.590  12.329  19.956  0.00  0.00    +0.000 NA
ATOM      5  C   UNL     1      -0.345  12.099  20.393  0.00  0.00    +0.000 A 
ATOM      6  N   UNL     1       0.132  12.707  21.552  0.00  0.00    +0.000 N 
ATOM      7  N   UNL     1       0.515  11.286  19.781  0.00  0.00    +0.000 NA
ATOM      8  C   UNL     1       0.084  10.581  18.724  0.00  0.00    +0.000 A 
ATOM      9  N   UNL     1       0.915   9.596  18.182  0.00  0.00    +0.000 N 
ATOM     10  C   UNL     1      -1.204  10.746  18.206  0.00  0.00    +0.000 A 
ATOM     11  C   UNL     1      -1.725  10.024  17.110  0.00  0.00    +0.000 A 
ATOM     12  C   UNL     1      -2.990  10.283  16.579  0.00  0.00    +0.000 A 
ATOM     13  H   UNL     1       0.782  13.429  21.262  0.00  0.00    +0.000 HD
ATOM     14  H   UNL     1       1.002   9.634  17.176  0.00  0.00    +0.000 HD
ENDROOT
BRANCH   1  16
ATOM     15  C   UNL     1      -6.025  11.830  17.560  0.00  0.00    +0.000 C 
ATOM     16  O   UNL     1      -4.967  11.630  16.619  0.00  0.00    +0.000 OA
ENDBRANCH   1  16
BRANCH  12  17
ATOM     17  O   UNL     1      -3.243   9.479  15.506  0.00  0.00    +0.000 OA
ATOM     18  C   UNL     1      -3.128   9.973  14.185  0.00  0.00    +0.000 C 
ENDBRANCH  12  17
BRANCH   6  19
ATOM     19  C   UNL     1      -0.893  13.132  22.491  0.00  0.00    +0.000 C 
BRANCH  19  20
ATOM     20  C   UNL     1      -1.664  11.916  23.028  0.00  0.00    +0.000 C 
BRANCH  20  21
ATOM     21  C   UNL     1      -3.132  12.241  23.173  0.00  0.00    +0.000 A 
ATOM     22  C   UNL     1      -3.871  12.686  22.067  0.00  0.00    +0.000 A 
ATOM     23  C   UNL     1      -5.195  13.097  22.223  0.00  0.00    +0.000 A 
ATOM     24  C   UNL     1      -5.793  13.065  23.481  0.00  0.00    +0.000 A 
ATOM     25  C   UNL     1      -5.075  12.600  24.581  0.00  0.00    +0.000 A 
ATOM     26  C   UNL     1      -3.751  12.186  24.428  0.00  0.00    +0.000 A 
ENDBRANCH  20  21
ENDBRANCH  19  20
ENDBRANCH   6  19
BRANCH   9  27
ATOM     27  C   UNL     1       2.110   9.197  18.900  0.00  0.00    +0.000 C 
BRANCH  27  28
ATOM     28  C   UNL     1       2.052   7.696  19.071  0.00  0.00    +0.000 A 
ATOM     29  C   UNL     1       1.783   7.127  20.330  0.00  0.00    +0.000 A 
ATOM     30  C   UNL     1       1.811   5.738  20.497  0.00  0.00    +0.000 A 
ATOM     31  C   UNL     1       2.111   4.903  19.417  0.00  0.00    +0.000 A 
ATOM     32  C   UNL     1       2.392   5.463  18.166  0.00  0.00    +0.000 A 
ATOM     33  C   UNL     1       2.365   6.852  17.994  0.00  0.00    +0.000 A 
BRANCH  31  34
ATOM     34  C   UNL     1       2.145   3.480  19.593  0.00  0.00    +0.000 C 
ATOM     35  N   UNL     1       2.174   2.332  19.725  0.00  0.00    +0.000 NA
ENDBRANCH  31  34
ENDBRANCH  27  28
ENDBRANCH   9  27
TORSDOF 8
ENDMDL
MODEL 4
REMARK VINA RESULT:      -7.5      1.484      2.108
REMARK  Name = 
REMARK  10 active torsions:
REMARK  status: ('A' for Active; 'I' for Inactive)
REMARK    1  A    between atoms: C_1  and  O_2
REMARK    2  A    between atoms: O_2  and  C_3
REMARK    3  A    between atoms: N_8  and  C_9
REMARK    4  A    between atoms: C_9  and  C_10
REMARK    5  A    between atoms: C_10  and  C_11
REMARK    6  A    between atoms: N_19  and  C_20
REMARK    7  A    between atoms: C_20  and  C_21
REMARK    8  A    between atoms: C_24  and  C_25
REMARK    9  A    between atoms: C_31  and  O_32
REMARK   10  A    between atoms: O_32  and  C_33
REMARK                            x       y       z     vdW  Elec       q    Type
REMARK                         _______ _______ _______ _____ _____    ______ ____
ROOT
ATOM      1  C   UNL     1      -5.167  11.666  17.850  0.00  0.00    +0.000 A 
ATOM      2  C   UNL     1      -4.772  12.114  19.131  0.00  0.00    +0.000 A 
ATOM      3  C   UNL     1      -3.437  12.213  19.522  0.00  0.00    +0.000 A 
ATOM      4  N   UNL     1      -3.123  12.675  20.741  0.00  0.00    +0.000 NA
ATOM      5  C   UNL     1      -1.827  12.796  21.054  0.00  0.00    +0.000 A 
ATOM      6  N   UNL     1      -1.431  13.224  22.320  0.00  0.00    +0.000 N 
ATOM      7  N   UNL     1      -0.833  12.516  20.212  0.00  0.00    +0.000 NA
ATOM      8  C   UNL     1      -1.139  11.991  19.016  0.00  0.00    +0.000 A 
ATOM      9  N   UNL     1      -0.108  11.529  18.194  0.00  0.00    +0.000 N 
ATOM     10  C   UNL     1      -2.466  11.816  18.609  0.00  0.00    +0.000 A 
ATOM     11  C   UNL     1      -2.856  11.254  17.374  0.00  0.00    +0.000 A 
ATOM     12  C   UNL     1      -4.193  11.175  16.979  0.00  0.00    +0.000 A 
ATOM     13  H   UNL     1      -1.098  14.176  22.220  0.00  0.00    +0.000 HD
ATOM     14  H   UNL     1      -0.168  11.844  17.236  0.00  0.00    +0.000 HD
ENDROOT
BRANCH   1  16
ATOM     15  C   UNL     1      -7.004  12.983  17.161  0.00  0.00    +0.000 C 
ATOM     16  O   UNL     1      -6.481  11.686  17.458  0.00  0.00    +0.000 OA
ENDBRANCH   1  16
BRANCH  12  17
ATOM     17  O   UNL     1      -4.303  10.628  15.734  0.00  0.00    +0.000 OA
ATOM     18  C   UNL     1      -3.166  10.468  14.908  0.00  0.00    +0.000 C 
ENDBRANCH  12  17
BRANCH   6  19
ATOM     19  C   UNL     1      -2.410  13.014  23.375  0.00  0.00    +0.000 C 
BRANCH  19  20
ATOM     20  C   UNL     1      -3.070  14.345  23.764  0.00  0.00    +0.000 C 
BRANCH  20  21
ATOM     21  C   UNL     1      -4.564  14.173  23.910  0.00  0.00    +0.000 A 
ATOM     22  C   UNL     1      -5.118  12.892  24.049  0.00  0.00    +0.000 A 
ATOM     23  C   UNL     1      -6.503  12.721  24.066  0.00  0.00    +0.000 A 
ATOM     24  C   UNL     1      -7.344  13.825  23.950  0.00  0.00    +0.000 A 
ATOM     25  C   UNL     1      -6.803  15.104  23.838  0.00  0.00    +0.000 A 
ATOM     26  C   UNL     1      -5.418  15.279  23.821  0.00  0.00    +0.000 A 
ENDBRANCH  20  21
ENDBRANCH  19  20
ENDBRANCH   6  19
BRANCH   9  27
ATOM     27  C   UNL     1       1.233  11.411  18.732  0.00  0.00    +0.000 C 
BRANCH  27  28
ATOM     28  C   UNL     1       1.501   9.939  18.955  0.00  0.00    +0.000 A 
ATOM     29  C   UNL     1       1.252   9.347  20.207  0.00  0.00    +0.000 A 
ATOM     30  C   UNL     1       1.577   8.004  20.430  0.00  0.00    +0.000 A 
ATOM     31  C   UNL     1       2.156   7.239  19.411  0.00  0.00    +0.000 A 
ATOM     32  C   UNL     1       2.416   7.827  18.168  0.00  0.00    +0.000 A 
ATOM     33  C   UNL     1       2.093   9.169  17.942  0.00  0.00    +0.000 A 
BRANCH  31  34
ATOM     34  C   UNL     1       2.494   5.865  19.645  0.00  0.00    +0.000 C 
ATOM     35  N   UNL     1       2.773   4.761  19.842  0.00  0.00    +0.000 NA
ENDBRANCH  31  34
ENDBRANCH  27  28
ENDBRANCH   9  27
TORSDOF 8
ENDMDL
MODEL 5
REMARK VINA RESULT:      -7.5      1.008      1.040
REMARK  Name = 
REMARK  10 active torsions:
REMARK  status: ('A' for Active; 'I' for Inactive)
REMARK    1  A    between atoms: C_1  and  O_2
REMARK    2  A    between atoms: O_2  and  C_3
REMARK    3  A    between atoms: N_8  and  C_9
REMARK    4  A    between atoms: C_9  and  C_10
REMARK    5  A    between atoms: C_10  and  C_11
REMARK    6  A    between atoms: N_19  and  C_20
REMARK    7  A    between atoms: C_20  and  C_21
REMARK    8  A    between atoms: C_24  and  C_25
REMARK    9  A    between atoms: C_31  and  O_32
REMARK   10  A    between atoms: O_32  and  C_33
REMARK                            x       y       z     vdW  Elec       q    Type
REMARK                         _______ _______ _______ _____ _____    ______ ____
ROOT
ATOM      1  C   UNL     1      -3.934  11.066  17.295  0.00  0.00    +0.000 A 
ATOM      2  C   UNL     1      -3.483  11.604  18.522  0.00  0.00    +0.000 A 
ATOM      3  C   UNL     1      -2.182  11.432  18.994  0.00  0.00    +0.000 A 
ATOM      4  N   UNL     1      -1.804  11.994  20.151  0.00  0.00    +0.000 NA
ATOM      5  C   UNL     1      -0.532  11.839  20.540  0.00  0.00    +0.000 A 
ATOM      6  N   UNL     1      -0.085  12.355  21.755  0.00  0.00    +0.000 N 
ATOM      7  N   UNL     1       0.387  11.189  19.826  0.00  0.00    +0.000 NA
ATOM      8  C   UNL     1      -0.002  10.569  18.702  0.00  0.00    +0.000 A 
ATOM      9  N   UNL     1       0.905   9.738  18.038  0.00  0.00    +0.000 N 
ATOM     10  C   UNL     1      -1.314  10.664  18.226  0.00  0.00    +0.000 A 
ATOM     11  C   UNL     1      -1.791  10.023  17.061  0.00  0.00    +0.000 A 
ATOM     12  C   UNL     1      -3.088  10.215  16.582  0.00  0.00    +0.000 A 
ATOM     13  H   UNL     1       0.485  13.166  21.540  0.00  0.00    +0.000 HD
ATOM     14  H   UNL     1       0.962   9.899  17.041  0.00  0.00    +0.000 HD
ENDROOT
BRANCH   1  16
ATOM     15  C   UNL     1      -6.035  12.068  17.701  0.00  0.00    +0.000 C 
ATOM     16  O   UNL     1      -5.184  11.347  16.806  0.00  0.00    +0.000 OA
ENDBRANCH   1  16
BRANCH  12  17
ATOM     17  O   UNL     1      -3.291   9.517  15.428  0.00  0.00    +0.000 OA
ATOM     18  C   UNL     1      -3.357  10.180  14.180  0.00  0.00    +0.000 C 
ENDBRANCH  12  17
BRANCH   6  19
ATOM     19  C   UNL     1      -1.122  12.568  22.752  0.00  0.00    +0.000 C 
BRANCH  19  20
ATOM     20  C   UNL     1      -0.999  13.974  23.358  0.00  0.00    +0.000 C 
BRANCH  20  21
ATOM     21  C   UNL     1      -2.363  14.601  23.524  0.00  0.00    +0.000 A 
ATOM     22  C   UNL     1      -2.604  15.506  24.569  0.00  0.00    +0.000 A 
ATOM     23  C   UNL     1      -3.890  15.995  24.795  0.00  0.00    +0.000 A 
ATOM     24  C   UNL     1      -4.946  15.590  23.981  0.00  0.00    +0.000 A 
ATOM     25  C   UNL     1      -4.711  14.713  22.924  0.00  0.00    +0.000 A 
ATOM     26  C   UNL     1      -3.426  14.222  22.694  0.00  0.00    +0.000 A 
ENDBRANCH  20  21
ENDBRANCH  19  20
ENDBRANCH   6  19
BRANCH   9  27
ATOM     27  C   UNL     1       2.151   9.381  18.687  0.00  0.00    +0.000 C 
BRANCH  27  28
ATOM     28  C   UNL     1       2.108   7.893  18.955  0.00  0.00    +0.000 A 
ATOM     29  C   UNL     1       1.820   7.404  20.242  0.00  0.00    +0.000 A 
ATOM     30  C   UNL     1       1.861   6.029  20.501  0.00  0.00    +0.000 A 
ATOM     31  C   UNL     1       2.193   5.129  19.483  0.00  0.00    +0.000 A 
ATOM     32  C   UNL     1       2.492   5.611  18.204  0.00  0.00    +0.000 A 
ATOM     33  C   UNL     1       2.453   6.985  17.941  0.00  0.00    +0.000 A 
BRANCH  31  34
ATOM     34  C   UNL     1       2.241   3.721  19.753  0.00  0.00    +0.000 C 
ATOM     35  N   UNL     1       2.268   2.586  19.969  0.00  0.00    +0.000 NA
ENDBRANCH  31  34
ENDBRANCH  27  28
ENDBRANCH   9  27
TORSDOF 8
ENDMDL
MODEL 6
REMARK VINA RESULT:      -7.5      1.075      1.427
REMARK  Name = 
REMARK  10 active torsions:
REMARK  status: ('A' for Active; 'I' for Inactive)
REMARK    1  A    between atoms: C_1  and  O_2
REMARK    2  A    between atoms: O_2  and  C_3
REMARK    3  A    between atoms: N_8  and  C_9
REMARK    4  A    between atoms: C_9  and  C_10
REMARK    5  A    between atoms: C_10  and  C_11
REMARK    6  A    between atoms: N_19  and  C_20
REMARK    7  A    between atoms: C_20  and  C_21
REMARK    8  A    between atoms: C_24  and  C_25
REMARK    9  A    between atoms: C_31  and  O_32
REMARK   10  A    between atoms: O_32  and  C_33
REMARK                            x       y       z     vdW  Elec       q    Type
REMARK                         _______ _______ _______ _____ _____    ______ ____
ROOT
ATOM      1  C   UNL     1      -3.808  11.109  17.317  0.00  0.00    +0.000 A 
ATOM      2  C   UNL     1      -3.236  11.711  18.461  0.00  0.00    +0.000 A 
ATOM      3  C   UNL     1      -1.904  11.526  18.830  0.00  0.00    +0.000 A 
ATOM      4  N   UNL     1      -1.410  12.150  19.910  0.00  0.00    +0.000 NA
ATOM      5  C   UNL     1      -0.113  11.979  20.197  0.00  0.00    +0.000 A 
ATOM      6  N   UNL     1       0.453  12.559  21.331  0.00  0.00    +0.000 N 
ATOM      7  N   UNL     1       0.720  11.253  19.453  0.00  0.00    +0.000 NA
ATOM      8  C   UNL     1       0.218  10.574  18.411  0.00  0.00    +0.000 A 
ATOM      9  N   UNL     1       1.039   9.672  17.730  0.00  0.00    +0.000 N 
ATOM     10  C   UNL     1      -1.128  10.681  18.044  0.00  0.00    +0.000 A 
ATOM     11  C   UNL     1      -1.723   9.981  16.972  0.00  0.00    +0.000 A 
ATOM     12  C   UNL     1      -3.052  10.185  16.594  0.00  0.00    +0.000 A 
ATOM     13  H   UNL     1       1.024  13.334  21.013  0.00  0.00    +0.000 HD
ATOM     14  H   UNL     1       1.012   9.764  16.724  0.00  0.00    +0.000 HD
ENDROOT
BRANCH   1  16
ATOM     15  C   UNL     1      -5.795  12.305  17.770  0.00  0.00    +0.000 C 
ATOM     16  O   UNL     1      -5.088  11.399  16.920  0.00  0.00    +0.000 OA
ENDBRANCH   1  16
BRANCH  12  17
ATOM     17  O   UNL     1      -3.375   9.420  15.512  0.00  0.00    +0.000 OA
ATOM     18  C   UNL     1      -3.328   9.956  14.203  0.00  0.00    +0.000 C 
ENDBRANCH  12  17
BRANCH   6  19
ATOM     19  C   UNL     1      -0.486  12.871  22.397  0.00  0.00    +0.000 C 
BRANCH  19  20
ATOM     20  C   UNL     1      -0.441  14.371  22.725  0.00  0.00    +0.000 C 
BRANCH  20  21
ATOM     21  C   UNL     1      -1.770  14.834  23.274  0.00  0.00    +0.000 A 
ATOM     22  C   UNL     1      -1.939  15.020  24.654  0.00  0.00    +0.000 A 
ATOM     23  C   UNL     1      -3.195  15.333  25.174  0.00  0.00    +0.000 A 
ATOM     24  C   UNL     1      -4.291  15.465  24.324  0.00  0.00    +0.000 A 
ATOM     25  C   UNL     1      -4.127  15.308  22.950  0.00  0.00    +0.000 A 
ATOM     26  C   UNL     1      -2.872  14.996  22.425  0.00  0.00    +0.000 A 
ENDBRANCH  20  21
ENDBRANCH  19  20
ENDBRANCH   6  19
BRANCH   9  27
ATOM     27  C   UNL     1       2.327   9.316  18.293  0.00  0.00    +0.000 C 
BRANCH  27  28
ATOM     28  C   UNL     1       2.180   7.951  18.926  0.00  0.00    +0.000 A 
ATOM     29  C   UNL     1       2.422   6.784  18.179  0.00  0.00    +0.000 A 
ATOM     30  C   UNL     1       2.206   5.524  18.748  0.00  0.00    +0.000 A 
ATOM     31  C   UNL     1       1.744   5.413  20.063  0.00  0.00    +0.000 A 
ATOM     32  C   UNL     1       1.490   6.570  20.807  0.00  0.00    +0.000 A 
ATOM     33  C   UNL     1       1.704   7.832  20.242  0.00  0.00    +0.000 A 
BRANCH  31  34
ATOM     34  C   UNL     1       1.517   4.120  20.641  0.00  0.00    +0.000 C 
ATOM     35  N   UNL     1       1.336   3.082  21.117  0.00  0.00    +0.000 NA
ENDBRANCH  31  34
ENDBRANCH  27  28
ENDBRANCH   9  27
TORSDOF 8
ENDMDL
MODEL 7
REMARK VINA RESULT:      -7.3      1.536      2.431
REMARK  Name = 
REMARK  10 active torsions:
REMARK  status: ('A' for Active; 'I' for Inactive)
REMARK    1  A    between atoms: C_1  and  O_2
REMARK    2  A    between atoms: O_2  and  C_3
REMARK    3  A    between atoms: N_8  and  C_9
REMARK    4  A    between atoms: C_9  and  C_10
REMARK    5  A    between atoms: C_10  and  C_11
REMARK    6  A    between atoms: N_19  and  C_20
REMARK    7  A    between atoms: C_20  and  C_21
REMARK    8  A    between atoms: C_24  and  C_25
REMARK    9  A    between atoms: C_31  and  O_32
REMARK   10  A    between atoms: O_32  and  C_33
REMARK                            x       y       z     vdW  Elec       q    Type
REMARK                         _______ _______ _______ _____ _____    ______ ____
ROOT
ATOM      1  C   UNL     1      -5.101  11.665  17.792  0.00  0.00    +0.000 A 
ATOM      2  C   UNL     1      -4.752  12.074  19.100  0.00  0.00    +0.000 A 
ATOM      3  C   UNL     1      -3.431  12.212  19.525  0.00  0.00    +0.000 A 
ATOM      4  N   UNL     1      -3.164  12.634  20.770  0.00  0.00    +0.000 NA
ATOM      5  C   UNL     1      -1.881  12.796  21.118  0.00  0.00    +0.000 A 
ATOM      6  N   UNL     1      -1.531  13.185  22.409  0.00  0.00    +0.000 N 
ATOM      7  N   UNL     1      -0.858  12.594  20.287  0.00  0.00    +0.000 NA
ATOM      8  C   UNL     1      -1.117  12.109  19.064  0.00  0.00    +0.000 A 
ATOM      9  N   UNL     1      -0.049  11.726  18.247  0.00  0.00    +0.000 N 
ATOM     10  C   UNL     1      -2.425  11.896  18.619  0.00  0.00    +0.000 A 
ATOM     11  C   UNL     1      -2.765  11.371  17.353  0.00  0.00    +0.000 A 
ATOM     12  C   UNL     1      -4.089  11.254  16.924  0.00  0.00    +0.000 A 
ATOM     13  H   UNL     1      -1.237  14.154  22.357  0.00  0.00    +0.000 HD
ATOM     14  H   UNL     1      -0.103  12.080  17.301  0.00  0.00    +0.000 HD
ENDROOT
BRANCH   1  16
ATOM     15  C   UNL     1      -7.317  12.379  18.195  0.00  0.00    +0.000 C 
ATOM     16  O   UNL     1      -6.406  11.647  17.372  0.00  0.00    +0.000 OA
ENDBRANCH   1  16
BRANCH  12  17
ATOM     17  O   UNL     1      -4.149  10.756  15.655  0.00  0.00    +0.000 OA
ATOM     18  C   UNL     1      -2.984  10.285  15.004  0.00  0.00    +0.000 C 
ENDBRANCH  12  17
BRANCH   6  19
ATOM     19  C   UNL     1      -2.522  12.889  23.431  0.00  0.00    +0.000 C 
BRANCH  19  20
ATOM     20  C   UNL     1      -3.156  14.187  23.952  0.00  0.00    +0.000 C 
BRANCH  20  21
ATOM     21  C   UNL     1      -4.663  14.105  23.883  0.00  0.00    +0.000 A 
ATOM     22  C   UNL     1      -5.431  15.274  23.778  0.00  0.00    +0.000 A 
ATOM     23  C   UNL     1      -6.824  15.210  23.833  0.00  0.00    +0.000 A 
ATOM     24  C   UNL     1      -7.461  13.981  23.988  0.00  0.00    +0.000 A 
ATOM     25  C   UNL     1      -6.708  12.812  24.067  0.00  0.00    +0.000 A 
ATOM     26  C   UNL     1      -5.315  12.872  24.011  0.00  0.00    +0.000 A 
ENDBRANCH  20  21
ENDBRANCH  19  20
ENDBRANCH   6  19
BRANCH   9  27
ATOM     27  C   UNL     1       1.284  11.641  18.810  0.00  0.00    +0.000 C 
BRANCH  27  28
ATOM     28  C   UNL     1       1.612  10.174  18.971  0.00  0.00    +0.000 A 
ATOM     29  C   UNL     1       2.127   9.432  17.892  0.00  0.00    +0.000 A 
ATOM     30  C   UNL     1       2.352   8.057  18.024  0.00  0.00    +0.000 A 
ATOM     31  C   UNL     1       2.064   7.407  19.229  0.00  0.00    +0.000 A 
ATOM     32  C   UNL     1       1.541   8.138  20.301  0.00  0.00    +0.000 A 
ATOM     33  C   UNL     1       1.314   9.513  20.173  0.00  0.00    +0.000 A 
BRANCH  31  34
ATOM     34  C   UNL     1       2.290   5.997  19.359  0.00  0.00    +0.000 C 
ATOM     35  N   UNL     1       2.468   4.859  19.454  0.00  0.00    +0.000 NA
ENDBRANCH  31  34
ENDBRANCH  27  28
ENDBRANCH   9  27
TORSDOF 8
ENDMDL
MODEL 8
REMARK VINA RESULT:      -7.3      2.482      7.526
REMARK  Name = 
REMARK  10 active torsions:
REMARK  status: ('A' for Active; 'I' for Inactive)
REMARK    1  A    between atoms: C_1  and  O_2
REMARK    2  A    between atoms: O_2  and  C_3
REMARK    3  A    between atoms: N_8  and  C_9
REMARK    4  A    between atoms: C_9  and  C_10
REMARK    5  A    between atoms: C_10  and  C_11
REMARK    6  A    between atoms: N_19  and  C_20
REMARK    7  A    between atoms: C_20  and  C_21
REMARK    8  A    between atoms: C_24  and  C_25
REMARK    9  A    between atoms: C_31  and  O_32
REMARK   10  A    between atoms: O_32  and  C_33
REMARK                            x       y       z     vdW  Elec       q    Type
REMARK                         _______ _______ _______ _____ _____    ______ ____
ROOT
ATOM      1  C   UNL     1      -3.422  10.448  16.347  0.00  0.00    +0.000 A 
ATOM      2  C   UNL     1      -2.177   9.802  16.531  0.00  0.00    +0.000 A 
ATOM      3  C   UNL     1      -1.352  10.044  17.629  0.00  0.00    +0.000 A 
ATOM      4  N   UNL     1      -0.197   9.376  17.764  0.00  0.00    +0.000 NA
ATOM      5  C   UNL     1       0.540   9.608  18.859  0.00  0.00    +0.000 A 
ATOM      6  N   UNL     1       1.773   8.985  19.039  0.00  0.00    +0.000 N 
ATOM      7  N   UNL     1       0.173  10.437  19.836  0.00  0.00    +0.000 NA
ATOM      8  C   UNL     1      -0.948  11.156  19.674  0.00  0.00    +0.000 A 
ATOM      9  N   UNL     1      -1.252  12.154  20.603  0.00  0.00    +0.000 N 
ATOM     10  C   UNL     1      -1.773  10.990  18.557  0.00  0.00    +0.000 A 
ATOM     11  C   UNL     1      -2.954  11.726  18.318  0.00  0.00    +0.000 A 
ATOM     12  C   UNL     1      -3.787  11.467  17.228  0.00  0.00    +0.000 A 
ATOM     13  H   UNL     1       1.644   8.272  19.748  0.00  0.00    +0.000 HD
ATOM     14  H   UNL     1      -2.206  12.133  20.938  0.00  0.00    +0.000 HD
ENDROOT
BRANCH   1  16
ATOM     15  C   UNL     1      -3.655  10.102  14.021  0.00  0.00    +0.000 C 
ATOM     16  O   UNL     1      -4.259  10.107  15.317  0.00  0.00    +0.000 OA
ENDBRANCH   1  16
BRANCH  12  17
ATOM     17  O   UNL     1      -4.878  12.286  17.241  0.00  0.00    +0.000 OA
ATOM     18  C   UNL     1      -5.619  12.490  18.430  0.00  0.00    +0.000 C 
ENDBRANCH  12  17
BRANCH   6  19
ATOM     19  C   UNL     1       2.421   8.538  17.817  0.00  0.00    +0.000 C 
BRANCH  19  20
ATOM     20  C   UNL     1       3.335   7.337  18.105  0.00  0.00    +0.000 C 
BRANCH  20  21
ATOM     21  C   UNL     1       2.531   6.178  18.647  0.00  0.00    +0.000 A 
ATOM     22  C   UNL     1       2.286   6.068  20.023  0.00  0.00    +0.000 A 
ATOM     23  C   UNL     1       1.646   4.941  20.538  0.00  0.00    +0.000 A 
ATOM     24  C   UNL     1       1.244   3.915  19.685  0.00  0.00    +0.000 A 
ATOM     25  C   UNL     1       1.460   4.027  18.313  0.00  0.00    +0.000 A 
ATOM     26  C   UNL     1       2.098   5.154  17.794  0.00  0.00    +0.000 A 
ENDBRANCH  20  21
ENDBRANCH  19  20
ENDBRANCH   6  19
BRANCH   9  27
ATOM     27  C   UNL     1      -0.254  12.549  21.578  0.00  0.00    +0.000 C 
BRANCH  27  28
ATOM     28  C   UNL     1       0.629  13.587  20.922  0.00  0.00    +0.000 A 
ATOM     29  C   UNL     1       0.069  14.736  20.333  0.00  0.00    +0.000 A 
ATOM     30  C   UNL     1       0.884  15.651  19.658  0.00  0.00    +0.000 A 
ATOM     31  C   UNL     1       2.262  15.431  19.559  0.00  0.00    +0.000 A 
ATOM     32  C   UNL     1       2.822  14.285  20.133  0.00  0.00    +0.000 A 
ATOM     33  C   UNL     1       2.011  13.367  20.809  0.00  0.00    +0.000 A 
BRANCH  31  34
ATOM     34  C   UNL     1       3.093  16.369  18.861  0.00  0.00    +0.000 C 
ATOM     35  N   UNL     1       3.756  17.124  18.290  0.00  0.00    +0.000 NA
ENDBRANCH  31  34
ENDBRANCH  27  28
ENDBRANCH   9  27
TORSDOF 8
ENDMDL
MODEL 9
REMARK VINA RESULT:      -7.3      1.061      1.177
REMARK  Name = 
REMARK  10 active torsions:
REMARK  status: ('A' for Active; 'I' for Inactive)
REMARK    1  A    between atoms: C_1  and  O_2
REMARK    2  A    between atoms: O_2  and  C_3
REMARK    3  A    between atoms: N_8  and  C_9
REMARK    4  A    between atoms: C_9  and  C_10
REMARK    5  A    between atoms: C_10  and  C_11
REMARK    6  A    between atoms: N_19  and  C_20
REMARK    7  A    between atoms: C_20  and  C_21
REMARK    8  A    between atoms: C_24  and  C_25
REMARK    9  A    between atoms: C_31  and  O_32
REMARK   10  A    between atoms: O_32  and  C_33
REMARK                            x       y       z     vdW  Elec       q    Type
REMARK                         _______ _______ _______ _____ _____    ______ ____
ROOT
ATOM      1  C   UNL     1      -4.388  11.276  17.685  0.00  0.00    +0.000 A 
ATOM      2  C   UNL     1      -3.826  11.809  18.868  0.00  0.00    +0.000 A 
ATOM      3  C   UNL     1      -2.466  11.725  19.167  0.00  0.00    +0.000 A 
ATOM      4  N   UNL     1      -1.988  12.278  20.291  0.00  0.00    +0.000 NA
ATOM      5  C   UNL     1      -0.668  12.212  20.512  0.00  0.00    +0.000 A 
ATOM      6  N   UNL     1      -0.110  12.724  21.681  0.00  0.00    +0.000 N 
ATOM      7  N   UNL     1       0.198  11.660  19.663  0.00  0.00    +0.000 NA
ATOM      8  C   UNL     1      -0.283  11.047  18.571  0.00  0.00    +0.000 A 
ATOM      9  N   UNL     1       0.592  10.313  17.765  0.00  0.00    +0.000 N 
ATOM     10  C   UNL     1      -1.648  11.053  18.266  0.00  0.00    +0.000 A 
ATOM     11  C   UNL     1      -2.220  10.413  17.144  0.00  0.00    +0.000 A 
ATOM     12  C   UNL     1      -3.579  10.517  16.838  0.00  0.00    +0.000 A 
ATOM     13  H   UNL     1       0.366  13.583  21.432  0.00  0.00    +0.000 HD
ATOM     14  H   UNL     1       0.509  10.508  16.777  0.00  0.00    +0.000 HD
ENDROOT
BRANCH   1  16
ATOM     15  C   UNL     1      -6.070  12.830  17.101  0.00  0.00    +0.000 C 
ATOM     16  O   UNL     1      -5.707  11.472  17.368  0.00  0.00    +0.000 OA
ENDBRANCH   1  16
BRANCH  12  17
ATOM     17  O   UNL     1      -3.873   9.842  15.690  0.00  0.00    +0.000 OA
ATOM     18  C   UNL     1      -3.295  10.221  14.455  0.00  0.00    +0.000 C 
ENDBRANCH  12  17
BRANCH   6  19
ATOM     19  C   UNL     1      -1.025  12.822  22.808  0.00  0.00    +0.000 C 
BRANCH  19  20
ATOM     20  C   UNL     1      -1.202  14.290  23.224  0.00  0.00    +0.000 C 
BRANCH  20  21
ATOM     21  C   UNL     1      -2.616  14.750  22.955  0.00  0.00    +0.000 A 
ATOM     22  C   UNL     1      -3.654  14.400  23.830  0.00  0.00    +0.000 A 
ATOM     23  C   UNL     1      -4.975  14.723  23.523  0.00  0.00    +0.000 A 
ATOM     24  C   UNL     1      -5.273  15.401  22.343  0.00  0.00    +0.000 A 
ATOM     25  C   UNL     1      -4.246  15.776  21.479  0.00  0.00    +0.000 A 
ATOM     26  C   UNL     1      -2.922  15.456  21.784  0.00  0.00    +0.000 A 
ENDBRANCH  20  21
ENDBRANCH  19  20
ENDBRANCH   6  19
BRANCH   9  27
ATOM     27  C   UNL     1       1.933  10.034  18.239  0.00  0.00    +0.000 C 
BRANCH  27  28
ATOM     28  C   UNL     1       1.911   8.660  18.871  0.00  0.00    +0.000 A 
ATOM     29  C   UNL     1       1.493   8.490  20.203  0.00  0.00    +0.000 A 
ATOM     30  C   UNL     1       1.551   7.229  20.806  0.00  0.00    +0.000 A 
ATOM     31  C   UNL     1       2.031   6.126  20.091  0.00  0.00    +0.000 A 
ATOM     32  C   UNL     1       2.460   6.292  18.769  0.00  0.00    +0.000 A 
ATOM     33  C   UNL     1       2.403   7.552  18.163  0.00  0.00    +0.000 A 
BRANCH  31  34
ATOM     34  C   UNL     1       2.095   4.836  20.714  0.00  0.00    +0.000 C 
ATOM     35  N   UNL     1       2.143   3.800  21.225  0.00  0.00    +0.000 NA
ENDBRANCH  31  34
ENDBRANCH  27  28
ENDBRANCH   9  27
TORSDOF 8
ENDMDL
