MODEL 1
REMARK VINA RESULT:      -8.7      0.000      0.000
REMARK  Name = 
REMARK  8 active torsions:
REMARK  status: ('A' for Active; 'I' for Inactive)
REMARK    1  A    between atoms: C_1  and  C_2
REMARK    2  A    between atoms: C_2  and  N_3
REMARK    3  A    between atoms: N_3  and  C_4
REMARK    4  A    between atoms: C_4  and  C_5
REMARK    5  A    between atoms: N_7  and  C_8
REMARK    6  A    between atoms: C_16  and  C_18
REMARK    7  A    between atoms: C_21  and  S_22
REMARK    8  A    between atoms: S_22  and  N_25
REMARK                            x       y       z     vdW  Elec       q    Type
REMARK                         _______ _______ _______ _____ _____    ______ ____
ROOT
ATOM      1  N   UNL     1       0.577   9.993  20.455  0.00  0.00    +0.000 N 
ATOM      2  C   UNL     1       1.290   8.946  21.074  0.00  0.00    +0.000 C 
ATOM      3  O   UNL     1       1.616   9.019  22.261  0.00  0.00    +0.000 OA
ENDROOT
BRANCH   2   4
ATOM      4  C   UNL     1       1.714   7.701  20.353  0.00  0.00    +0.000 A 
ATOM      5  C   UNL     1       1.513   6.463  20.994  0.00  0.00    +0.000 A 
ATOM      6  C   UNL     1       1.849   5.255  20.364  0.00  0.00    +0.000 A 
ATOM      7  C   UNL     1       2.395   5.282  19.080  0.00  0.00    +0.000 A 
ATOM      8  C   UNL     1       2.614   6.501  18.437  0.00  0.00    +0.000 A 
ATOM      9  C   UNL     1       2.222   7.692  19.052  0.00  0.00    +0.000 A 
BRANCH   7  10
ATOM     10  S   UNL     1       2.849   3.766  18.253  0.00  0.00    +0.000 S 
ATOM     11  O   UNL     1       2.859   2.717  19.243  0.00  0.00    +0.000 OA
ATOM     12  O   UNL     1       2.029   3.667  17.062  0.00  0.00    +0.000 OA
BRANCH  10  13
ATOM     13  N   UNL     1       4.467   4.072  17.777  0.00  0.00    +0.000 NA
ATOM     14  C   UNL     1       4.658   4.624  16.419  0.00  0.00    +0.000 C 
ATOM     15  C   UNL     1       5.855   3.973  15.731  0.00  0.00    +0.000 C 
ATOM     16  C   UNL     1       7.193   4.613  16.080  0.00  0.00    +0.000 C 
ATOM     17  C   UNL     1       7.565   4.515  17.553  0.00  0.00    +0.000 C 
ATOM     18  C   UNL     1       6.613   5.290  18.455  0.00  0.00    +0.000 C 
ATOM     19  C   UNL     1       5.376   4.502  18.867  0.00  0.00    +0.000 C 
ENDBRANCH  10  13
ENDBRANCH   7  10
ENDBRANCH   2   4
BRANCH   1  21
ATOM     20  C   UNL     1      -0.906  10.992  22.217  0.00  0.00    +0.000 C 
ATOM     21  C   UNL     1       0.293  11.168  21.289  0.00  0.00    +0.000 C 
ENDBRANCH   1  21
BRANCH   1  22
ATOM     22  C   UNL     1       0.376  10.151  19.007  0.00  0.00    +0.000 C 
BRANCH  22  23
ATOM     23  C   UNL     1      -0.827  10.993  18.524  0.00  0.00    +0.000 C 
ATOM     24  O   UNL     1      -0.645  12.159  18.170  0.00  0.00    +0.000 OA
ATOM     25  N   UNL     1      -2.084  10.413  18.622  0.00  0.00    +0.000 N 
ATOM     26  H   UNL     1      -2.191   9.732  19.366  0.00  0.00    +0.000 HD
BRANCH  25  27
ATOM     27  C   UNL     1      -3.237  11.180  18.294  0.00  0.00    +0.000 A 
ATOM     28  C   UNL     1      -3.919  11.964  19.233  0.00  0.00    +0.000 A 
ATOM     29  F   UNL     1      -3.399  12.167  20.454  0.00  0.00    +0.000 F 
ATOM     30  C   UNL     1      -5.118  12.603  18.907  0.00  0.00    +0.000 A 
ATOM     31  C   UNL     1      -5.658  12.461  17.629  0.00  0.00    +0.000 A 
ATOM     32  C   UNL     1      -4.965  11.723  16.669  0.00  0.00    +0.000 A 
ATOM     33  C   UNL     1      -3.749  11.114  16.999  0.00  0.00    +0.000 A 
ATOM     34  F   UNL     1      -3.113  10.386  16.070  0.00  0.00    +0.000 F 
ENDBRANCH  25  27
ENDBRANCH  22  23
ENDBRANCH   1  22
TORSDOF 7
ENDMDL
MODEL 2
REMARK VINA RESULT:      -8.6      0.357      1.395
REMARK  Name = 
REMARK  8 active torsions:
REMARK  status: ('A' for Active; 'I' for Inactive)
REMARK    1  A    between atoms: C_1  and  C_2
REMARK    2  A    between atoms: C_2  and  N_3
REMARK    3  A    between atoms: N_3  and  C_4
REMARK    4  A    between atoms: C_4  and  C_5
REMARK    5  A    between atoms: N_7  and  C_8
REMARK    6  A    between atoms: C_16  and  C_18
REMARK    7  A    between atoms: C_21  and  S_22
REMARK    8  A    between atoms: S_22  and  N_25
REMARK                            x       y       z     vdW  Elec       q    Type
REMARK                         _______ _______ _______ _____ _____    ______ ____
ROOT
ATOM      1  N   UNL     1       0.673  10.165  20.621  0.00  0.00    +0.000 N 
ATOM      2  C   UNL     1       1.204   9.034  21.274  0.00  0.00    +0.000 C 
ATOM      3  O   UNL     1       1.435   9.055  22.486  0.00  0.00    +0.000 OA
ENDROOT
BRANCH   2   4
ATOM      4  C   UNL     1       1.539   7.757  20.565  0.00  0.00    +0.000 A 
ATOM      5  C   UNL     1       2.212   7.841  19.329  0.00  0.00    +0.000 A 
ATOM      6  C   UNL     1       2.593   6.687  18.629  0.00  0.00    +0.000 A 
ATOM      7  C   UNL     1       2.296   5.433  19.164  0.00  0.00    +0.000 A 
ATOM      8  C   UNL     1       1.618   5.332  20.380  0.00  0.00    +0.000 A 
ATOM      9  C   UNL     1       1.297   6.487  21.094  0.00  0.00    +0.000 A 
BRANCH   7  10
ATOM     10  S   UNL     1       2.752   3.941  18.294  0.00  0.00    +0.000 S 
ATOM     11  O   UNL     1       2.837   2.879  19.267  0.00  0.00    +0.000 OA
ATOM     12  O   UNL     1       1.878   3.835  17.142  0.00  0.00    +0.000 OA
BRANCH  10  13
ATOM     13  N   UNL     1       4.336   4.299  17.747  0.00  0.00    +0.000 NA
ATOM     14  C   UNL     1       5.433   4.051  18.705  0.00  0.00    +0.000 C 
ATOM     15  C   UNL     1       6.463   5.176  18.654  0.00  0.00    +0.000 C 
ATOM     16  C   UNL     1       7.509   5.009  17.557  0.00  0.00    +0.000 C 
ATOM     17  C   UNL     1       6.937   5.020  16.146  0.00  0.00    +0.000 C 
ATOM     18  C   UNL     1       6.016   3.837  15.873  0.00  0.00    +0.000 C 
ATOM     19  C   UNL     1       4.573   4.068  16.301  0.00  0.00    +0.000 C 
ENDBRANCH  10  13
ENDBRANCH   7  10
ENDBRANCH   2   4
BRANCH   1  21
ATOM     20  C   UNL     1      -0.853  11.337  22.235  0.00  0.00    +0.000 C 
ATOM     21  C   UNL     1       0.458  11.356  21.453  0.00  0.00    +0.000 C 
ENDBRANCH   1  21
BRANCH   1  22
ATOM     22  C   UNL     1       0.615  10.363  19.165  0.00  0.00    +0.000 C 
BRANCH  22  23
ATOM     23  C   UNL     1      -0.616  11.087  18.573  0.00  0.00    +0.000 C 
ATOM     24  O   UNL     1      -0.524  12.274  18.256  0.00  0.00    +0.000 OA
ATOM     25  N   UNL     1      -1.808  10.378  18.536  0.00  0.00    +0.000 N 
ATOM     26  H   UNL     1      -1.916   9.671  19.256  0.00  0.00    +0.000 HD
BRANCH  25  27
ATOM     27  C   UNL     1      -2.998  11.028  18.103  0.00  0.00    +0.000 A 
ATOM     28  C   UNL     1      -3.792  11.803  18.958  0.00  0.00    +0.000 A 
ATOM     29  F   UNL     1      -3.360  12.114  20.190  0.00  0.00    +0.000 F 
ATOM     30  C   UNL     1      -5.017  12.324  18.532  0.00  0.00    +0.000 A 
ATOM     31  C   UNL     1      -5.470  12.069  17.238  0.00  0.00    +0.000 A 
ATOM     32  C   UNL     1      -4.666  11.339  16.360  0.00  0.00    +0.000 A 
ATOM     33  C   UNL     1      -3.428  10.851  16.789  0.00  0.00    +0.000 A 
ATOM     34  F   UNL     1      -2.684  10.129  15.939  0.00  0.00    +0.000 F 
ENDBRANCH  25  27
ENDBRANCH  22  23
ENDBRANCH   1  22
TORSDOF 7
ENDMDL
MODEL 3
REMARK VINA RESULT:      -8.4      0.683      1.909
REMARK  Name = 
REMARK  8 active torsions:
REMARK  status: ('A' for Active; 'I' for Inactive)
REMARK    1  A    between atoms: C_1  and  C_2
REMARK    2  A    between atoms: C_2  and  N_3
REMARK    3  A    between atoms: N_3  and  C_4
REMARK    4  A    between atoms: C_4  and  C_5
REMARK    5  A    between atoms: N_7  and  C_8
REMARK    6  A    between atoms: C_16  and  C_18
REMARK    7  A    between atoms: C_21  and  S_22
REMARK    8  A    between atoms: S_22  and  N_25
REMARK                            x       y       z     vdW  Elec       q    Type
REMARK                         _______ _______ _______ _____ _____    ______ ____
ROOT
ATOM      1  N   UNL     1       0.197  10.568  20.246  0.00  0.00    +0.000 N 
ATOM      2  C   UNL     1       1.065   9.662  20.887  0.00  0.00    +0.000 C 
ATOM      3  O   UNL     1       1.524   9.909  22.005  0.00  0.00    +0.000 OA
ENDROOT
BRANCH   2   4
ATOM      4  C   UNL     1       1.505   8.367  20.271  0.00  0.00    +0.000 A 
ATOM      5  C   UNL     1       1.296   7.181  21.002  0.00  0.00    +0.000 A 
ATOM      6  C   UNL     1       1.645   5.930  20.472  0.00  0.00    +0.000 A 
ATOM      7  C   UNL     1       2.213   5.861  19.198  0.00  0.00    +0.000 A 
ATOM      8  C   UNL     1       2.439   7.027  18.468  0.00  0.00    +0.000 A 
ATOM      9  C   UNL     1       2.033   8.260  18.982  0.00  0.00    +0.000 A 
BRANCH   7  10
ATOM     10  S   UNL     1       2.684   4.287  18.497  0.00  0.00    +0.000 S 
ATOM     11  O   UNL     1       2.720   3.326  19.572  0.00  0.00    +0.000 OA
ATOM     12  O   UNL     1       1.855   4.075  17.327  0.00  0.00    +0.000 OA
BRANCH  10  13
ATOM     13  N   UNL     1       4.293   4.577  17.981  0.00  0.00    +0.000 NA
ATOM     14  C   UNL     1       5.360   4.279  18.958  0.00  0.00    +0.000 C 
ATOM     15  C   UNL     1       6.439   5.358  18.930  0.00  0.00    +0.000 C 
ATOM     16  C   UNL     1       7.496   5.149  17.852  0.00  0.00    +0.000 C 
ATOM     17  C   UNL     1       6.952   5.189  16.431  0.00  0.00    +0.000 C 
ATOM     18  C   UNL     1       5.986   4.049  16.136  0.00  0.00    +0.000 C 
ATOM     19  C   UNL     1       4.546   4.340  16.538  0.00  0.00    +0.000 C 
ENDBRANCH  10  13
ENDBRANCH   7  10
ENDBRANCH   2   4
BRANCH   1  21
ATOM     20  C   UNL     1      -1.104  11.669  22.090  0.00  0.00    +0.000 C 
ATOM     21  C   UNL     1      -0.085  11.818  20.964  0.00  0.00    +0.000 C 
ENDBRANCH   1  21
BRANCH   1  22
ATOM     22  C   UNL     1      -0.188  10.525  18.827  0.00  0.00    +0.000 C 
BRANCH  22  23
ATOM     23  C   UNL     1      -1.457  11.292  18.390  0.00  0.00    +0.000 C 
ATOM     24  O   UNL     1      -1.343  12.404  17.872  0.00  0.00    +0.000 OA
ATOM     25  N   UNL     1      -2.681  10.723  18.712  0.00  0.00    +0.000 N 
ATOM     26  H   UNL     1      -2.685  10.142  19.544  0.00  0.00    +0.000 HD
BRANCH  25  27
ATOM     27  C   UNL     1      -3.881  11.436  18.432  0.00  0.00    +0.000 A 
ATOM     28  C   UNL     1      -4.498  11.418  17.175  0.00  0.00    +0.000 A 
ATOM     29  F   UNL     1      -4.074  10.573  16.222  0.00  0.00    +0.000 F 
ATOM     30  C   UNL     1      -5.604  12.227  16.901  0.00  0.00    +0.000 A 
ATOM     31  C   UNL     1      -6.107  13.076  17.887  0.00  0.00    +0.000 A 
ATOM     32  C   UNL     1      -5.533  13.068  19.159  0.00  0.00    +0.000 A 
ATOM     33  C   UNL     1      -4.446  12.230  19.430  0.00  0.00    +0.000 A 
ATOM     34  F   UNL     1      -3.892  12.258  20.649  0.00  0.00    +0.000 F 
ENDBRANCH  25  27
ENDBRANCH  22  23
ENDBRANCH   1  22
TORSDOF 7
ENDMDL
MODEL 4
REMARK VINA RESULT:      -8.3      0.394      2.004
REMARK  Name = 
REMARK  8 active torsions:
REMARK  status: ('A' for Active; 'I' for Inactive)
REMARK    1  A    between atoms: C_1  and  C_2
REMARK    2  A    between atoms: C_2  and  N_3
REMARK    3  A    between atoms: N_3  and  C_4
REMARK    4  A    between atoms: C_4  and  C_5
REMARK    5  A    between atoms: N_7  and  C_8
REMARK    6  A    between atoms: C_16  and  C_18
REMARK    7  A    between atoms: C_21  and  S_22
REMARK    8  A    between atoms: S_22  and  N_25
REMARK                            x       y       z     vdW  Elec       q    Type
REMARK                         _______ _______ _______ _____ _____    ______ ____
ROOT
ATOM      1  N   UNL     1       0.627  10.202  20.559  0.00  0.00    +0.000 N 
ATOM      2  C   UNL     1       1.166   9.083  21.225  0.00  0.00    +0.000 C 
ATOM      3  O   UNL     1       1.397   9.120  22.437  0.00  0.00    +0.000 OA
ENDROOT
BRANCH   2   4
ATOM      4  C   UNL     1       1.511   7.799  20.532  0.00  0.00    +0.000 A 
ATOM      5  C   UNL     1       2.224   7.872  19.319  0.00  0.00    +0.000 A 
ATOM      6  C   UNL     1       2.615   6.711  18.635  0.00  0.00    +0.000 A 
ATOM      7  C   UNL     1       2.288   5.462  19.165  0.00  0.00    +0.000 A 
ATOM      8  C   UNL     1       1.569   5.374  20.358  0.00  0.00    +0.000 A 
ATOM      9  C   UNL     1       1.237   6.535  21.057  0.00  0.00    +0.000 A 
BRANCH   7  10
ATOM     10  S   UNL     1       2.755   3.962  18.314  0.00  0.00    +0.000 S 
ATOM     11  O   UNL     1       2.840   2.913  19.300  0.00  0.00    +0.000 OA
ATOM     12  O   UNL     1       1.889   3.839  17.158  0.00  0.00    +0.000 OA
BRANCH  10  13
ATOM     13  N   UNL     1       4.341   4.321  17.772  0.00  0.00    +0.000 NA
ATOM     14  C   UNL     1       5.433   4.092  18.741  0.00  0.00    +0.000 C 
ATOM     15  C   UNL     1       6.458   5.221  18.682  0.00  0.00    +0.000 C 
ATOM     16  C   UNL     1       7.511   5.045  17.594  0.00  0.00    +0.000 C 
ATOM     17  C   UNL     1       6.948   5.034  16.179  0.00  0.00    +0.000 C 
ATOM     18  C   UNL     1       6.036   3.844  15.915  0.00  0.00    +0.000 C 
ATOM     19  C   UNL     1       4.588   4.072  16.331  0.00  0.00    +0.000 C 
ENDBRANCH  10  13
ENDBRANCH   7  10
ENDBRANCH   2   4
BRANCH   1  21
ATOM     20  C   UNL     1      -0.878  11.357  22.204  0.00  0.00    +0.000 C 
ATOM     21  C   UNL     1       0.404  11.402  21.377  0.00  0.00    +0.000 C 
ENDBRANCH   1  21
BRANCH   1  22
ATOM     22  C   UNL     1       0.569  10.382  19.100  0.00  0.00    +0.000 C 
BRANCH  22  23
ATOM     23  C   UNL     1      -0.706  11.012  18.492  0.00  0.00    +0.000 C 
ATOM     24  O   UNL     1      -0.676  12.181  18.106  0.00  0.00    +0.000 OA
ATOM     25  N   UNL     1      -1.862  10.245  18.516  0.00  0.00    +0.000 N 
ATOM     26  H   UNL     1      -1.925   9.577  19.277  0.00  0.00    +0.000 HD
BRANCH  25  27
ATOM     27  C   UNL     1      -3.089  10.813  18.070  0.00  0.00    +0.000 A 
ATOM     28  C   UNL     1      -3.625  10.558  16.802  0.00  0.00    +0.000 A 
ATOM     29  F   UNL     1      -3.087   9.615  16.013  0.00  0.00    +0.000 F 
ATOM     30  C   UNL     1      -4.765  11.229  16.351  0.00  0.00    +0.000 A 
ATOM     31  C   UNL     1      -5.385  12.175  17.167  0.00  0.00    +0.000 A 
ATOM     32  C   UNL     1      -4.891  12.403  18.452  0.00  0.00    +0.000 A 
ATOM     33  C   UNL     1      -3.767  11.702  18.903  0.00  0.00    +0.000 A 
ATOM     34  F   UNL     1      -3.292  11.956  20.130  0.00  0.00    +0.000 F 
ENDBRANCH  25  27
ENDBRANCH  22  23
ENDBRANCH   1  22
TORSDOF 7
ENDMDL
MODEL 5
REMARK VINA RESULT:      -8.3      0.636      1.570
REMARK  Name = 
REMARK  8 active torsions:
REMARK  status: ('A' for Active; 'I' for Inactive)
REMARK    1  A    between atoms: C_1  and  C_2
REMARK    2  A    between atoms: C_2  and  N_3
REMARK    3  A    between atoms: N_3  and  C_4
REMARK    4  A    between atoms: C_4  and  C_5
REMARK    5  A    between atoms: N_7  and  C_8
REMARK    6  A    between atoms: C_16  and  C_18
REMARK    7  A    between atoms: C_21  and  S_22
REMARK    8  A    between atoms: S_22  and  N_25
REMARK                            x       y       z     vdW  Elec       q    Type
REMARK                         _______ _______ _______ _____ _____    ______ ____
ROOT
ATOM      1  N   UNL     1       0.206  10.448  20.151  0.00  0.00    +0.000 N 
ATOM      2  C   UNL     1       1.124   9.575  20.768  0.00  0.00    +0.000 C 
ATOM      3  O   UNL     1       1.641   9.864  21.851  0.00  0.00    +0.000 OA
ENDROOT
BRANCH   2   4
ATOM      4  C   UNL     1       1.550   8.269  20.167  0.00  0.00    +0.000 A 
ATOM      5  C   UNL     1       1.394   7.102  20.940  0.00  0.00    +0.000 A 
ATOM      6  C   UNL     1       1.734   5.841  20.428  0.00  0.00    +0.000 A 
ATOM      7  C   UNL     1       2.239   5.742  19.131  0.00  0.00    +0.000 A 
ATOM      8  C   UNL     1       2.413   6.890  18.358  0.00  0.00    +0.000 A 
ATOM      9  C   UNL     1       2.017   8.132  18.858  0.00  0.00    +0.000 A 
BRANCH   7  10
ATOM     10  S   UNL     1       2.697   4.155  18.451  0.00  0.00    +0.000 S 
ATOM     11  O   UNL     1       2.635   3.190  19.521  0.00  0.00    +0.000 OA
ATOM     12  O   UNL     1       1.933   3.976  17.232  0.00  0.00    +0.000 OA
BRANCH  10  13
ATOM     13  N   UNL     1       4.342   4.391  18.033  0.00  0.00    +0.000 NA
ATOM     14  C   UNL     1       4.612   4.804  16.640  0.00  0.00    +0.000 C 
ATOM     15  C   UNL     1       5.830   4.072  16.082  0.00  0.00    +0.000 C 
ATOM     16  C   UNL     1       7.161   4.725  16.436  0.00  0.00    +0.000 C 
ATOM     17  C   UNL     1       7.456   4.767  17.930  0.00  0.00    +0.000 C 
ATOM     18  C   UNL     1       6.474   5.639  18.701  0.00  0.00    +0.000 C 
ATOM     19  C   UNL     1       5.203   4.913  19.122  0.00  0.00    +0.000 C 
ENDBRANCH  10  13
ENDBRANCH   7  10
ENDBRANCH   2   4
BRANCH   1  21
ATOM     20  C   UNL     1      -1.058  11.596  21.991  0.00  0.00    +0.000 C 
ATOM     21  C   UNL     1      -0.057  11.715  20.846  0.00  0.00    +0.000 C 
ENDBRANCH   1  21
BRANCH   1  22
ATOM     22  C   UNL     1      -0.258  10.354  18.758  0.00  0.00    +0.000 C 
BRANCH  22  23
ATOM     23  C   UNL     1      -1.502  11.175  18.345  0.00  0.00    +0.000 C 
ATOM     24  O   UNL     1      -1.351  12.299  17.862  0.00  0.00    +0.000 OA
ATOM     25  N   UNL     1      -2.744  10.636  18.649  0.00  0.00    +0.000 N 
ATOM     26  H   UNL     1      -2.767  10.030  19.463  0.00  0.00    +0.000 HD
BRANCH  25  27
ATOM     27  C   UNL     1      -3.920  11.394  18.392  0.00  0.00    +0.000 A 
ATOM     28  C   UNL     1      -4.546  11.421  17.139  0.00  0.00    +0.000 A 
ATOM     29  F   UNL     1      -4.158  10.580  16.168  0.00  0.00    +0.000 F 
ATOM     30  C   UNL     1      -5.625  12.273  16.889  0.00  0.00    +0.000 A 
ATOM     31  C   UNL     1      -6.092  13.121  17.893  0.00  0.00    +0.000 A 
ATOM     32  C   UNL     1      -5.509  13.069  19.160  0.00  0.00    +0.000 A 
ATOM     33  C   UNL     1      -4.450  12.189  19.408  0.00  0.00    +0.000 A 
ATOM     34  F   UNL     1      -3.887  12.175  20.623  0.00  0.00    +0.000 F 
ENDBRANCH  25  27
ENDBRANCH  22  23
ENDBRANCH   1  22
TORSDOF 7
ENDMDL
MODEL 6
REMARK VINA RESULT:      -8.2      0.473      1.781
REMARK  Name = 
REMARK  8 active torsions:
REMARK  status: ('A' for Active; 'I' for Inactive)
REMARK    1  A    between atoms: C_1  and  C_2
REMARK    2  A    between atoms: C_2  and  N_3
REMARK    3  A    between atoms: N_3  and  C_4
REMARK    4  A    between atoms: C_4  and  C_5
REMARK    5  A    between atoms: N_7  and  C_8
REMARK    6  A    between atoms: C_16  and  C_18
REMARK    7  A    between atoms: C_21  and  S_22
REMARK    8  A    between atoms: S_22  and  N_25
REMARK                            x       y       z     vdW  Elec       q    Type
REMARK                         _______ _______ _______ _____ _____    ______ ____
ROOT
ATOM      1  N   UNL     1       0.451  10.275  20.262  0.00  0.00    +0.000 N 
ATOM      2  C   UNL     1       1.214   9.300  20.936  0.00  0.00    +0.000 C 
ATOM      3  O   UNL     1       1.655   9.514  22.068  0.00  0.00    +0.000 OA
ENDROOT
BRANCH   2   4
ATOM      4  C   UNL     1       1.557   7.967  20.340  0.00  0.00    +0.000 A 
ATOM      5  C   UNL     1       2.204   7.948  19.089  0.00  0.00    +0.000 A 
ATOM      6  C   UNL     1       2.591   6.740  18.490  0.00  0.00    +0.000 A 
ATOM      7  C   UNL     1       2.327   5.536  19.145  0.00  0.00    +0.000 A 
ATOM      8  C   UNL     1       1.674   5.538  20.378  0.00  0.00    +0.000 A 
ATOM      9  C   UNL     1       1.347   6.749  20.990  0.00  0.00    +0.000 A 
BRANCH   7  10
ATOM     10  S   UNL     1       2.791   3.977  18.406  0.00  0.00    +0.000 S 
ATOM     11  O   UNL     1       2.767   2.979  19.447  0.00  0.00    +0.000 OA
ATOM     12  O   UNL     1       2.001   3.824  17.200  0.00  0.00    +0.000 OA
BRANCH  10  13
ATOM     13  N   UNL     1       4.423   4.249  17.958  0.00  0.00    +0.000 NA
ATOM     14  C   UNL     1       4.654   4.722  16.578  0.00  0.00    +0.000 C 
ATOM     15  C   UNL     1       5.866   4.027  15.962  0.00  0.00    +0.000 C 
ATOM     16  C   UNL     1       7.198   4.681  16.310  0.00  0.00    +0.000 C 
ATOM     17  C   UNL     1       7.528   4.666  17.796  0.00  0.00    +0.000 C 
ATOM     18  C   UNL     1       6.556   5.495  18.626  0.00  0.00    +0.000 C 
ATOM     19  C   UNL     1       5.304   4.737  19.047  0.00  0.00    +0.000 C 
ENDBRANCH  10  13
ENDBRANCH   7  10
ENDBRANCH   2   4
BRANCH   1  21
ATOM     20  C   UNL     1       1.291  12.615  20.610  0.00  0.00    +0.000 C 
ATOM     21  C   UNL     1       0.257  11.550  20.965  0.00  0.00    +0.000 C 
ENDBRANCH   1  21
BRANCH   1  22
ATOM     22  C   UNL     1       0.112  10.255  18.831  0.00  0.00    +0.000 C 
BRANCH  22  23
ATOM     23  C   UNL     1      -1.147  11.025  18.368  0.00  0.00    +0.000 C 
ATOM     24  O   UNL     1      -1.023  12.153  17.889  0.00  0.00    +0.000 OA
ATOM     25  N   UNL     1      -2.377  10.436  18.624  0.00  0.00    +0.000 N 
ATOM     26  H   UNL     1      -2.408   9.830  19.437  0.00  0.00    +0.000 HD
BRANCH  25  27
ATOM     27  C   UNL     1      -3.572  11.147  18.319  0.00  0.00    +0.000 A 
ATOM     28  C   UNL     1      -4.199  11.075  17.068  0.00  0.00    +0.000 A 
ATOM     29  F   UNL     1      -3.790  10.180  16.154  0.00  0.00    +0.000 F 
ATOM     30  C   UNL     1      -5.298  11.881  16.764  0.00  0.00    +0.000 A 
ATOM     31  C   UNL     1      -5.786  12.781  17.711  0.00  0.00    +0.000 A 
ATOM     32  C   UNL     1      -5.202  12.828  18.978  0.00  0.00    +0.000 A 
ATOM     33  C   UNL     1      -4.122  11.993  19.281  0.00  0.00    +0.000 A 
ATOM     34  F   UNL     1      -3.558  12.074  20.493  0.00  0.00    +0.000 F 
ENDBRANCH  25  27
ENDBRANCH  22  23
ENDBRANCH   1  22
TORSDOF 7
ENDMDL
MODEL 7
REMARK VINA RESULT:      -8.2      0.761      1.303
REMARK  Name = 
REMARK  8 active torsions:
REMARK  status: ('A' for Active; 'I' for Inactive)
REMARK    1  A    between atoms: C_1  and  C_2
REMARK    2  A    between atoms: C_2  and  N_3
REMARK    3  A    between atoms: N_3  and  C_4
REMARK    4  A    between atoms: C_4  and  C_5
REMARK    5  A    between atoms: N_7  and  C_8
REMARK    6  A    between atoms: C_16  and  C_18
REMARK    7  A    between atoms: C_21  and  S_22
REMARK    8  A    between atoms: S_22  and  N_25
REMARK                            x       y       z     vdW  Elec       q    Type
REMARK                         _______ _______ _______ _____ _____    ______ ____
ROOT
ATOM      1  N   UNL     1       0.526  10.172  20.807  0.00  0.00    +0.000 N 
ATOM      2  C   UNL     1       1.313   9.135  21.346  0.00  0.00    +0.000 C 
ATOM      3  O   UNL     1       1.748   9.206  22.499  0.00  0.00    +0.000 OA
ENDROOT
BRANCH   2   4
ATOM      4  C   UNL     1       1.690   7.904  20.578  0.00  0.00    +0.000 A 
ATOM      5  C   UNL     1       1.416   6.650  21.160  0.00  0.00    +0.000 A 
ATOM      6  C   UNL     1       1.704   5.456  20.483  0.00  0.00    +0.000 A 
ATOM      7  C   UNL     1       2.277   5.512  19.211  0.00  0.00    +0.000 A 
ATOM      8  C   UNL     1       2.568   6.745  18.627  0.00  0.00    +0.000 A 
ATOM      9  C   UNL     1       2.222   7.926  19.287  0.00  0.00    +0.000 A 
BRANCH   7  10
ATOM     10  S   UNL     1       2.673   4.012  18.325  0.00  0.00    +0.000 S 
ATOM     11  O   UNL     1       2.719   2.938  19.287  0.00  0.00    +0.000 OA
ATOM     12  O   UNL     1       1.794   3.952  17.173  0.00  0.00    +0.000 OA
BRANCH  10  13
ATOM     13  N   UNL     1       4.269   4.314  17.778  0.00  0.00    +0.000 NA
ATOM     14  C   UNL     1       5.354   4.060  18.748  0.00  0.00    +0.000 C 
ATOM     15  C   UNL     1       6.415   5.155  18.676  0.00  0.00    +0.000 C 
ATOM     16  C   UNL     1       7.460   4.933  17.589  0.00  0.00    +0.000 C 
ATOM     17  C   UNL     1       6.896   4.925  16.175  0.00  0.00    +0.000 C 
ATOM     18  C   UNL     1       5.945   3.762  15.925  0.00  0.00    +0.000 C 
ATOM     19  C   UNL     1       4.506   4.042  16.339  0.00  0.00    +0.000 C 
ENDBRANCH  10  13
ENDBRANCH   7  10
ENDBRANCH   2   4
BRANCH   1  21
ATOM     20  C   UNL     1      -0.971  11.244  22.513  0.00  0.00    +0.000 C 
ATOM     21  C   UNL     1       0.300  11.336  21.674  0.00  0.00    +0.000 C 
ENDBRANCH   1  21
BRANCH   1  22
ATOM     22  C   UNL     1       0.188  10.337  19.385  0.00  0.00    +0.000 C 
BRANCH  22  23
ATOM     23  C   UNL     1      -1.306  10.401  18.992  0.00  0.00    +0.000 C 
ATOM     24  O   UNL     1      -1.916   9.356  18.761  0.00  0.00    +0.000 OA
ATOM     25  N   UNL     1      -1.858  11.662  18.810  0.00  0.00    +0.000 N 
ATOM     26  H   UNL     1      -1.209  12.380  18.506  0.00  0.00    +0.000 HD
BRANCH  25  27
ATOM     27  C   UNL     1      -3.197  11.780  18.343  0.00  0.00    +0.000 A 
ATOM     28  C   UNL     1      -4.274  12.064  19.192  0.00  0.00    +0.000 A 
ATOM     29  F   UNL     1      -4.057  12.418  20.468  0.00  0.00    +0.000 F 
ATOM     30  C   UNL     1      -5.589  12.050  18.720  0.00  0.00    +0.000 A 
ATOM     31  C   UNL     1      -5.847  11.744  17.384  0.00  0.00    +0.000 A 
ATOM     32  C   UNL     1      -4.781  11.507  16.516  0.00  0.00    +0.000 A 
ATOM     33  C   UNL     1      -3.467  11.555  16.993  0.00  0.00    +0.000 A 
ATOM     34  F   UNL     1      -2.459  11.297  16.149  0.00  0.00    +0.000 F 
ENDBRANCH  25  27
ENDBRANCH  22  23
ENDBRANCH   1  22
TORSDOF 7
ENDMDL
MODEL 8
REMARK VINA RESULT:      -8.2      1.622      2.735
REMARK  Name = 
REMARK  8 active torsions:
REMARK  status: ('A' for Active; 'I' for Inactive)
REMARK    1  A    between atoms: C_1  and  C_2
REMARK    2  A    between atoms: C_2  and  N_3
REMARK    3  A    between atoms: N_3  and  C_4
REMARK    4  A    between atoms: C_4  and  C_5
REMARK    5  A    between atoms: N_7  and  C_8
REMARK    6  A    between atoms: C_16  and  C_18
REMARK    7  A    between atoms: C_21  and  S_22
REMARK    8  A    between atoms: S_22  and  N_25
REMARK                            x       y       z     vdW  Elec       q    Type
REMARK                         _______ _______ _______ _____ _____    ______ ____
ROOT
ATOM      1  N   UNL     1      -0.375  11.375  19.613  0.00  0.00    +0.000 N 
ATOM      2  C   UNL     1       0.723  10.767  20.254  0.00  0.00    +0.000 C 
ATOM      3  O   UNL     1       1.370  11.375  21.110  0.00  0.00    +0.000 OA
ENDROOT
BRANCH   2   4
ATOM      4  C   UNL     1       1.190   9.377  19.943  0.00  0.00    +0.000 A 
ATOM      5  C   UNL     1       1.714   9.125  18.660  0.00  0.00    +0.000 A 
ATOM      6  C   UNL     1       2.208   7.859  18.312  0.00  0.00    +0.000 A 
ATOM      7  C   UNL     1       2.175   6.829  19.253  0.00  0.00    +0.000 A 
ATOM      8  C   UNL     1       1.646   7.058  20.524  0.00  0.00    +0.000 A 
ATOM      9  C   UNL     1       1.212   8.338  20.876  0.00  0.00    +0.000 A 
BRANCH   7  10
ATOM     10  S   UNL     1       2.780   5.200  18.841  0.00  0.00    +0.000 S 
ATOM     11  O   UNL     1       2.799   4.423  20.056  0.00  0.00    +0.000 OA
ATOM     12  O   UNL     1       2.043   4.753  17.675  0.00  0.00    +0.000 OA
BRANCH  10  13
ATOM     13  N   UNL     1       4.399   5.511  18.375  0.00  0.00    +0.000 NA
ATOM     14  C   UNL     1       5.440   4.694  19.033  0.00  0.00    +0.000 C 
ATOM     15  C   UNL     1       6.653   5.547  19.394  0.00  0.00    +0.000 C 
ATOM     16  C   UNL     1       7.647   5.725  18.252  0.00  0.00    +0.000 C 
ATOM     17  C   UNL     1       7.079   6.453  17.041  0.00  0.00    +0.000 C 
ATOM     18  C   UNL     1       5.962   5.677  16.355  0.00  0.00    +0.000 C 
ATOM     19  C   UNL     1       4.584   5.915  16.960  0.00  0.00    +0.000 C 
ENDBRANCH  10  13
ENDBRANCH   7  10
ENDBRANCH   2   4
BRANCH   1  21
ATOM     20  C   UNL     1      -0.091  13.800  19.028  0.00  0.00    +0.000 C 
ATOM     21  C   UNL     1      -0.663  12.765  19.993  0.00  0.00    +0.000 C 
ENDBRANCH   1  21
BRANCH   1  22
ATOM     22  C   UNL     1      -1.043  10.874  18.402  0.00  0.00    +0.000 C 
BRANCH  22  23
ATOM     23  C   UNL     1      -2.588  10.833  18.383  0.00  0.00    +0.000 C 
ATOM     24  O   UNL     1      -3.162   9.799  18.040  0.00  0.00    +0.000 OA
ATOM     25  N   UNL     1      -3.254  12.021  18.653  0.00  0.00    +0.000 N 
ATOM     26  H   UNL     1      -2.753  12.867  18.403  0.00  0.00    +0.000 HD
BRANCH  25  27
ATOM     27  C   UNL     1      -4.672  12.070  18.544  0.00  0.00    +0.000 A 
ATOM     28  C   UNL     1      -5.336  12.138  17.313  0.00  0.00    +0.000 A 
ATOM     29  F   UNL     1      -4.658  11.976  16.165  0.00  0.00    +0.000 F 
ATOM     30  C   UNL     1      -6.721  12.311  17.247  0.00  0.00    +0.000 A 
ATOM     31  C   UNL     1      -7.466  12.424  18.421  0.00  0.00    +0.000 A 
ATOM     32  C   UNL     1      -6.824  12.309  19.655  0.00  0.00    +0.000 A 
ATOM     33  C   UNL     1      -5.441  12.105  19.707  0.00  0.00    +0.000 A 
ATOM     34  F   UNL     1      -4.840  12.025  20.902  0.00  0.00    +0.000 F 
ENDBRANCH  25  27
ENDBRANCH  22  23
ENDBRANCH   1  22
TORSDOF 7
ENDMDL
MODEL 9
REMARK VINA RESULT:      -8.1      1.100      1.631
REMARK  Name = 
REMARK  8 active torsions:
REMARK  status: ('A' for Active; 'I' for Inactive)
REMARK    1  A    between atoms: C_1  and  C_2
REMARK    2  A    between atoms: C_2  and  N_3
REMARK    3  A    between atoms: N_3  and  C_4
REMARK    4  A    between atoms: C_4  and  C_5
REMARK    5  A    between atoms: N_7  and  C_8
REMARK    6  A    between atoms: C_16  and  C_18
REMARK    7  A    between atoms: C_21  and  S_22
REMARK    8  A    between atoms: S_22  and  N_25
REMARK                            x       y       z     vdW  Elec       q    Type
REMARK                         _______ _______ _______ _____ _____    ______ ____
ROOT
ATOM      1  N   UNL     1      -0.360  10.687  20.295  0.00  0.00    +0.000 N 
ATOM      2  C   UNL     1       0.787  10.043  20.802  0.00  0.00    +0.000 C 
ATOM      3  O   UNL     1       1.424  10.532  21.739  0.00  0.00    +0.000 OA
ENDROOT
BRANCH   2   4
ATOM      4  C   UNL     1       1.322   8.757  20.248  0.00  0.00    +0.000 A 
ATOM      5  C   UNL     1       1.194   7.593  21.032  0.00  0.00    +0.000 A 
ATOM      6  C   UNL     1       1.635   6.348  20.561  0.00  0.00    +0.000 A 
ATOM      7  C   UNL     1       2.214   6.260  19.294  0.00  0.00    +0.000 A 
ATOM      8  C   UNL     1       2.360   7.406  18.511  0.00  0.00    +0.000 A 
ATOM      9  C   UNL     1       1.865   8.628  18.967  0.00  0.00    +0.000 A 
BRANCH   7  10
ATOM     10  S   UNL     1       2.801   4.694  18.668  0.00  0.00    +0.000 S 
ATOM     11  O   UNL     1       2.841   3.771  19.776  0.00  0.00    +0.000 OA
ATOM     12  O   UNL     1       2.037   4.399  17.471  0.00  0.00    +0.000 OA
BRANCH  10  13
ATOM     13  N   UNL     1       4.412   5.057  18.211  0.00  0.00    +0.000 NA
ATOM     14  C   UNL     1       5.478   4.515  19.079  0.00  0.00    +0.000 C 
ATOM     15  C   UNL     1       6.586   5.545  19.287  0.00  0.00    +0.000 C 
ATOM     16  C   UNL     1       7.629   5.566  18.175  0.00  0.00    +0.000 C 
ATOM     17  C   UNL     1       7.075   5.947  16.809  0.00  0.00    +0.000 C 
ATOM     18  C   UNL     1       6.077   4.929  16.272  0.00  0.00    +0.000 C 
ATOM     19  C   UNL     1       4.648   5.155  16.750  0.00  0.00    +0.000 C 
ENDBRANCH  10  13
ENDBRANCH   7  10
ENDBRANCH   2   4
BRANCH   1  21
ATOM     20  C   UNL     1      -1.660  11.845  22.104  0.00  0.00    +0.000 C 
ATOM     21  C   UNL     1      -0.712  11.972  20.914  0.00  0.00    +0.000 C 
ENDBRANCH   1  21
BRANCH   1  22
ATOM     22  C   UNL     1      -1.032  10.362  19.027  0.00  0.00    +0.000 C 
BRANCH  22  23
ATOM     23  C   UNL     1      -2.157  11.301  18.535  0.00  0.00    +0.000 C 
ATOM     24  O   UNL     1      -1.862  12.331  17.927  0.00  0.00    +0.000 OA
ATOM     25  N   UNL     1      -3.455  10.982  18.910  0.00  0.00    +0.000 N 
ATOM     26  H   UNL     1      -3.543  10.480  19.787  0.00  0.00    +0.000 HD
BRANCH  25  27
ATOM     27  C   UNL     1      -4.518  11.868  18.578  0.00  0.00    +0.000 A 
ATOM     28  C   UNL     1      -5.037  12.803  19.483  0.00  0.00    +0.000 A 
ATOM     29  F   UNL     1      -4.424  13.025  20.656  0.00  0.00    +0.000 F 
ATOM     30  C   UNL     1      -6.161  13.569  19.165  0.00  0.00    +0.000 A 
ATOM     31  C   UNL     1      -6.790  13.405  17.931  0.00  0.00    +0.000 A 
ATOM     32  C   UNL     1      -6.255  12.513  17.001  0.00  0.00    +0.000 A 
ATOM     33  C   UNL     1      -5.110  11.775  17.319  0.00  0.00    +0.000 A 
ATOM     34  F   UNL     1      -4.629  10.903  16.423  0.00  0.00    +0.000 F 
ENDBRANCH  25  27
ENDBRANCH  22  23
ENDBRANCH   1  22
TORSDOF 7
ENDMDL
