MODEL 1
REMARK VINA RESULT:      -7.7      0.000      0.000
REMARK  Name = 
REMARK  6 active torsions:
REMARK  status: ('A' for Active; 'I' for Inactive)
REMARK    1  A    between atoms: C_1  and  O_2
REMARK    2  A    between atoms: O_2  and  C_3
REMARK    3  A    between atoms: C_5  and  N_6
REMARK    4  A    between atoms: C_7  and  C_9
REMARK    5  A    between atoms: C_10  and  C_11
REMARK    6  A    between atoms: C_19  and  C_20
REMARK                            x       y       z     vdW  Elec       q    Type
REMARK                         _______ _______ _______ _____ _____    ______ ____
ROOT
ATOM      1  C   UNL     1       1.945   8.307  19.333  0.00  0.00    +0.000 A 
ATOM      2  C   UNL     1       2.578   7.513  18.366  0.00  0.00    +0.000 A 
ATOM      3  C   UNL     1       2.864   6.163  18.584  0.00  0.00    +0.000 A 
ATOM      4  C   UNL     1       2.541   5.609  19.819  0.00  0.00    +0.000 A 
ATOM      5  C   UNL     1       1.955   6.404  20.814  0.00  0.00    +0.000 A 
ATOM      6  C   UNL     1       1.634   7.759  20.591  0.00  0.00    +0.000 A 
ENDROOT
BRANCH   6   7
ATOM      7  C   UNL     1       0.954   8.522  21.637  0.00  0.00    +0.000 A 
ATOM      8  C   UNL     1       1.320   9.260  22.746  0.00  0.00    +0.000 A 
ATOM      9  N   UNL     1       0.213   9.809  23.351  0.00  0.00    +0.000 NA
ATOM     10  C   UNL     1      -0.776   9.387  22.604  0.00  0.00    +0.000 A 
ATOM     11  O   UNL     1      -0.418   8.603  21.552  0.00  0.00    +0.000 OA
ENDBRANCH   6   7
BRANCH   3  12
ATOM     12  N   UNL     1       3.420   5.332  17.584  0.00  0.00    +0.000 N 
ATOM     13  C   UNL     1       4.559   4.562  17.732  0.00  0.00    +0.000 C 
ATOM     14  O   UNL     1       5.144   4.338  18.786  0.00  0.00    +0.000 OA
ATOM     15  H   UNL     1       2.935   5.304  16.698  0.00  0.00    +0.000 HD
BRANCH  13  16
ATOM     16  C   UNL     1       5.051   3.977  16.461  0.00  0.00    +0.000 C 
ATOM     17  C   UNL     1       5.607   4.816  15.572  0.00  0.00    +0.000 C 
BRANCH  17  18
ATOM     18  C   UNL     1       6.089   4.459  14.234  0.00  0.00    +0.000 A 
ATOM     19  C   UNL     1       5.316   3.578  13.462  0.00  0.00    +0.000 A 
ATOM     20  C   UNL     1       5.716   3.224  12.172  0.00  0.00    +0.000 A 
ATOM     21  C   UNL     1       6.886   3.754  11.636  0.00  0.00    +0.000 A 
ATOM     22  C   UNL     1       7.651   4.644  12.387  0.00  0.00    +0.000 A 
ATOM     23  C   UNL     1       7.254   5.001  13.678  0.00  0.00    +0.000 A 
ENDBRANCH  17  18
ENDBRANCH  13  16
ENDBRANCH   3  12
BRANCH   1  25
ATOM     24  C   UNL     1       0.572   9.856  18.166  0.00  0.00    +0.000 C 
ATOM     25  O   UNL     1       1.638   9.626  19.090  0.00  0.00    +0.000 OA
ENDBRANCH   1  25
TORSDOF 5
ENDMDL
MODEL 2
REMARK VINA RESULT:      -7.6      5.359      7.272
REMARK  Name = 
REMARK  6 active torsions:
REMARK  status: ('A' for Active; 'I' for Inactive)
REMARK    1  A    between atoms: C_1  and  O_2
REMARK    2  A    between atoms: O_2  and  C_3
REMARK    3  A    between atoms: C_5  and  N_6
REMARK    4  A    between atoms: C_7  and  C_9
REMARK    5  A    between atoms: C_10  and  C_11
REMARK    6  A    between atoms: C_19  and  C_20
REMARK                            x       y       z     vdW  Elec       q    Type
REMARK                         _______ _______ _______ _____ _____    ______ ____
ROOT
ATOM      1  C   UNL     1       3.943   5.304  19.044  0.00  0.00    +0.000 A 
ATOM      2  C   UNL     1       4.885   6.310  18.788  0.00  0.00    +0.000 A 
ATOM      3  C   UNL     1       5.601   6.370  17.591  0.00  0.00    +0.000 A 
ATOM      4  C   UNL     1       5.395   5.370  16.644  0.00  0.00    +0.000 A 
ATOM      5  C   UNL     1       4.494   4.329  16.909  0.00  0.00    +0.000 A 
ATOM      6  C   UNL     1       3.743   4.279  18.101  0.00  0.00    +0.000 A 
ENDROOT
BRANCH   6   7
ATOM      7  C   UNL     1       2.762   3.211  18.292  0.00  0.00    +0.000 A 
ATOM      8  C   UNL     1       2.786   1.852  18.535  0.00  0.00    +0.000 A 
ATOM      9  N   UNL     1       1.509   1.360  18.674  0.00  0.00    +0.000 NA
ATOM     10  C   UNL     1       0.760   2.423  18.510  0.00  0.00    +0.000 A 
ATOM     11  O   UNL     1       1.435   3.578  18.271  0.00  0.00    +0.000 OA
ENDBRANCH   6   7
BRANCH   3  12
ATOM     12  N   UNL     1       6.487   7.429  17.286  0.00  0.00    +0.000 N 
ATOM     13  C   UNL     1       7.699   7.659  17.910  0.00  0.00    +0.000 C 
ATOM     14  O   UNL     1       8.270   6.891  18.678  0.00  0.00    +0.000 OA
ATOM     15  H   UNL     1       6.203   8.058  16.548  0.00  0.00    +0.000 HD
BRANCH  13  16
ATOM     16  C   UNL     1       8.310   8.965  17.563  0.00  0.00    +0.000 C 
ATOM     17  C   UNL     1       8.861   9.672  18.564  0.00  0.00    +0.000 C 
BRANCH  17  18
ATOM     18  C   UNL     1       9.450  11.010  18.452  0.00  0.00    +0.000 A 
ATOM     19  C   UNL     1      10.711  11.230  19.027  0.00  0.00    +0.000 A 
ATOM     20  C   UNL     1      11.330  12.477  18.929  0.00  0.00    +0.000 A 
ATOM     21  C   UNL     1      10.700  13.514  18.247  0.00  0.00    +0.000 A 
ATOM     22  C   UNL     1       9.456  13.301  17.657  0.00  0.00    +0.000 A 
ATOM     23  C   UNL     1       8.835  12.054  17.753  0.00  0.00    +0.000 A 
ENDBRANCH  17  18
ENDBRANCH  13  16
ENDBRANCH   3  12
BRANCH   1  25
ATOM     24  C   UNL     1       2.188   6.262  20.328  0.00  0.00    +0.000 C 
ATOM     25  O   UNL     1       3.219   5.279  20.214  0.00  0.00    +0.000 OA
ENDBRANCH   1  25
TORSDOF 5
ENDMDL
MODEL 3
REMARK VINA RESULT:      -7.6      0.343      1.042
REMARK  Name = 
REMARK  6 active torsions:
REMARK  status: ('A' for Active; 'I' for Inactive)
REMARK    1  A    between atoms: C_1  and  O_2
REMARK    2  A    between atoms: O_2  and  C_3
REMARK    3  A    between atoms: C_5  and  N_6
REMARK    4  A    between atoms: C_7  and  C_9
REMARK    5  A    between atoms: C_10  and  C_11
REMARK    6  A    between atoms: C_19  and  C_20
REMARK                            x       y       z     vdW  Elec       q    Type
REMARK                         _______ _______ _______ _____ _____    ______ ____
ROOT
ATOM      1  C   UNL     1       1.850   8.263  19.334  0.00  0.00    +0.000 A 
ATOM      2  C   UNL     1       2.485   7.462  18.375  0.00  0.00    +0.000 A 
ATOM      3  C   UNL     1       2.834   6.134  18.628  0.00  0.00    +0.000 A 
ATOM      4  C   UNL     1       2.575   5.611  19.892  0.00  0.00    +0.000 A 
ATOM      5  C   UNL     1       1.989   6.416  20.878  0.00  0.00    +0.000 A 
ATOM      6  C   UNL     1       1.604   7.748  20.620  0.00  0.00    +0.000 A 
ENDROOT
BRANCH   6   7
ATOM      7  C   UNL     1       0.926   8.519  21.663  0.00  0.00    +0.000 A 
ATOM      8  C   UNL     1       1.296   9.337  22.712  0.00  0.00    +0.000 A 
ATOM      9  N   UNL     1       0.186   9.843  23.348  0.00  0.00    +0.000 NA
ATOM     10  C   UNL     1      -0.809   9.318  22.676  0.00  0.00    +0.000 A 
ATOM     11  O   UNL     1      -0.451   8.505  21.647  0.00  0.00    +0.000 OA
ENDBRANCH   6   7
BRANCH   3  12
ATOM     12  N   UNL     1       3.393   5.292  17.639  0.00  0.00    +0.000 N 
ATOM     13  C   UNL     1       4.623   4.668  17.727  0.00  0.00    +0.000 C 
ATOM     14  O   UNL     1       5.324   4.597  18.730  0.00  0.00    +0.000 OA
ATOM     15  H   UNL     1       2.836   5.137  16.810  0.00  0.00    +0.000 HD
BRANCH  13  16
ATOM     16  C   UNL     1       5.065   4.040  16.458  0.00  0.00    +0.000 C 
ATOM     17  C   UNL     1       5.553   4.853  15.506  0.00  0.00    +0.000 C 
BRANCH  17  18
ATOM     18  C   UNL     1       5.976   4.449  14.161  0.00  0.00    +0.000 A 
ATOM     19  C   UNL     1       7.194   4.944  13.672  0.00  0.00    +0.000 A 
ATOM     20  C   UNL     1       7.657   4.572  12.408  0.00  0.00    +0.000 A 
ATOM     21  C   UNL     1       6.911   3.696  11.625  0.00  0.00    +0.000 A 
ATOM     22  C   UNL     1       5.708   3.185  12.108  0.00  0.00    +0.000 A 
ATOM     23  C   UNL     1       5.244   3.554  13.372  0.00  0.00    +0.000 A 
ENDBRANCH  17  18
ENDBRANCH  13  16
ENDBRANCH   3  12
BRANCH   1  25
ATOM     24  C   UNL     1       2.112  10.158  17.924  0.00  0.00    +0.000 C 
ATOM     25  O   UNL     1       1.480   9.559  19.058  0.00  0.00    +0.000 OA
ENDBRANCH   1  25
TORSDOF 5
ENDMDL
MODEL 4
REMARK VINA RESULT:      -7.5      5.816      8.254
REMARK  Name = 
REMARK  6 active torsions:
REMARK  status: ('A' for Active; 'I' for Inactive)
REMARK    1  A    between atoms: C_1  and  O_2
REMARK    2  A    between atoms: O_2  and  C_3
REMARK    3  A    between atoms: C_5  and  N_6
REMARK    4  A    between atoms: C_7  and  C_9
REMARK    5  A    between atoms: C_10  and  C_11
REMARK    6  A    between atoms: C_19  and  C_20
REMARK                            x       y       z     vdW  Elec       q    Type
REMARK                         _______ _______ _______ _____ _____    ______ ____
ROOT
ATOM      1  C   UNL     1       5.758   4.672  16.608  0.00  0.00    +0.000 A 
ATOM      2  C   UNL     1       6.503   5.849  16.447  0.00  0.00    +0.000 A 
ATOM      3  C   UNL     1       6.286   6.979  17.238  0.00  0.00    +0.000 A 
ATOM      4  C   UNL     1       5.269   6.939  18.187  0.00  0.00    +0.000 A 
ATOM      5  C   UNL     1       4.482   5.787  18.323  0.00  0.00    +0.000 A 
ATOM      6  C   UNL     1       4.715   4.630  17.551  0.00  0.00    +0.000 A 
ENDROOT
BRANCH   6   7
ATOM      7  C   UNL     1       3.913   3.430  17.788  0.00  0.00    +0.000 A 
ATOM      8  C   UNL     1       3.995   2.304  18.584  0.00  0.00    +0.000 A 
ATOM      9  N   UNL     1       2.886   1.508  18.414  0.00  0.00    +0.000 NA
ATOM     10  C   UNL     1       2.179   2.164  17.529  0.00  0.00    +0.000 A 
ATOM     11  O   UNL     1       2.727   3.331  17.096  0.00  0.00    +0.000 OA
ENDBRANCH   6   7
BRANCH   3  12
ATOM     12  N   UNL     1       7.090   8.139  17.145  0.00  0.00    +0.000 N 
ATOM     13  C   UNL     1       8.121   8.465  18.006  0.00  0.00    +0.000 C 
ATOM     14  O   UNL     1       8.611   7.726  18.853  0.00  0.00    +0.000 OA
ATOM     15  H   UNL     1       6.889   8.768  16.380  0.00  0.00    +0.000 HD
BRANCH  13  16
ATOM     16  C   UNL     1       8.638   9.842  17.822  0.00  0.00    +0.000 C 
ATOM     17  C   UNL     1       9.387  10.356  18.811  0.00  0.00    +0.000 C 
BRANCH  17  18
ATOM     18  C   UNL     1       9.934  11.716  18.863  0.00  0.00    +0.000 A 
ATOM     19  C   UNL     1      10.769  12.055  19.939  0.00  0.00    +0.000 A 
ATOM     20  C   UNL     1      11.336  13.328  20.024  0.00  0.00    +0.000 A 
ATOM     21  C   UNL     1      11.084  14.270  19.032  0.00  0.00    +0.000 A 
ATOM     22  C   UNL     1      10.271  13.937  17.951  0.00  0.00    +0.000 A 
ATOM     23  C   UNL     1       9.702  12.665  17.862  0.00  0.00    +0.000 A 
ENDBRANCH  17  18
ENDBRANCH  13  16
ENDBRANCH   3  12
BRANCH   1  25
ATOM     24  C   UNL     1       6.195   3.784  14.448  0.00  0.00    +0.000 C 
ATOM     25  O   UNL     1       6.007   3.554  15.846  0.00  0.00    +0.000 OA
ENDBRANCH   1  25
TORSDOF 5
ENDMDL
MODEL 5
REMARK VINA RESULT:      -7.5      5.168      7.080
REMARK  Name = 
REMARK  6 active torsions:
REMARK  status: ('A' for Active; 'I' for Inactive)
REMARK    1  A    between atoms: C_1  and  O_2
REMARK    2  A    between atoms: O_2  and  C_3
REMARK    3  A    between atoms: C_5  and  N_6
REMARK    4  A    between atoms: C_7  and  C_9
REMARK    5  A    between atoms: C_10  and  C_11
REMARK    6  A    between atoms: C_19  and  C_20
REMARK                            x       y       z     vdW  Elec       q    Type
REMARK                         _______ _______ _______ _____ _____    ______ ____
ROOT
ATOM      1  C   UNL     1       4.451   4.281  18.202  0.00  0.00    +0.000 A 
ATOM      2  C   UNL     1       5.469   5.154  17.792  0.00  0.00    +0.000 A 
ATOM      3  C   UNL     1       5.227   6.502  17.520  0.00  0.00    +0.000 A 
ATOM      4  C   UNL     1       3.922   6.975  17.625  0.00  0.00    +0.000 A 
ATOM      5  C   UNL     1       2.886   6.102  17.983  0.00  0.00    +0.000 A 
ATOM      6  C   UNL     1       3.126   4.747  18.290  0.00  0.00    +0.000 A 
ENDROOT
BRANCH   6   7
ATOM      7  C   UNL     1       2.020   3.899  18.732  0.00  0.00    +0.000 A 
ATOM      8  C   UNL     1       1.147   3.858  19.802  0.00  0.00    +0.000 A 
ATOM      9  N   UNL     1       0.251   2.823  19.658  0.00  0.00    +0.000 NA
ATOM     10  C   UNL     1       0.608   2.274  18.524  0.00  0.00    +0.000 A 
ATOM     11  O   UNL     1       1.667   2.858  17.902  0.00  0.00    +0.000 OA
ENDBRANCH   6   7
BRANCH   3  12
ATOM     12  N   UNL     1       6.261   7.410  17.193  0.00  0.00    +0.000 N 
ATOM     13  C   UNL     1       7.470   7.512  17.855  0.00  0.00    +0.000 C 
ATOM     14  O   UNL     1       7.902   6.724  18.690  0.00  0.00    +0.000 OA
ATOM     15  H   UNL     1       6.092   8.024  16.408  0.00  0.00    +0.000 HD
BRANCH  13  16
ATOM     16  C   UNL     1       8.267   8.698  17.460  0.00  0.00    +0.000 C 
ATOM     17  C   UNL     1       8.608   9.562  18.431  0.00  0.00    +0.000 C 
BRANCH  17  18
ATOM     18  C   UNL     1       9.328  10.826  18.247  0.00  0.00    +0.000 A 
ATOM     19  C   UNL     1       8.615  11.931  17.759  0.00  0.00    +0.000 A 
ATOM     20  C   UNL     1       9.245  13.166  17.589  0.00  0.00    +0.000 A 
ATOM     21  C   UNL     1      10.591  13.310  17.914  0.00  0.00    +0.000 A 
ATOM     22  C   UNL     1      11.303  12.224  18.417  0.00  0.00    +0.000 A 
ATOM     23  C   UNL     1      10.676  10.988  18.589  0.00  0.00    +0.000 A 
ENDBRANCH  17  18
ENDBRANCH  13  16
ENDBRANCH   3  12
BRANCH   1  25
ATOM     24  C   UNL     1       4.664   2.618  19.886  0.00  0.00    +0.000 C 
ATOM     25  O   UNL     1       4.711   2.963  18.500  0.00  0.00    +0.000 OA
ENDBRANCH   1  25
TORSDOF 5
ENDMDL
MODEL 6
REMARK VINA RESULT:      -7.5      5.630      7.939
REMARK  Name = 
REMARK  6 active torsions:
REMARK  status: ('A' for Active; 'I' for Inactive)
REMARK    1  A    between atoms: C_1  and  O_2
REMARK    2  A    between atoms: O_2  and  C_3
REMARK    3  A    between atoms: C_5  and  N_6
REMARK    4  A    between atoms: C_7  and  C_9
REMARK    5  A    between atoms: C_10  and  C_11
REMARK    6  A    between atoms: C_19  and  C_20
REMARK                            x       y       z     vdW  Elec       q    Type
REMARK                         _______ _______ _______ _____ _____    ______ ____
ROOT
ATOM      1  C   UNL     1       5.228   4.719  16.614  0.00  0.00    +0.000 A 
ATOM      2  C   UNL     1       6.087   5.816  16.452  0.00  0.00    +0.000 A 
ATOM      3  C   UNL     1       5.964   6.976  17.219  0.00  0.00    +0.000 A 
ATOM      4  C   UNL     1       4.926   7.051  18.144  0.00  0.00    +0.000 A 
ATOM      5  C   UNL     1       4.028   5.984  18.280  0.00  0.00    +0.000 A 
ATOM      6  C   UNL     1       4.164   4.796  17.532  0.00  0.00    +0.000 A 
ENDROOT
BRANCH   6   7
ATOM      7  C   UNL     1       3.244   3.684  17.768  0.00  0.00    +0.000 A 
ATOM      8  C   UNL     1       3.331   2.310  17.875  0.00  0.00    +0.000 A 
ATOM      9  N   UNL     1       2.100   1.766  18.160  0.00  0.00    +0.000 NA
ATOM     10  C   UNL     1       1.315   2.814  18.211  0.00  0.00    +0.000 A 
ATOM     11  O   UNL     1       1.923   4.008  17.982  0.00  0.00    +0.000 OA
ENDBRANCH   6   7
BRANCH   3  12
ATOM     12  N   UNL     1       6.879   8.050  17.127  0.00  0.00    +0.000 N 
ATOM     13  C   UNL     1       7.978   8.232  17.945  0.00  0.00    +0.000 C 
ATOM     14  O   UNL     1       8.429   7.412  18.738  0.00  0.00    +0.000 OA
ATOM     15  H   UNL     1       6.708   8.728  16.398  0.00  0.00    +0.000 HD
BRANCH  13  16
ATOM     16  C   UNL     1       8.627   9.556  17.785  0.00  0.00    +0.000 C 
ATOM     17  C   UNL     1       9.157  10.118  18.884  0.00  0.00    +0.000 C 
BRANCH  17  18
ATOM     18  C   UNL     1       9.777  11.445  18.961  0.00  0.00    +0.000 A 
ATOM     19  C   UNL     1       9.232  12.478  18.183  0.00  0.00    +0.000 A 
ATOM     20  C   UNL     1       9.768  13.767  18.237  0.00  0.00    +0.000 A 
ATOM     21  C   UNL     1      10.845  14.038  19.075  0.00  0.00    +0.000 A 
ATOM     22  C   UNL     1      11.382  13.023  19.865  0.00  0.00    +0.000 A 
ATOM     23  C   UNL     1      10.848  11.734  19.814  0.00  0.00    +0.000 A 
ENDBRANCH  17  18
ENDBRANCH  13  16
ENDBRANCH   3  12
BRANCH   1  25
ATOM     24  C   UNL     1       6.157   3.698  14.680  0.00  0.00    +0.000 C 
ATOM     25  O   UNL     1       5.384   3.569  15.875  0.00  0.00    +0.000 OA
ENDBRANCH   1  25
TORSDOF 5
ENDMDL
MODEL 7
REMARK VINA RESULT:      -7.4      5.161      7.063
REMARK  Name = 
REMARK  6 active torsions:
REMARK  status: ('A' for Active; 'I' for Inactive)
REMARK    1  A    between atoms: C_1  and  O_2
REMARK    2  A    between atoms: O_2  and  C_3
REMARK    3  A    between atoms: C_5  and  N_6
REMARK    4  A    between atoms: C_7  and  C_9
REMARK    5  A    between atoms: C_10  and  C_11
REMARK    6  A    between atoms: C_19  and  C_20
REMARK                            x       y       z     vdW  Elec       q    Type
REMARK                         _______ _______ _______ _____ _____    ______ ____
ROOT
ATOM      1  C   UNL     1       4.556   4.368  18.174  0.00  0.00    +0.000 A 
ATOM      2  C   UNL     1       5.607   5.207  17.778  0.00  0.00    +0.000 A 
ATOM      3  C   UNL     1       5.410   6.560  17.491  0.00  0.00    +0.000 A 
ATOM      4  C   UNL     1       4.117   7.071  17.566  0.00  0.00    +0.000 A 
ATOM      5  C   UNL     1       3.049   6.231  17.910  0.00  0.00    +0.000 A 
ATOM      6  C   UNL     1       3.244   4.872  18.232  0.00  0.00    +0.000 A 
ENDROOT
BRANCH   6   7
ATOM      7  C   UNL     1       2.105   4.059  18.658  0.00  0.00    +0.000 A 
ATOM      8  C   UNL     1       1.357   3.022  18.138  0.00  0.00    +0.000 A 
ATOM      9  N   UNL     1       0.404   2.610  19.040  0.00  0.00    +0.000 NA
ATOM     10  C   UNL     1       0.598   3.404  20.064  0.00  0.00    +0.000 A 
ATOM     11  O   UNL     1       1.601   4.309  19.915  0.00  0.00    +0.000 OA
ENDBRANCH   6   7
BRANCH   3  12
ATOM     12  N   UNL     1       6.475   7.435  17.178  0.00  0.00    +0.000 N 
ATOM     13  C   UNL     1       7.641   7.564  17.910  0.00  0.00    +0.000 C 
ATOM     14  O   UNL     1       8.007   6.823  18.817  0.00  0.00    +0.000 OA
ATOM     15  H   UNL     1       6.367   8.001  16.348  0.00  0.00    +0.000 HD
BRANCH  13  16
ATOM     16  C   UNL     1       8.480   8.715  17.497  0.00  0.00    +0.000 C 
ATOM     17  C   UNL     1       8.587   9.739  18.360  0.00  0.00    +0.000 C 
BRANCH  17  18
ATOM     18  C   UNL     1       9.303  10.996  18.122  0.00  0.00    +0.000 A 
ATOM     19  C   UNL     1      10.705  10.965  18.088  0.00  0.00    +0.000 A 
ATOM     20  C   UNL     1      11.437  12.129  17.840  0.00  0.00    +0.000 A 
ATOM     21  C   UNL     1      10.774  13.332  17.613  0.00  0.00    +0.000 A 
ATOM     22  C   UNL     1       9.381  13.369  17.627  0.00  0.00    +0.000 A 
ATOM     23  C   UNL     1       8.647  12.207  17.874  0.00  0.00    +0.000 A 
ENDBRANCH  17  18
ENDBRANCH  13  16
ENDBRANCH   3  12
BRANCH   1  25
ATOM     24  C   UNL     1       4.639   2.704  19.868  0.00  0.00    +0.000 C 
ATOM     25  O   UNL     1       4.773   3.045  18.487  0.00  0.00    +0.000 OA
ENDBRANCH   1  25
TORSDOF 5
ENDMDL
MODEL 8
REMARK VINA RESULT:      -7.4      5.658      7.975
REMARK  Name = 
REMARK  6 active torsions:
REMARK  status: ('A' for Active; 'I' for Inactive)
REMARK    1  A    between atoms: C_1  and  O_2
REMARK    2  A    between atoms: O_2  and  C_3
REMARK    3  A    between atoms: C_5  and  N_6
REMARK    4  A    between atoms: C_7  and  C_9
REMARK    5  A    between atoms: C_10  and  C_11
REMARK    6  A    between atoms: C_19  and  C_20
REMARK                            x       y       z     vdW  Elec       q    Type
REMARK                         _______ _______ _______ _____ _____    ______ ____
ROOT
ATOM      1  C   UNL     1       4.992   4.967  16.487  0.00  0.00    +0.000 A 
ATOM      2  C   UNL     1       5.896   6.032  16.371  0.00  0.00    +0.000 A 
ATOM      3  C   UNL     1       5.861   7.132  17.231  0.00  0.00    +0.000 A 
ATOM      4  C   UNL     1       4.867   7.181  18.204  0.00  0.00    +0.000 A 
ATOM      5  C   UNL     1       3.925   6.148  18.298  0.00  0.00    +0.000 A 
ATOM      6  C   UNL     1       3.973   5.018  17.455  0.00  0.00    +0.000 A 
ENDROOT
BRANCH   6   7
ATOM      7  C   UNL     1       3.010   3.933  17.646  0.00  0.00    +0.000 A 
ATOM      8  C   UNL     1       1.641   3.774  17.559  0.00  0.00    +0.000 A 
ATOM      9  N   UNL     1       1.287   2.469  17.812  0.00  0.00    +0.000 NA
ATOM     10  C   UNL     1       2.437   1.887  18.046  0.00  0.00    +0.000 A 
ATOM     11  O   UNL     1       3.525   2.698  17.970  0.00  0.00    +0.000 OA
ENDBRANCH   6   7
BRANCH   3  12
ATOM     12  N   UNL     1       6.822   8.168  17.180  0.00  0.00    +0.000 N 
ATOM     13  C   UNL     1       7.952   8.246  17.973  0.00  0.00    +0.000 C 
ATOM     14  O   UNL     1       8.386   7.355  18.696  0.00  0.00    +0.000 OA
ATOM     15  H   UNL     1       6.662   8.901  16.503  0.00  0.00    +0.000 HD
BRANCH  13  16
ATOM     16  C   UNL     1       8.656   9.547  17.880  0.00  0.00    +0.000 C 
ATOM     17  C   UNL     1       9.367   9.940  18.950  0.00  0.00    +0.000 C 
BRANCH  17  18
ATOM     18  C   UNL     1      10.076  11.216  19.094  0.00  0.00    +0.000 A 
ATOM     19  C   UNL     1       9.933  11.923  20.298  0.00  0.00    +0.000 A 
ATOM     20  C   UNL     1      10.605  13.130  20.498  0.00  0.00    +0.000 A 
ATOM     21  C   UNL     1      11.435  13.637  19.503  0.00  0.00    +0.000 A 
ATOM     22  C   UNL     1      11.597  12.934  18.311  0.00  0.00    +0.000 A 
ATOM     23  C   UNL     1      10.927  11.726  18.108  0.00  0.00    +0.000 A 
ENDBRANCH  17  18
ENDBRANCH  13  16
ENDBRANCH   3  12
BRANCH   1  25
ATOM     24  C   UNL     1       6.197   3.820  14.790  0.00  0.00    +0.000 C 
ATOM     25  O   UNL     1       5.061   3.873  15.655  0.00  0.00    +0.000 OA
ENDBRANCH   1  25
TORSDOF 5
ENDMDL
MODEL 9
REMARK VINA RESULT:      -7.3      5.668      7.816
REMARK  Name = 
REMARK  6 active torsions:
REMARK  status: ('A' for Active; 'I' for Inactive)
REMARK    1  A    between atoms: C_1  and  O_2
REMARK    2  A    between atoms: O_2  and  C_3
REMARK    3  A    between atoms: C_5  and  N_6
REMARK    4  A    between atoms: C_7  and  C_9
REMARK    5  A    between atoms: C_10  and  C_11
REMARK    6  A    between atoms: C_19  and  C_20
REMARK                            x       y       z     vdW  Elec       q    Type
REMARK                         _______ _______ _______ _____ _____    ______ ____
ROOT
ATOM      1  C   UNL     1       4.029   6.073  17.841  0.00  0.00    +0.000 A 
ATOM      2  C   UNL     1       4.918   7.149  17.707  0.00  0.00    +0.000 A 
ATOM      3  C   UNL     1       6.236   6.976  17.280  0.00  0.00    +0.000 A 
ATOM      4  C   UNL     1       6.684   5.684  17.021  0.00  0.00    +0.000 A 
ATOM      5  C   UNL     1       5.822   4.593  17.201  0.00  0.00    +0.000 A 
ATOM      6  C   UNL     1       4.480   4.762  17.600  0.00  0.00    +0.000 A 
ENDROOT
BRANCH   6   7
ATOM      7  C   UNL     1       3.603   3.595  17.699  0.00  0.00    +0.000 A 
ATOM      8  C   UNL     1       2.445   3.151  17.092  0.00  0.00    +0.000 A 
ATOM      9  N   UNL     1       2.089   1.913  17.573  0.00  0.00    +0.000 NA
ATOM     10  C   UNL     1       3.028   1.650  18.449  0.00  0.00    +0.000 A 
ATOM     11  O   UNL     1       3.977   2.613  18.589  0.00  0.00    +0.000 OA
ENDBRANCH   6   7
BRANCH   3  12
ATOM     12  N   UNL     1       7.112   8.063  17.056  0.00  0.00    +0.000 N 
ATOM     13  C   UNL     1       8.112   8.471  17.918  0.00  0.00    +0.000 C 
ATOM     14  O   UNL     1       8.510   7.855  18.902  0.00  0.00    +0.000 OA
ATOM     15  H   UNL     1       6.992   8.570  16.190  0.00  0.00    +0.000 HD
BRANCH  13  16
ATOM     16  C   UNL     1       8.721   9.772  17.552  0.00  0.00    +0.000 C 
ATOM     17  C   UNL     1       9.222  10.520  18.549  0.00  0.00    +0.000 C 
BRANCH  17  18
ATOM     18  C   UNL     1       9.799  11.861  18.416  0.00  0.00    +0.000 A 
ATOM     19  C   UNL     1      10.905  12.027  17.568  0.00  0.00    +0.000 A 
ATOM     20  C   UNL     1      11.478  13.287  17.384  0.00  0.00    +0.000 A 
ATOM     21  C   UNL     1      10.947  14.394  18.038  0.00  0.00    +0.000 A 
ATOM     22  C   UNL     1       9.838  14.244  18.868  0.00  0.00    +0.000 A 
ATOM     23  C   UNL     1       9.262  12.985  19.053  0.00  0.00    +0.000 A 
ENDBRANCH  17  18
ENDBRANCH  13  16
ENDBRANCH   3  12
BRANCH   1  25
ATOM     24  C   UNL     1       2.503   6.388  19.634  0.00  0.00    +0.000 C 
ATOM     25  O   UNL     1       2.723   6.263  18.228  0.00  0.00    +0.000 OA
ENDBRANCH   1  25
TORSDOF 5
ENDMDL
