MODEL 1
REMARK VINA RESULT:      -8.1      0.000      0.000
REMARK  Name = 
REMARK  7 active torsions:
REMARK  status: ('A' for Active; 'I' for Inactive)
REMARK    1  A    between atoms: C_1  and  C_2
REMARK    2  A    between atoms: C_7  and  C_8
REMARK    3  A    between atoms: C_7  and  C_9
REMARK    4  A    between atoms: C_17  and  N_18
REMARK    5  A    between atoms: C_19  and  O_21
REMARK    6  A    between atoms: O_21  and  C_22
REMARK    7  A    between atoms: C_22  and  C_23
REMARK                            x       y       z     vdW  Elec       q    Type
REMARK                         _______ _______ _______ _____ _____    ______ ____
ROOT
ATOM      1  C   UNL     1       6.946   3.930  15.628  0.00  0.00    +0.000 C 
ATOM      2  C   UNL     1       6.100   5.138  15.983  0.00  0.00    +0.000 C 
ATOM      3  O   UNL     1       6.530   6.246  15.654  0.00  0.00    +0.000 OA
ATOM      4  N   UNL     1       4.884   4.887  16.647  0.00  0.00    +0.000 N 
ATOM      5  C   UNL     1       4.494   3.510  16.980  0.00  0.00    +0.000 C 
ATOM      6  C   UNL     1       3.004   3.278  16.879  0.00  0.00    +0.000 C 
ATOM      7  C   UNL     1       2.215   4.195  17.823  0.00  0.00    +0.000 C 
ATOM      8  C   UNL     1       0.766   4.224  17.238  0.00  0.00    +0.000 C 
ATOM      9  C   UNL     1       2.788   5.618  17.764  0.00  0.00    +0.000 A 
ATOM     10  C   UNL     1       2.008   6.632  18.375  0.00  0.00    +0.000 A 
ATOM     11  C   UNL     1       2.371   7.972  18.345  0.00  0.00    +0.000 A 
ATOM     12  C   UNL     1       3.576   8.302  17.741  0.00  0.00    +0.000 A 
ATOM     13  C   UNL     1       4.393   7.298  17.175  0.00  0.00    +0.000 A 
ATOM     14  C   UNL     1       4.034   5.939  17.177  0.00  0.00    +0.000 A 
ENDROOT
BRANCH   7  15
ATOM     15  C   UNL     1       2.259   3.620  19.262  0.00  0.00    +0.000 A 
ATOM     16  C   UNL     1       3.475   3.191  19.834  0.00  0.00    +0.000 A 
ATOM     17  C   UNL     1       3.525   2.624  21.109  0.00  0.00    +0.000 A 
ATOM     18  C   UNL     1       2.359   2.479  21.849  0.00  0.00    +0.000 A 
ATOM     19  C   UNL     1       1.148   2.911  21.319  0.00  0.00    +0.000 A 
ATOM     20  C   UNL     1       1.098   3.473  20.039  0.00  0.00    +0.000 A 
ENDBRANCH   7  15
BRANCH  11  21
ATOM     21  N   UNL     1       1.544   8.991  18.860  0.00  0.00    +0.000 N 
ATOM     22  C   UNL     1       1.002   9.041  20.123  0.00  0.00    +0.000 C 
ATOM     23  O   UNL     1       1.241   8.313  21.075  0.00  0.00    +0.000 OA
ATOM     24  H   UNL     1       1.138   9.649  18.210  0.00  0.00    +0.000 HD
BRANCH  22  25
ATOM     25  O   UNL     1       0.009   9.970  20.139  0.00  0.00    +0.000 OA
BRANCH  25  26
ATOM     26  C   UNL     1      -0.343  10.447  18.828  0.00  0.00    +0.000 C 
BRANCH  26  27
ATOM     27  C   UNL     1      -1.798  10.192  18.483  0.00  0.00    +0.000 C 
ATOM     28  C   UNL     1      -2.619  11.513  18.419  0.00  0.00    +0.000 C 
ATOM     29  C   UNL     1      -3.418  10.895  17.260  0.00  0.00    +0.000 C 
ATOM     30  C   UNL     1      -2.202   9.984  16.995  0.00  0.00    +0.000 C 
ENDBRANCH  26  27
ENDBRANCH  25  26
ENDBRANCH  22  25
ENDBRANCH  11  21
TORSDOF 5
ENDMDL
MODEL 2
REMARK VINA RESULT:      -8.0      0.986      1.139
REMARK  Name = 
REMARK  7 active torsions:
REMARK  status: ('A' for Active; 'I' for Inactive)
REMARK    1  A    between atoms: C_1  and  C_2
REMARK    2  A    between atoms: C_7  and  C_8
REMARK    3  A    between atoms: C_7  and  C_9
REMARK    4  A    between atoms: C_17  and  N_18
REMARK    5  A    between atoms: C_19  and  O_21
REMARK    6  A    between atoms: O_21  and  C_22
REMARK    7  A    between atoms: C_22  and  C_23
REMARK                            x       y       z     vdW  Elec       q    Type
REMARK                         _______ _______ _______ _____ _____    ______ ____
ROOT
ATOM      1  C   UNL     1       7.661   4.615  16.981  0.00  0.00    +0.000 C 
ATOM      2  C   UNL     1       6.612   5.711  16.987  0.00  0.00    +0.000 C 
ATOM      3  O   UNL     1       6.976   6.844  16.665  0.00  0.00    +0.000 OA
ATOM      4  N   UNL     1       5.303   5.334  17.347  0.00  0.00    +0.000 N 
ATOM      5  C   UNL     1       5.010   3.942  17.711  0.00  0.00    +0.000 C 
ATOM      6  C   UNL     1       3.638   3.492  17.263  0.00  0.00    +0.000 C 
ATOM      7  C   UNL     1       2.523   4.348  17.881  0.00  0.00    +0.000 C 
ATOM      8  C   UNL     1       1.286   4.130  16.951  0.00  0.00    +0.000 C 
ATOM      9  C   UNL     1       2.916   5.832  17.823  0.00  0.00    +0.000 A 
ATOM     10  C   UNL     1       1.887   6.763  18.111  0.00  0.00    +0.000 A 
ATOM     11  C   UNL     1       2.080   8.136  18.037  0.00  0.00    +0.000 A 
ATOM     12  C   UNL     1       3.353   8.593  17.723  0.00  0.00    +0.000 A 
ATOM     13  C   UNL     1       4.404   7.681  17.486  0.00  0.00    +0.000 A 
ATOM     14  C   UNL     1       4.224   6.287  17.537  0.00  0.00    +0.000 A 
ENDROOT
BRANCH   7  15
ATOM     15  C   UNL     1       2.258   3.885  19.336  0.00  0.00    +0.000 A 
ATOM     16  C   UNL     1       1.574   2.679  19.599  0.00  0.00    +0.000 A 
ATOM     17  C   UNL     1       1.282   2.272  20.903  0.00  0.00    +0.000 A 
ATOM     18  C   UNL     1       1.674   3.058  21.978  0.00  0.00    +0.000 A 
ATOM     19  C   UNL     1       2.367   4.243  21.750  0.00  0.00    +0.000 A 
ATOM     20  C   UNL     1       2.654   4.652  20.444  0.00  0.00    +0.000 A 
ENDBRANCH   7  15
BRANCH  11  21
ATOM     21  N   UNL     1       1.031   9.058  18.221  0.00  0.00    +0.000 N 
ATOM     22  C   UNL     1       0.651   9.635  19.410  0.00  0.00    +0.000 C 
ATOM     23  O   UNL     1       1.223   9.583  20.489  0.00  0.00    +0.000 OA
ATOM     24  H   UNL     1       0.360   9.172  17.474  0.00  0.00    +0.000 HD
BRANCH  22  25
ATOM     25  O   UNL     1      -0.582  10.188  19.257  0.00  0.00    +0.000 OA
BRANCH  25  26
ATOM     26  C   UNL     1      -1.028  10.211  17.889  0.00  0.00    +0.000 C 
BRANCH  26  27
ATOM     27  C   UNL     1      -2.532  10.066  17.760  0.00  0.00    +0.000 C 
ATOM     28  C   UNL     1      -3.262  11.432  17.921  0.00  0.00    +0.000 C 
ATOM     29  C   UNL     1      -4.269  10.955  16.862  0.00  0.00    +0.000 C 
ATOM     30  C   UNL     1      -3.173  10.003  16.344  0.00  0.00    +0.000 C 
ENDBRANCH  26  27
ENDBRANCH  25  26
ENDBRANCH  22  25
ENDBRANCH  11  21
TORSDOF 5
ENDMDL
MODEL 3
REMARK VINA RESULT:      -7.7      1.669      2.077
REMARK  Name = 
REMARK  7 active torsions:
REMARK  status: ('A' for Active; 'I' for Inactive)
REMARK    1  A    between atoms: C_1  and  C_2
REMARK    2  A    between atoms: C_7  and  C_8
REMARK    3  A    between atoms: C_7  and  C_9
REMARK    4  A    between atoms: C_17  and  N_18
REMARK    5  A    between atoms: C_19  and  O_21
REMARK    6  A    between atoms: O_21  and  C_22
REMARK    7  A    between atoms: C_22  and  C_23
REMARK                            x       y       z     vdW  Elec       q    Type
REMARK                         _______ _______ _______ _____ _____    ______ ____
ROOT
ATOM      1  C   UNL     1       6.964   3.962  15.686  0.00  0.00    +0.000 C 
ATOM      2  C   UNL     1       6.095   5.152  16.046  0.00  0.00    +0.000 C 
ATOM      3  O   UNL     1       6.507   6.270  15.729  0.00  0.00    +0.000 OA
ATOM      4  N   UNL     1       4.880   4.873  16.701  0.00  0.00    +0.000 N 
ATOM      5  C   UNL     1       4.513   3.487  17.021  0.00  0.00    +0.000 C 
ATOM      6  C   UNL     1       3.028   3.229  16.909  0.00  0.00    +0.000 C 
ATOM      7  C   UNL     1       2.217   4.123  17.856  0.00  0.00    +0.000 C 
ATOM      8  C   UNL     1       0.771   4.131  17.263  0.00  0.00    +0.000 C 
ATOM      9  C   UNL     1       2.765   5.557  17.813  0.00  0.00    +0.000 A 
ATOM     10  C   UNL     1       1.964   6.552  18.427  0.00  0.00    +0.000 A 
ATOM     11  C   UNL     1       2.303   7.899  18.411  0.00  0.00    +0.000 A 
ATOM     12  C   UNL     1       3.505   8.255  17.816  0.00  0.00    +0.000 A 
ATOM     13  C   UNL     1       4.343   7.271  17.246  0.00  0.00    +0.000 A 
ATOM     14  C   UNL     1       4.008   5.905  17.235  0.00  0.00    +0.000 A 
ENDROOT
BRANCH   7  15
ATOM     15  C   UNL     1       2.264   3.538  19.291  0.00  0.00    +0.000 A 
ATOM     16  C   UNL     1       3.472   3.056  19.838  0.00  0.00    +0.000 A 
ATOM     17  C   UNL     1       3.522   2.480  21.109  0.00  0.00    +0.000 A 
ATOM     18  C   UNL     1       2.364   2.376  21.869  0.00  0.00    +0.000 A 
ATOM     19  C   UNL     1       1.162   2.860  21.363  0.00  0.00    +0.000 A 
ATOM     20  C   UNL     1       1.112   3.432  20.088  0.00  0.00    +0.000 A 
ENDBRANCH   7  15
BRANCH  11  21
ATOM     21  N   UNL     1       1.455   8.898  18.929  0.00  0.00    +0.000 N 
ATOM     22  C   UNL     1       1.102   9.064  20.247  0.00  0.00    +0.000 C 
ATOM     23  O   UNL     1       1.556   8.492  21.227  0.00  0.00    +0.000 OA
ATOM     24  H   UNL     1       0.889   9.427  18.280  0.00  0.00    +0.000 HD
BRANCH  22  25
ATOM     25  O   UNL     1       0.027   9.896  20.314  0.00  0.00    +0.000 OA
BRANCH  25  26
ATOM     26  C   UNL     1       0.261  11.060  21.126  0.00  0.00    +0.000 C 
BRANCH  26  27
ATOM     27  C   UNL     1      -1.021  11.670  21.661  0.00  0.00    +0.000 C 
ATOM     28  C   UNL     1      -1.399  11.093  23.057  0.00  0.00    +0.000 C 
ATOM     29  C   UNL     1      -1.922  12.490  23.430  0.00  0.00    +0.000 C 
ATOM     30  C   UNL     1      -0.971  13.060  22.358  0.00  0.00    +0.000 C 
ENDBRANCH  26  27
ENDBRANCH  25  26
ENDBRANCH  22  25
ENDBRANCH  11  21
TORSDOF 5
ENDMDL
MODEL 4
REMARK VINA RESULT:      -7.7      0.933      1.302
REMARK  Name = 
REMARK  7 active torsions:
REMARK  status: ('A' for Active; 'I' for Inactive)
REMARK    1  A    between atoms: C_1  and  C_2
REMARK    2  A    between atoms: C_7  and  C_8
REMARK    3  A    between atoms: C_7  and  C_9
REMARK    4  A    between atoms: C_17  and  N_18
REMARK    5  A    between atoms: C_19  and  O_21
REMARK    6  A    between atoms: O_21  and  C_22
REMARK    7  A    between atoms: C_22  and  C_23
REMARK                            x       y       z     vdW  Elec       q    Type
REMARK                         _______ _______ _______ _____ _____    ______ ____
ROOT
ATOM      1  C   UNL     1       7.155   4.182  15.939  0.00  0.00    +0.000 C 
ATOM      2  C   UNL     1       6.220   5.338  16.235  0.00  0.00    +0.000 C 
ATOM      3  O   UNL     1       6.602   6.468  15.925  0.00  0.00    +0.000 OA
ATOM      4  N   UNL     1       4.983   5.017  16.828  0.00  0.00    +0.000 N 
ATOM      5  C   UNL     1       4.657   3.620  17.146  0.00  0.00    +0.000 C 
ATOM      6  C   UNL     1       3.192   3.299  16.958  0.00  0.00    +0.000 C 
ATOM      7  C   UNL     1       2.294   4.169  17.847  0.00  0.00    +0.000 C 
ATOM      8  C   UNL     1       0.884   4.110  17.177  0.00  0.00    +0.000 C 
ATOM      9  C   UNL     1       2.785   5.624  17.814  0.00  0.00    +0.000 A 
ATOM     10  C   UNL     1       1.911   6.592  18.370  0.00  0.00    +0.000 A 
ATOM     11  C   UNL     1       2.194   7.951  18.353  0.00  0.00    +0.000 A 
ATOM     12  C   UNL     1       3.412   8.350  17.819  0.00  0.00    +0.000 A 
ATOM     13  C   UNL     1       4.319   7.396  17.309  0.00  0.00    +0.000 A 
ATOM     14  C   UNL     1       4.042   6.017  17.299  0.00  0.00    +0.000 A 
ENDROOT
BRANCH   7  15
ATOM     15  C   UNL     1       2.287   3.603  19.290  0.00  0.00    +0.000 A 
ATOM     16  C   UNL     1       3.468   3.102  19.879  0.00  0.00    +0.000 A 
ATOM     17  C   UNL     1       3.468   2.542  21.158  0.00  0.00    +0.000 A 
ATOM     18  C   UNL     1       2.287   2.475  21.885  0.00  0.00    +0.000 A 
ATOM     19  C   UNL     1       1.111   2.978  21.338  0.00  0.00    +0.000 A 
ATOM     20  C   UNL     1       1.111   3.534  20.055  0.00  0.00    +0.000 A 
ENDBRANCH   7  15
BRANCH  11  21
ATOM     21  N   UNL     1       1.279   8.920  18.811  0.00  0.00    +0.000 N 
ATOM     22  C   UNL     1       0.965   9.189  20.123  0.00  0.00    +0.000 C 
ATOM     23  O   UNL     1       1.508   8.762  21.131  0.00  0.00    +0.000 OA
ATOM     24  H   UNL     1       0.641   9.327  18.142  0.00  0.00    +0.000 HD
BRANCH  22  25
ATOM     25  O   UNL     1      -0.178   9.925  20.160  0.00  0.00    +0.000 OA
BRANCH  25  26
ATOM     26  C   UNL     1      -0.646  10.312  18.855  0.00  0.00    +0.000 C 
BRANCH  26  27
ATOM     27  C   UNL     1      -0.925  11.799  18.748  0.00  0.00    +0.000 C 
ATOM     28  C   UNL     1      -1.353  12.408  20.115  0.00  0.00    +0.000 C 
ATOM     29  C   UNL     1      -0.586  13.681  19.725  0.00  0.00    +0.000 C 
ATOM     30  C   UNL     1       0.263  12.802  18.785  0.00  0.00    +0.000 C 
ENDBRANCH  26  27
ENDBRANCH  25  26
ENDBRANCH  22  25
ENDBRANCH  11  21
TORSDOF 5
ENDMDL
MODEL 5
REMARK VINA RESULT:      -7.7      1.034      1.622
REMARK  Name = 
REMARK  7 active torsions:
REMARK  status: ('A' for Active; 'I' for Inactive)
REMARK    1  A    between atoms: C_1  and  C_2
REMARK    2  A    between atoms: C_7  and  C_8
REMARK    3  A    between atoms: C_7  and  C_9
REMARK    4  A    between atoms: C_17  and  N_18
REMARK    5  A    between atoms: C_19  and  O_21
REMARK    6  A    between atoms: O_21  and  C_22
REMARK    7  A    between atoms: C_22  and  C_23
REMARK                            x       y       z     vdW  Elec       q    Type
REMARK                         _______ _______ _______ _____ _____    ______ ____
ROOT
ATOM      1  C   UNL     1       7.131   4.203  15.893  0.00  0.00    +0.000 C 
ATOM      2  C   UNL     1       6.200   5.350  16.235  0.00  0.00    +0.000 C 
ATOM      3  O   UNL     1       6.581   6.489  15.959  0.00  0.00    +0.000 OA
ATOM      4  N   UNL     1       4.967   5.011  16.826  0.00  0.00    +0.000 N 
ATOM      5  C   UNL     1       4.641   3.606  17.101  0.00  0.00    +0.000 C 
ATOM      6  C   UNL     1       3.174   3.293  16.914  0.00  0.00    +0.000 C 
ATOM      7  C   UNL     1       2.285   4.135  17.838  0.00  0.00    +0.000 C 
ATOM      8  C   UNL     1       0.869   4.100  17.178  0.00  0.00    +0.000 C 
ATOM      9  C   UNL     1       2.777   5.590  17.849  0.00  0.00    +0.000 A 
ATOM     10  C   UNL     1       1.910   6.540  18.444  0.00  0.00    +0.000 A 
ATOM     11  C   UNL     1       2.196   7.898  18.469  0.00  0.00    +0.000 A 
ATOM     12  C   UNL     1       3.410   8.313  17.939  0.00  0.00    +0.000 A 
ATOM     13  C   UNL     1       4.311   7.375  17.391  0.00  0.00    +0.000 A 
ATOM     14  C   UNL     1       4.031   5.997  17.338  0.00  0.00    +0.000 A 
ENDROOT
BRANCH   7  15
ATOM     15  C   UNL     1       2.288   3.522  19.262  0.00  0.00    +0.000 A 
ATOM     16  C   UNL     1       1.098   3.432  20.015  0.00  0.00    +0.000 A 
ATOM     17  C   UNL     1       1.092   2.929  21.318  0.00  0.00    +0.000 A 
ATOM     18  C   UNL     1       2.276   2.495  21.899  0.00  0.00    +0.000 A 
ATOM     19  C   UNL     1       3.462   2.553  21.173  0.00  0.00    +0.000 A 
ATOM     20  C   UNL     1       3.467   3.063  19.870  0.00  0.00    +0.000 A 
ENDBRANCH   7  15
BRANCH  11  21
ATOM     21  N   UNL     1       1.285   8.853  18.966  0.00  0.00    +0.000 N 
ATOM     22  C   UNL     1       0.986   9.083  20.288  0.00  0.00    +0.000 C 
ATOM     23  O   UNL     1       1.541   8.627  21.277  0.00  0.00    +0.000 OA
ATOM     24  H   UNL     1       0.640   9.280  18.316  0.00  0.00    +0.000 HD
BRANCH  22  25
ATOM     25  O   UNL     1      -0.156   9.818  20.359  0.00  0.00    +0.000 OA
BRANCH  25  26
ATOM     26  C   UNL     1       0.032  11.102  20.981  0.00  0.00    +0.000 C 
BRANCH  26  27
ATOM     27  C   UNL     1      -0.567  12.238  20.176  0.00  0.00    +0.000 C 
ATOM     28  C   UNL     1       0.531  13.134  19.531  0.00  0.00    +0.000 C 
ATOM     29  C   UNL     1      -0.396  13.297  18.315  0.00  0.00    +0.000 C 
ATOM     30  C   UNL     1      -1.060  11.967  18.726  0.00  0.00    +0.000 C 
ENDBRANCH  26  27
ENDBRANCH  25  26
ENDBRANCH  22  25
ENDBRANCH  11  21
TORSDOF 5
ENDMDL
MODEL 6
REMARK VINA RESULT:      -7.5      1.725      2.369
REMARK  Name = 
REMARK  7 active torsions:
REMARK  status: ('A' for Active; 'I' for Inactive)
REMARK    1  A    between atoms: C_1  and  C_2
REMARK    2  A    between atoms: C_7  and  C_8
REMARK    3  A    between atoms: C_7  and  C_9
REMARK    4  A    between atoms: C_17  and  N_18
REMARK    5  A    between atoms: C_19  and  O_21
REMARK    6  A    between atoms: O_21  and  C_22
REMARK    7  A    between atoms: C_22  and  C_23
REMARK                            x       y       z     vdW  Elec       q    Type
REMARK                         _______ _______ _______ _____ _____    ______ ____
ROOT
ATOM      1  C   UNL     1       7.576   4.415  16.678  0.00  0.00    +0.000 C 
ATOM      2  C   UNL     1       6.544   5.521  16.793  0.00  0.00    +0.000 C 
ATOM      3  O   UNL     1       6.904   6.663  16.500  0.00  0.00    +0.000 OA
ATOM      4  N   UNL     1       5.254   5.143  17.214  0.00  0.00    +0.000 N 
ATOM      5  C   UNL     1       4.964   3.740  17.535  0.00  0.00    +0.000 C 
ATOM      6  C   UNL     1       3.561   3.326  17.151  0.00  0.00    +0.000 C 
ATOM      7  C   UNL     1       2.497   4.166  17.869  0.00  0.00    +0.000 C 
ATOM      8  C   UNL     1       1.205   4.003  17.007  0.00  0.00    +0.000 C 
ATOM      9  C   UNL     1       2.906   5.646  17.852  0.00  0.00    +0.000 A 
ATOM     10  C   UNL     1       1.909   6.575  18.241  0.00  0.00    +0.000 A 
ATOM     11  C   UNL     1       2.116   7.948  18.214  0.00  0.00    +0.000 A 
ATOM     12  C   UNL     1       3.374   8.404  17.846  0.00  0.00    +0.000 A 
ATOM     13  C   UNL     1       4.397   7.491  17.507  0.00  0.00    +0.000 A 
ATOM     14  C   UNL     1       4.201   6.099  17.508  0.00  0.00    +0.000 A 
ENDROOT
BRANCH   7  15
ATOM     15  C   UNL     1       2.312   3.642  19.316  0.00  0.00    +0.000 A 
ATOM     16  C   UNL     1       3.381   3.040  20.012  0.00  0.00    +0.000 A 
ATOM     17  C   UNL     1       3.218   2.517  21.296  0.00  0.00    +0.000 A 
ATOM     18  C   UNL     1       1.980   2.590  21.922  0.00  0.00    +0.000 A 
ATOM     19  C   UNL     1       0.912   3.197  21.268  0.00  0.00    +0.000 A 
ATOM     20  C   UNL     1       1.076   3.714  19.980  0.00  0.00    +0.000 A 
ENDBRANCH   7  15
BRANCH  11  21
ATOM     21  N   UNL     1       1.092   8.873  18.500  0.00  0.00    +0.000 N 
ATOM     22  C   UNL     1       1.192  10.243  18.444  0.00  0.00    +0.000 C 
ATOM     23  O   UNL     1       2.114  10.914  18.004  0.00  0.00    +0.000 OA
ATOM     24  H   UNL     1       0.267   8.538  18.977  0.00  0.00    +0.000 HD
BRANCH  22  25
ATOM     25  O   UNL     1       0.134  10.789  19.102  0.00  0.00    +0.000 OA
BRANCH  25  26
ATOM     26  C   UNL     1       0.426  11.117  20.472  0.00  0.00    +0.000 C 
BRANCH  26  27
ATOM     27  C   UNL     1      -0.326  10.242  21.458  0.00  0.00    +0.000 C 
ATOM     28  C   UNL     1       0.622   9.250  22.193  0.00  0.00    +0.000 C 
ATOM     29  C   UNL     1      -0.243   9.442  23.449  0.00  0.00    +0.000 C 
ATOM     30  C   UNL     1      -0.670  10.805  22.867  0.00  0.00    +0.000 C 
ENDBRANCH  26  27
ENDBRANCH  25  26
ENDBRANCH  22  25
ENDBRANCH  11  21
TORSDOF 5
ENDMDL
MODEL 7
REMARK VINA RESULT:      -7.5      1.645      2.318
REMARK  Name = 
REMARK  7 active torsions:
REMARK  status: ('A' for Active; 'I' for Inactive)
REMARK    1  A    between atoms: C_1  and  C_2
REMARK    2  A    between atoms: C_7  and  C_8
REMARK    3  A    between atoms: C_7  and  C_9
REMARK    4  A    between atoms: C_17  and  N_18
REMARK    5  A    between atoms: C_19  and  O_21
REMARK    6  A    between atoms: O_21  and  C_22
REMARK    7  A    between atoms: C_22  and  C_23
REMARK                            x       y       z     vdW  Elec       q    Type
REMARK                         _______ _______ _______ _____ _____    ______ ____
ROOT
ATOM      1  C   UNL     1       7.276   4.310  16.116  0.00  0.00    +0.000 C 
ATOM      2  C   UNL     1       6.313   5.447  16.400  0.00  0.00    +0.000 C 
ATOM      3  O   UNL     1       6.691   6.589  16.131  0.00  0.00    +0.000 OA
ATOM      4  N   UNL     1       5.057   5.096  16.934  0.00  0.00    +0.000 N 
ATOM      5  C   UNL     1       4.739   3.688  17.207  0.00  0.00    +0.000 C 
ATOM      6  C   UNL     1       3.287   3.352  16.951  0.00  0.00    +0.000 C 
ATOM      7  C   UNL     1       2.342   4.190  17.823  0.00  0.00    +0.000 C 
ATOM      8  C   UNL     1       0.961   4.127  17.094  0.00  0.00    +0.000 C 
ATOM      9  C   UNL     1       2.813   5.651  17.842  0.00  0.00    +0.000 A 
ATOM     10  C   UNL     1       1.903   6.594  18.384  0.00  0.00    +0.000 A 
ATOM     11  C   UNL     1       2.168   7.957  18.409  0.00  0.00    +0.000 A 
ATOM     12  C   UNL     1       3.401   8.385  17.935  0.00  0.00    +0.000 A 
ATOM     13  C   UNL     1       4.341   7.454  17.441  0.00  0.00    +0.000 A 
ATOM     14  C   UNL     1       4.084   6.073  17.388  0.00  0.00    +0.000 A 
ENDROOT
BRANCH   7  15
ATOM     15  C   UNL     1       2.284   3.590  19.251  0.00  0.00    +0.000 A 
ATOM     16  C   UNL     1       1.068   3.533  19.965  0.00  0.00    +0.000 A 
ATOM     17  C   UNL     1       1.007   3.043  21.270  0.00  0.00    +0.000 A 
ATOM     18  C   UNL     1       2.162   2.590  21.895  0.00  0.00    +0.000 A 
ATOM     19  C   UNL     1       3.372   2.615  21.209  0.00  0.00    +0.000 A 
ATOM     20  C   UNL     1       3.433   3.112  19.903  0.00  0.00    +0.000 A 
ENDBRANCH   7  15
BRANCH  11  21
ATOM     21  N   UNL     1       1.221   8.903  18.851  0.00  0.00    +0.000 N 
ATOM     22  C   UNL     1       1.286  10.265  18.675  0.00  0.00    +0.000 C 
ATOM     23  O   UNL     1       2.076  10.899  17.992  0.00  0.00    +0.000 OA
ATOM     24  H   UNL     1       0.529   8.606  19.525  0.00  0.00    +0.000 HD
BRANCH  22  25
ATOM     25  O   UNL     1       0.396  10.860  19.513  0.00  0.00    +0.000 OA
BRANCH  25  26
ATOM     26  C   UNL     1       0.138  10.094  20.704  0.00  0.00    +0.000 C 
BRANCH  26  27
ATOM     27  C   UNL     1      -0.166  10.965  21.908  0.00  0.00    +0.000 C 
ATOM     28  C   UNL     1      -1.434  11.840  21.686  0.00  0.00    +0.000 C 
ATOM     29  C   UNL     1      -1.762  11.642  23.175  0.00  0.00    +0.000 C 
ATOM     30  C   UNL     1      -0.921  10.351  23.121  0.00  0.00    +0.000 C 
ENDBRANCH  26  27
ENDBRANCH  25  26
ENDBRANCH  22  25
ENDBRANCH  11  21
TORSDOF 5
ENDMDL
MODEL 8
REMARK VINA RESULT:      -7.5      2.672      8.495
REMARK  Name = 
REMARK  7 active torsions:
REMARK  status: ('A' for Active; 'I' for Inactive)
REMARK    1  A    between atoms: C_1  and  C_2
REMARK    2  A    between atoms: C_7  and  C_8
REMARK    3  A    between atoms: C_7  and  C_9
REMARK    4  A    between atoms: C_17  and  N_18
REMARK    5  A    between atoms: C_19  and  O_21
REMARK    6  A    between atoms: O_21  and  C_22
REMARK    7  A    between atoms: C_22  and  C_23
REMARK                            x       y       z     vdW  Elec       q    Type
REMARK                         _______ _______ _______ _____ _____    ______ ____
ROOT
ATOM      1  C   UNL     1       1.242  16.265  18.836  0.00  0.00    +0.000 C 
ATOM      2  C   UNL     1       1.766  14.849  18.682  0.00  0.00    +0.000 C 
ATOM      3  O   UNL     1       2.956  14.716  18.392  0.00  0.00    +0.000 OA
ATOM      4  N   UNL     1       0.846  13.805  18.900  0.00  0.00    +0.000 N 
ATOM      5  C   UNL     1      -0.550  14.111  19.241  0.00  0.00    +0.000 C 
ATOM      6  C   UNL     1      -1.152  13.115  20.207  0.00  0.00    +0.000 C 
ATOM      7  C   UNL     1      -1.144  11.689  19.641  0.00  0.00    +0.000 C 
ATOM      8  C   UNL     1      -1.278  10.760  20.890  0.00  0.00    +0.000 C 
ATOM      9  C   UNL     1       0.208  11.405  18.970  0.00  0.00    +0.000 A 
ATOM     10  C   UNL     1       0.467  10.053  18.633  0.00  0.00    +0.000 A 
ATOM     11  C   UNL     1       1.671   9.639  18.079  0.00  0.00    +0.000 A 
ATOM     12  C   UNL     1       2.621  10.612  17.798  0.00  0.00    +0.000 A 
ATOM     13  C   UNL     1       2.359  11.971  18.076  0.00  0.00    +0.000 A 
ATOM     14  C   UNL     1       1.154  12.408  18.655  0.00  0.00    +0.000 A 
ENDROOT
BRANCH   7  15
ATOM     15  C   UNL     1      -2.321  11.517  18.647  0.00  0.00    +0.000 A 
ATOM     16  C   UNL     1      -2.106  11.009  17.349  0.00  0.00    +0.000 A 
ATOM     17  C   UNL     1      -3.147  10.896  16.425  0.00  0.00    +0.000 A 
ATOM     18  C   UNL     1      -4.433  11.281  16.779  0.00  0.00    +0.000 A 
ATOM     19  C   UNL     1      -4.679  11.767  18.059  0.00  0.00    +0.000 A 
ATOM     20  C   UNL     1      -3.635  11.886  18.982  0.00  0.00    +0.000 A 
ENDBRANCH   7  15
BRANCH  11  21
ATOM     21  N   UNL     1       1.968   8.282  17.843  0.00  0.00    +0.000 N 
ATOM     22  C   UNL     1       2.295   7.342  18.791  0.00  0.00    +0.000 C 
ATOM     23  O   UNL     1       2.250   7.451  20.007  0.00  0.00    +0.000 OA
ATOM     24  H   UNL     1       2.158   7.994  16.893  0.00  0.00    +0.000 HD
BRANCH  22  25
ATOM     25  O   UNL     1       2.837   6.259  18.170  0.00  0.00    +0.000 OA
BRANCH  25  26
ATOM     26  C   UNL     1       3.411   5.309  19.085  0.00  0.00    +0.000 C 
BRANCH  26  27
ATOM     27  C   UNL     1       2.719   3.960  19.040  0.00  0.00    +0.000 C 
ATOM     28  C   UNL     1       1.766   3.757  20.254  0.00  0.00    +0.000 C 
ATOM     29  C   UNL     1       0.818   2.998  19.311  0.00  0.00    +0.000 C 
ATOM     30  C   UNL     1       1.460   3.779  18.146  0.00  0.00    +0.000 C 
ENDBRANCH  26  27
ENDBRANCH  25  26
ENDBRANCH  22  25
ENDBRANCH  11  21
TORSDOF 5
ENDMDL
MODEL 9
REMARK VINA RESULT:      -7.4      3.356      9.345
REMARK  Name = 
REMARK  7 active torsions:
REMARK  status: ('A' for Active; 'I' for Inactive)
REMARK    1  A    between atoms: C_1  and  C_2
REMARK    2  A    between atoms: C_7  and  C_8
REMARK    3  A    between atoms: C_7  and  C_9
REMARK    4  A    between atoms: C_17  and  N_18
REMARK    5  A    between atoms: C_19  and  O_21
REMARK    6  A    between atoms: O_21  and  C_22
REMARK    7  A    between atoms: C_22  and  C_23
REMARK                            x       y       z     vdW  Elec       q    Type
REMARK                         _______ _______ _______ _____ _____    ______ ____
ROOT
ATOM      1  C   UNL     1      -3.452  13.737  23.321  0.00  0.00    +0.000 C 
ATOM      2  C   UNL     1      -2.734  12.417  23.112  0.00  0.00    +0.000 C 
ATOM      3  O   UNL     1      -2.991  11.503  23.898  0.00  0.00    +0.000 OA
ATOM      4  N   UNL     1      -1.843  12.346  22.023  0.00  0.00    +0.000 N 
ATOM      5  C   UNL     1      -1.631  13.519  21.165  0.00  0.00    +0.000 C 
ATOM      6  C   UNL     1      -1.408  13.155  19.715  0.00  0.00    +0.000 C 
ATOM      7  C   UNL     1      -0.179  12.253  19.532  0.00  0.00    +0.000 C 
ATOM      8  C   UNL     1      -0.392  11.559  18.148  0.00  0.00    +0.000 C 
ATOM      9  C   UNL     1      -0.165  11.169  20.619  0.00  0.00    +0.000 A 
ATOM     10  C   UNL     1       0.755  10.107  20.431  0.00  0.00    +0.000 A 
ATOM     11  C   UNL     1       0.835   9.027  21.300  0.00  0.00    +0.000 A 
ATOM     12  C   UNL     1       0.016   9.037  22.420  0.00  0.00    +0.000 A 
ATOM     13  C   UNL     1      -0.868  10.113  22.653  0.00  0.00    +0.000 A 
ATOM     14  C   UNL     1      -0.979  11.206  21.775  0.00  0.00    +0.000 A 
ENDROOT
BRANCH   7  15
ATOM     15  C   UNL     1       1.108  13.116  19.568  0.00  0.00    +0.000 A 
ATOM     16  C   UNL     1       1.758  13.500  18.376  0.00  0.00    +0.000 A 
ATOM     17  C   UNL     1       2.946  14.233  18.392  0.00  0.00    +0.000 A 
ATOM     18  C   UNL     1       3.512  14.608  19.604  0.00  0.00    +0.000 A 
ATOM     19  C   UNL     1       2.883  14.261  20.795  0.00  0.00    +0.000 A 
ATOM     20  C   UNL     1       1.697  13.521  20.778  0.00  0.00    +0.000 A 
ENDBRANCH   7  15
BRANCH  11  21
ATOM     21  N   UNL     1       1.675   7.921  21.056  0.00  0.00    +0.000 N 
ATOM     22  C   UNL     1       2.174   7.531  19.836  0.00  0.00    +0.000 C 
ATOM     23  O   UNL     1       2.118   8.129  18.772  0.00  0.00    +0.000 OA
ATOM     24  H   UNL     1       1.773   7.227  21.783  0.00  0.00    +0.000 HD
BRANCH  22  25
ATOM     25  O   UNL     1       2.647   6.260  19.940  0.00  0.00    +0.000 OA
BRANCH  25  26
ATOM     26  C   UNL     1       1.786   5.396  20.703  0.00  0.00    +0.000 C 
BRANCH  26  27
ATOM     27  C   UNL     1       1.994   3.928  20.383  0.00  0.00    +0.000 C 
ATOM     28  C   UNL     1       0.645   3.191  20.134  0.00  0.00    +0.000 C 
ATOM     29  C   UNL     1       1.364   2.354  19.064  0.00  0.00    +0.000 C 
ATOM     30  C   UNL     1       2.377   3.511  18.934  0.00  0.00    +0.000 C 
ENDBRANCH  26  27
ENDBRANCH  25  26
ENDBRANCH  22  25
ENDBRANCH  11  21
TORSDOF 5
ENDMDL
