MODEL 1
REMARK VINA RESULT:      -7.4      0.000      0.000
REMARK  Name = 
REMARK  9 active torsions:
REMARK  status: ('A' for Active; 'I' for Inactive)
REMARK    1  A    between atoms: C_1  and  C_2
REMARK    2  A    between atoms: C_5  and  S_6
REMARK    3  A    between atoms: S_6  and  N_9
REMARK    4  A    between atoms: C_13  and  C_15
REMARK    5  A    between atoms: C_15  and  O_16
REMARK    6  A    between atoms: O_16  and  C_17
REMARK    7  A    between atoms: C_17  and  C_19
REMARK    8  A    between atoms: C_22  and  C_23
REMARK    9  A    between atoms: C_28  and  C_29
REMARK                            x       y       z     vdW  Elec       q    Type
REMARK                         _______ _______ _______ _____ _____    ______ ____
ROOT
ATOM      1  N   UNL     1      -0.750  10.488  19.262  0.00  0.00    +0.000 NA
ATOM      2  C   UNL     1      -0.038   9.964  18.067  0.00  0.00    +0.000 C 
ATOM      3  C   UNL     1       1.457   9.907  18.370  0.00  0.00    +0.000 C 
ATOM      4  N   UNL     1       1.664   8.909  19.417  0.00  0.00    +0.000 N 
ATOM      5  C   UNL     1       2.167   7.679  19.020  0.00  0.00    +0.000 C 
ATOM      6  O   UNL     1       2.504   7.484  17.846  0.00  0.00    +0.000 OA
ATOM      7  C   UNL     1       0.999   9.254  20.686  0.00  0.00    +0.000 C 
ATOM      8  C   UNL     1      -0.469   9.742  20.523  0.00  0.00    +0.000 C 
ENDROOT
BRANCH   1   9
ATOM      9  S   UNL     1      -1.027  12.158  19.300  0.00  0.00    +0.000 S 
ATOM     10  O   UNL     1      -0.830  12.653  17.956  0.00  0.00    +0.000 OA
ATOM     11  O   UNL     1      -0.325  12.744  20.421  0.00  0.00    +0.000 OA
BRANCH   9  16
ATOM     12  C   UNL     1      -6.968  12.733  20.574  0.00  0.00    +0.000 C 
ATOM     13  C   UNL     1      -5.509  12.527  20.288  0.00  0.00    +0.000 A 
ATOM     14  C   UNL     1      -4.531  12.914  21.207  0.00  0.00    +0.000 A 
ATOM     15  C   UNL     1      -3.175  12.754  20.900  0.00  0.00    +0.000 A 
ATOM     16  C   UNL     1      -2.783  12.207  19.669  0.00  0.00    +0.000 A 
ATOM     17  C   UNL     1      -3.754  11.783  18.740  0.00  0.00    +0.000 A 
ATOM     18  C   UNL     1      -3.468  11.169  17.398  0.00  0.00    +0.000 C 
ATOM     19  C   UNL     1      -5.112  11.954  19.073  0.00  0.00    +0.000 A 
ENDBRANCH   9  16
ENDBRANCH   1   9
BRANCH   5  20
ATOM     20  C   UNL     1       2.338   6.559  20.043  0.00  0.00    +0.000 C 
BRANCH  20  21
ATOM     21  O   UNL     1       1.967   5.289  19.495  0.00  0.00    +0.000 OA
BRANCH  21  22
ATOM     22  C   UNL     1       2.846   4.285  19.758  0.00  0.00    +0.000 C 
ATOM     23  O   UNL     1       2.783   3.522  20.712  0.00  0.00    +0.000 OA
BRANCH  22  24
ATOM     24  C   UNL     1       3.956   4.284  18.769  0.00  0.00    +0.000 A 
ATOM     25  C   UNL     1       5.266   4.365  19.223  0.00  0.00    +0.000 A 
ATOM     26  N   UNL     1       6.326   4.480  18.379  0.00  0.00    +0.000 NA
ATOM     27  C   UNL     1       6.031   4.493  17.055  0.00  0.00    +0.000 A 
ATOM     28  C   UNL     1       7.155   4.660  16.080  0.00  0.00    +0.000 C 
ATOM     29  C   UNL     1       4.721   4.358  16.606  0.00  0.00    +0.000 A 
ATOM     30  N   UNL     1       3.660   4.269  17.441  0.00  0.00    +0.000 NA
ENDBRANCH  22  24
ENDBRANCH  21  22
ENDBRANCH  20  21
ENDBRANCH   5  20
TORSDOF 6
ENDMDL
MODEL 2
REMARK VINA RESULT:      -7.2      3.882      9.978
REMARK  Name = 
REMARK  9 active torsions:
REMARK  status: ('A' for Active; 'I' for Inactive)
REMARK    1  A    between atoms: C_1  and  C_2
REMARK    2  A    between atoms: C_5  and  S_6
REMARK    3  A    between atoms: S_6  and  N_9
REMARK    4  A    between atoms: C_13  and  C_15
REMARK    5  A    between atoms: C_15  and  O_16
REMARK    6  A    between atoms: O_16  and  C_17
REMARK    7  A    between atoms: C_17  and  C_19
REMARK    8  A    between atoms: C_22  and  C_23
REMARK    9  A    between atoms: C_28  and  C_29
REMARK                            x       y       z     vdW  Elec       q    Type
REMARK                         _______ _______ _______ _____ _____    ______ ____
ROOT
ATOM      1  N   UNL     1       4.269   5.429  18.842  0.00  0.00    +0.000 NA
ATOM      2  C   UNL     1       4.130   6.513  17.834  0.00  0.00    +0.000 C 
ATOM      3  C   UNL     1       2.645   6.747  17.565  0.00  0.00    +0.000 C 
ATOM      4  N   UNL     1       2.046   7.272  18.790  0.00  0.00    +0.000 N 
ATOM      5  C   UNL     1       1.780   8.633  18.824  0.00  0.00    +0.000 C 
ATOM      6  O   UNL     1       1.966   9.338  17.825  0.00  0.00    +0.000 OA
ATOM      7  C   UNL     1       2.116   6.329  19.920  0.00  0.00    +0.000 C 
ATOM      8  C   UNL     1       3.507   5.659  20.104  0.00  0.00    +0.000 C 
ENDROOT
BRANCH   1   9
ATOM      9  S   UNL     1       4.467   3.860  18.235  0.00  0.00    +0.000 S 
ATOM     10  O   UNL     1       3.169   3.412  17.782  0.00  0.00    +0.000 OA
ATOM     11  O   UNL     1       5.245   3.072  19.166  0.00  0.00    +0.000 OA
BRANCH   9  16
ATOM     12  C   UNL     1       7.685   5.223  13.232  0.00  0.00    +0.000 C 
ATOM     13  C   UNL     1       6.921   4.824  14.460  0.00  0.00    +0.000 A 
ATOM     14  C   UNL     1       5.627   4.306  14.370  0.00  0.00    +0.000 A 
ATOM     15  C   UNL     1       4.916   3.983  15.531  0.00  0.00    +0.000 A 
ATOM     16  C   UNL     1       5.492   4.175  16.795  0.00  0.00    +0.000 A 
ATOM     17  C   UNL     1       6.807   4.669  16.909  0.00  0.00    +0.000 A 
ATOM     18  C   UNL     1       7.543   4.905  18.197  0.00  0.00    +0.000 C 
ATOM     19  C   UNL     1       7.502   4.986  15.725  0.00  0.00    +0.000 A 
ENDBRANCH   9  16
ENDBRANCH   1   9
BRANCH   5  20
ATOM     20  C   UNL     1       1.226   9.269  20.097  0.00  0.00    +0.000 C 
BRANCH  20  21
ATOM     21  O   UNL     1       0.581  10.517  19.819  0.00  0.00    +0.000 OA
BRANCH  21  22
ATOM     22  C   UNL     1       0.844  11.500  20.721  0.00  0.00    +0.000 C 
ATOM     23  O   UNL     1       0.396  11.556  21.858  0.00  0.00    +0.000 OA
BRANCH  22  24
ATOM     24  C   UNL     1       1.694  12.557  20.113  0.00  0.00    +0.000 A 
ATOM     25  C   UNL     1       1.705  12.706  18.733  0.00  0.00    +0.000 A 
ATOM     26  N   UNL     1       2.536  13.574  18.097  0.00  0.00    +0.000 NA
ATOM     27  C   UNL     1       3.351  14.308  18.897  0.00  0.00    +0.000 A 
ATOM     28  C   UNL     1       4.318  15.250  18.249  0.00  0.00    +0.000 C 
ATOM     29  C   UNL     1       3.297  14.191  20.282  0.00  0.00    +0.000 A 
ATOM     30  N   UNL     1       2.490  13.312  20.918  0.00  0.00    +0.000 NA
ENDBRANCH  22  24
ENDBRANCH  21  22
ENDBRANCH  20  21
ENDBRANCH   5  20
TORSDOF 6
ENDMDL
MODEL 3
REMARK VINA RESULT:      -7.2      1.277      1.815
REMARK  Name = 
REMARK  9 active torsions:
REMARK  status: ('A' for Active; 'I' for Inactive)
REMARK    1  A    between atoms: C_1  and  C_2
REMARK    2  A    between atoms: C_5  and  S_6
REMARK    3  A    between atoms: S_6  and  N_9
REMARK    4  A    between atoms: C_13  and  C_15
REMARK    5  A    between atoms: C_15  and  O_16
REMARK    6  A    between atoms: O_16  and  C_17
REMARK    7  A    between atoms: C_17  and  C_19
REMARK    8  A    between atoms: C_22  and  C_23
REMARK    9  A    between atoms: C_28  and  C_29
REMARK                            x       y       z     vdW  Elec       q    Type
REMARK                         _______ _______ _______ _____ _____    ______ ____
ROOT
ATOM      1  N   UNL     1      -0.072  10.322  19.478  0.00  0.00    +0.000 NA
ATOM      2  C   UNL     1       0.512   9.692  18.265  0.00  0.00    +0.000 C 
ATOM      3  C   UNL     1       1.958   9.299  18.562  0.00  0.00    +0.000 C 
ATOM      4  N   UNL     1       1.935   8.247  19.576  0.00  0.00    +0.000 N 
ATOM      5  C   UNL     1       2.158   6.950  19.139  0.00  0.00    +0.000 C 
ATOM      6  O   UNL     1       2.449   6.722  17.958  0.00  0.00    +0.000 OA
ATOM      7  C   UNL     1       1.357   8.689  20.857  0.00  0.00    +0.000 C 
ATOM      8  C   UNL     1       0.033   9.492  20.714  0.00  0.00    +0.000 C 
ENDROOT
BRANCH   1   9
ATOM      9  S   UNL     1       0.025  12.009  19.570  0.00  0.00    +0.000 S 
ATOM     10  O   UNL     1      -0.532  12.536  18.344  0.00  0.00    +0.000 OA
ATOM     11  O   UNL     1       1.344  12.400  20.018  0.00  0.00    +0.000 OA
BRANCH   9  16
ATOM     12  C   UNL     1      -3.724  13.533  24.139  0.00  0.00    +0.000 C 
ATOM     13  C   UNL     1      -2.811  13.091  23.033  0.00  0.00    +0.000 A 
ATOM     14  C   UNL     1      -1.430  13.010  23.226  0.00  0.00    +0.000 A 
ATOM     15  C   UNL     1      -0.592  12.640  22.169  0.00  0.00    +0.000 A 
ATOM     16  C   UNL     1      -1.127  12.347  20.905  0.00  0.00    +0.000 A 
ATOM     17  C   UNL     1      -2.520  12.394  20.696  0.00  0.00    +0.000 A 
ATOM     18  C   UNL     1      -3.219  12.090  19.401  0.00  0.00    +0.000 C 
ATOM     19  C   UNL     1      -3.341  12.769  21.777  0.00  0.00    +0.000 A 
ENDBRANCH   9  16
ENDBRANCH   1   9
BRANCH   5  20
ATOM     20  C   UNL     1       2.074   5.788  20.125  0.00  0.00    +0.000 C 
BRANCH  20  21
ATOM     21  O   UNL     1       1.889   4.539  19.448  0.00  0.00    +0.000 OA
BRANCH  21  22
ATOM     22  C   UNL     1       2.868   3.624  19.678  0.00  0.00    +0.000 C 
ATOM     23  O   UNL     1       2.872   2.805  20.587  0.00  0.00    +0.000 OA
BRANCH  22  24
ATOM     24  C   UNL     1       3.990   3.802  18.719  0.00  0.00    +0.000 A 
ATOM     25  C   UNL     1       5.240   4.168  19.201  0.00  0.00    +0.000 A 
ATOM     26  N   UNL     1       6.285   4.456  18.380  0.00  0.00    +0.000 NA
ATOM     27  C   UNL     1       6.041   4.346  17.049  0.00  0.00    +0.000 A 
ATOM     28  C   UNL     1       7.143   4.691  16.096  0.00  0.00    +0.000 C 
ATOM     29  C   UNL     1       4.801   3.927  16.576  0.00  0.00    +0.000 A 
ATOM     30  N   UNL     1       3.751   3.663  17.387  0.00  0.00    +0.000 NA
ENDBRANCH  22  24
ENDBRANCH  21  22
ENDBRANCH  20  21
ENDBRANCH   5  20
TORSDOF 6
ENDMDL
MODEL 4
REMARK VINA RESULT:      -7.2      2.747     10.147
REMARK  Name = 
REMARK  9 active torsions:
REMARK  status: ('A' for Active; 'I' for Inactive)
REMARK    1  A    between atoms: C_1  and  C_2
REMARK    2  A    between atoms: C_5  and  S_6
REMARK    3  A    between atoms: S_6  and  N_9
REMARK    4  A    between atoms: C_13  and  C_15
REMARK    5  A    between atoms: C_15  and  O_16
REMARK    6  A    between atoms: O_16  and  C_17
REMARK    7  A    between atoms: C_17  and  C_19
REMARK    8  A    between atoms: C_22  and  C_23
REMARK    9  A    between atoms: C_28  and  C_29
REMARK                            x       y       z     vdW  Elec       q    Type
REMARK                         _______ _______ _______ _____ _____    ______ ____
ROOT
ATOM      1  N   UNL     1       4.307   5.357  18.760  0.00  0.00    +0.000 NA
ATOM      2  C   UNL     1       4.148   6.475  17.792  0.00  0.00    +0.000 C 
ATOM      3  C   UNL     1       2.659   6.747  17.595  0.00  0.00    +0.000 C 
ATOM      4  N   UNL     1       2.124   7.246  18.861  0.00  0.00    +0.000 N 
ATOM      5  C   UNL     1       1.890   8.610  18.948  0.00  0.00    +0.000 C 
ATOM      6  O   UNL     1       2.048   9.342  17.963  0.00  0.00    +0.000 OA
ATOM      7  C   UNL     1       2.222   6.267  19.957  0.00  0.00    +0.000 C 
ATOM      8  C   UNL     1       3.605   5.563  20.060  0.00  0.00    +0.000 C 
ENDROOT
BRANCH   1   9
ATOM      9  S   UNL     1       4.445   3.805  18.098  0.00  0.00    +0.000 S 
ATOM     10  O   UNL     1       3.130   3.421  17.633  0.00  0.00    +0.000 OA
ATOM     11  O   UNL     1       5.194   2.955  18.998  0.00  0.00    +0.000 OA
BRANCH   9  16
ATOM     12  C   UNL     1       7.697   5.211  13.129  0.00  0.00    +0.000 C 
ATOM     13  C   UNL     1       6.925   4.800  14.349  0.00  0.00    +0.000 A 
ATOM     14  C   UNL     1       5.626   4.295  14.245  0.00  0.00    +0.000 A 
ATOM     15  C   UNL     1       4.907   3.962  15.398  0.00  0.00    +0.000 A 
ATOM     16  C   UNL     1       5.479   4.131  16.668  0.00  0.00    +0.000 A 
ATOM     17  C   UNL     1       6.798   4.611  16.794  0.00  0.00    +0.000 A 
ATOM     18  C   UNL     1       7.530   4.822  18.089  0.00  0.00    +0.000 C 
ATOM     19  C   UNL     1       7.501   4.939  15.618  0.00  0.00    +0.000 A 
ENDBRANCH   9  16
ENDBRANCH   1   9
BRANCH   5  20
ATOM     20  C   UNL     1       1.405   9.218  20.262  0.00  0.00    +0.000 C 
BRANCH  20  21
ATOM     21  O   UNL     1      -0.013   9.418  20.254  0.00  0.00    +0.000 OA
BRANCH  21  22
ATOM     22  C   UNL     1      -0.397  10.719  20.165  0.00  0.00    +0.000 C 
ATOM     23  O   UNL     1      -0.047  11.614  20.922  0.00  0.00    +0.000 OA
BRANCH  22  24
ATOM     24  C   UNL     1      -1.379  10.904  19.063  0.00  0.00    +0.000 A 
ATOM     25  C   UNL     1      -2.441  11.779  19.244  0.00  0.00    +0.000 A 
ATOM     26  N   UNL     1      -3.437  11.919  18.328  0.00  0.00    +0.000 NA
ATOM     27  C   UNL     1      -3.323  11.161  17.208  0.00  0.00    +0.000 A 
ATOM     28  C   UNL     1      -4.413  11.242  16.185  0.00  0.00    +0.000 C 
ATOM     29  C   UNL     1      -2.229  10.325  17.011  0.00  0.00    +0.000 A 
ATOM     30  N   UNL     1      -1.248  10.163  17.929  0.00  0.00    +0.000 NA
ENDBRANCH  22  24
ENDBRANCH  21  22
ENDBRANCH  20  21
ENDBRANCH   5  20
TORSDOF 6
ENDMDL
MODEL 5
REMARK VINA RESULT:      -7.1      2.618     10.247
REMARK  Name = 
REMARK  9 active torsions:
REMARK  status: ('A' for Active; 'I' for Inactive)
REMARK    1  A    between atoms: C_1  and  C_2
REMARK    2  A    between atoms: C_5  and  S_6
REMARK    3  A    between atoms: S_6  and  N_9
REMARK    4  A    between atoms: C_13  and  C_15
REMARK    5  A    between atoms: C_15  and  O_16
REMARK    6  A    between atoms: O_16  and  C_17
REMARK    7  A    between atoms: C_17  and  C_19
REMARK    8  A    between atoms: C_22  and  C_23
REMARK    9  A    between atoms: C_28  and  C_29
REMARK                            x       y       z     vdW  Elec       q    Type
REMARK                         _______ _______ _______ _____ _____    ______ ____
ROOT
ATOM      1  N   UNL     1       4.344   5.605  18.898  0.00  0.00    +0.000 NA
ATOM      2  C   UNL     1       4.308   6.623  17.815  0.00  0.00    +0.000 C 
ATOM      3  C   UNL     1       2.857   6.831  17.384  0.00  0.00    +0.000 C 
ATOM      4  N   UNL     1       2.139   7.430  18.507  0.00  0.00    +0.000 N 
ATOM      5  C   UNL     1       1.873   8.789  18.429  0.00  0.00    +0.000 C 
ATOM      6  O   UNL     1       2.159   9.430  17.410  0.00  0.00    +0.000 OA
ATOM      7  C   UNL     1       2.094   6.560  19.696  0.00  0.00    +0.000 C 
ATOM      8  C   UNL     1       3.459   5.910  20.060  0.00  0.00    +0.000 C 
ENDROOT
BRANCH   1   9
ATOM      9  S   UNL     1       4.600   4.003  18.415  0.00  0.00    +0.000 S 
ATOM     10  O   UNL     1       3.312   3.456  18.049  0.00  0.00    +0.000 OA
ATOM     11  O   UNL     1       5.447   3.332  19.377  0.00  0.00    +0.000 OA
BRANCH   9  16
ATOM     12  C   UNL     1       7.589   5.113  13.212  0.00  0.00    +0.000 C 
ATOM     13  C   UNL     1       6.882   4.775  14.491  0.00  0.00    +0.000 A 
ATOM     14  C   UNL     1       5.582   4.263  14.484  0.00  0.00    +0.000 A 
ATOM     15  C   UNL     1       4.924   3.998  15.690  0.00  0.00    +0.000 A 
ATOM     16  C   UNL     1       5.559   4.244  16.917  0.00  0.00    +0.000 A 
ATOM     17  C   UNL     1       6.880   4.733  16.947  0.00  0.00    +0.000 A 
ATOM     18  C   UNL     1       7.676   5.022  18.188  0.00  0.00    +0.000 C 
ATOM     19  C   UNL     1       7.521   4.990  15.719  0.00  0.00    +0.000 A 
ENDBRANCH   9  16
ENDBRANCH   1   9
BRANCH   5  20
ATOM     20  C   UNL     1       1.195   9.501  19.596  0.00  0.00    +0.000 C 
BRANCH  20  21
ATOM     21  O   UNL     1       0.944  10.878  19.294  0.00  0.00    +0.000 OA
BRANCH  21  22
ATOM     22  C   UNL     1      -0.055  11.442  20.024  0.00  0.00    +0.000 C 
ATOM     23  O   UNL     1       0.053  11.857  21.169  0.00  0.00    +0.000 OA
BRANCH  22  24
ATOM     24  C   UNL     1      -1.337  11.413  19.271  0.00  0.00    +0.000 A 
ATOM     25  C   UNL     1      -1.361  10.857  17.999  0.00  0.00    +0.000 A 
ATOM     26  N   UNL     1      -2.466  10.892  17.206  0.00  0.00    +0.000 NA
ATOM     27  C   UNL     1      -3.560  11.491  17.742  0.00  0.00    +0.000 A 
ATOM     28  C   UNL     1      -4.793  11.596  16.898  0.00  0.00    +0.000 C 
ATOM     29  C   UNL     1      -3.544  11.998  19.037  0.00  0.00    +0.000 A 
ATOM     30  N   UNL     1      -2.441  11.988  19.820  0.00  0.00    +0.000 NA
ENDBRANCH  22  24
ENDBRANCH  21  22
ENDBRANCH  20  21
ENDBRANCH   5  20
TORSDOF 6
ENDMDL
MODEL 6
REMARK VINA RESULT:      -7.1      1.178      1.964
REMARK  Name = 
REMARK  9 active torsions:
REMARK  status: ('A' for Active; 'I' for Inactive)
REMARK    1  A    between atoms: C_1  and  C_2
REMARK    2  A    between atoms: C_5  and  S_6
REMARK    3  A    between atoms: S_6  and  N_9
REMARK    4  A    between atoms: C_13  and  C_15
REMARK    5  A    between atoms: C_15  and  O_16
REMARK    6  A    between atoms: O_16  and  C_17
REMARK    7  A    between atoms: C_17  and  C_19
REMARK    8  A    between atoms: C_22  and  C_23
REMARK    9  A    between atoms: C_28  and  C_29
REMARK                            x       y       z     vdW  Elec       q    Type
REMARK                         _______ _______ _______ _____ _____    ______ ____
ROOT
ATOM      1  N   UNL     1      -0.129  10.128  20.029  0.00  0.00    +0.000 NA
ATOM      2  C   UNL     1       0.376   9.577  18.743  0.00  0.00    +0.000 C 
ATOM      3  C   UNL     1       1.838   9.174  18.923  0.00  0.00    +0.000 C 
ATOM      4  N   UNL     1       1.882   8.061  19.869  0.00  0.00    +0.000 N 
ATOM      5  C   UNL     1       2.078   6.794  19.340  0.00  0.00    +0.000 C 
ATOM      6  O   UNL     1       2.292   6.641  18.131  0.00  0.00    +0.000 OA
ATOM      7  C   UNL     1       1.388   8.422  21.210  0.00  0.00    +0.000 C 
ATOM      8  C   UNL     1       0.057   9.225  21.202  0.00  0.00    +0.000 C 
ENDROOT
BRANCH   1   9
ATOM      9  S   UNL     1      -0.029  11.807  20.217  0.00  0.00    +0.000 S 
ATOM     10  O   UNL     1       0.308  12.362  18.925  0.00  0.00    +0.000 OA
ATOM     11  O   UNL     1       0.755  12.121  21.391  0.00  0.00    +0.000 OA
BRANCH   9  16
ATOM     12  C   UNL     1      -5.948  12.820  21.310  0.00  0.00    +0.000 C 
ATOM     13  C   UNL     1      -4.484  12.640  21.036  0.00  0.00    +0.000 A 
ATOM     14  C   UNL     1      -4.011  12.439  19.737  0.00  0.00    +0.000 A 
ATOM     15  C   UNL     1      -2.647  12.228  19.509  0.00  0.00    +0.000 A 
ATOM     16  C   UNL     1      -1.740  12.215  20.579  0.00  0.00    +0.000 A 
ATOM     17  C   UNL     1      -2.191  12.445  21.894  0.00  0.00    +0.000 A 
ATOM     18  C   UNL     1      -1.324  12.472  23.121  0.00  0.00    +0.000 C 
ATOM     19  C   UNL     1      -3.569  12.655  22.097  0.00  0.00    +0.000 A 
ENDBRANCH   9  16
ENDBRANCH   1   9
BRANCH   5  20
ATOM     20  C   UNL     1       2.060   5.574  20.257  0.00  0.00    +0.000 C 
BRANCH  20  21
ATOM     21  O   UNL     1       2.097   4.355  19.506  0.00  0.00    +0.000 OA
BRANCH  21  22
ATOM     22  C   UNL     1       3.228   3.620  19.682  0.00  0.00    +0.000 C 
ATOM     23  O   UNL     1       3.419   2.822  20.588  0.00  0.00    +0.000 OA
BRANCH  22  24
ATOM     24  C   UNL     1       4.250   3.977  18.663  0.00  0.00    +0.000 A 
ATOM     25  C   UNL     1       3.950   3.815  17.317  0.00  0.00    +0.000 A 
ATOM     26  N   UNL     1       4.867   4.014  16.333  0.00  0.00    +0.000 NA
ATOM     27  C   UNL     1       6.101   4.403  16.744  0.00  0.00    +0.000 A 
ATOM     28  C   UNL     1       7.164   4.596  15.707  0.00  0.00    +0.000 C 
ATOM     29  C   UNL     1       6.380   4.615  18.090  0.00  0.00    +0.000 A 
ATOM     30  N   UNL     1       5.478   4.393  19.075  0.00  0.00    +0.000 NA
ENDBRANCH  22  24
ENDBRANCH  21  22
ENDBRANCH  20  21
ENDBRANCH   5  20
TORSDOF 6
ENDMDL
MODEL 7
REMARK VINA RESULT:      -7.0      2.899     10.370
REMARK  Name = 
REMARK  9 active torsions:
REMARK  status: ('A' for Active; 'I' for Inactive)
REMARK    1  A    between atoms: C_1  and  C_2
REMARK    2  A    between atoms: C_5  and  S_6
REMARK    3  A    between atoms: S_6  and  N_9
REMARK    4  A    between atoms: C_13  and  C_15
REMARK    5  A    between atoms: C_15  and  O_16
REMARK    6  A    between atoms: O_16  and  C_17
REMARK    7  A    between atoms: C_17  and  C_19
REMARK    8  A    between atoms: C_22  and  C_23
REMARK    9  A    between atoms: C_28  and  C_29
REMARK                            x       y       z     vdW  Elec       q    Type
REMARK                         _______ _______ _______ _____ _____    ______ ____
ROOT
ATOM      1  N   UNL     1       4.250   5.598  19.036  0.00  0.00    +0.000 NA
ATOM      2  C   UNL     1       4.302   6.629  17.966  0.00  0.00    +0.000 C 
ATOM      3  C   UNL     1       2.892   6.839  17.417  0.00  0.00    +0.000 C 
ATOM      4  N   UNL     1       2.080   7.422  18.483  0.00  0.00    +0.000 N 
ATOM      5  C   UNL     1       1.817   8.781  18.400  0.00  0.00    +0.000 C 
ATOM      6  O   UNL     1       2.185   9.437  17.417  0.00  0.00    +0.000 OA
ATOM      7  C   UNL     1       1.938   6.537  19.653  0.00  0.00    +0.000 C 
ATOM      8  C   UNL     1       3.270   5.886  20.123  0.00  0.00    +0.000 C 
ENDROOT
BRANCH   1   9
ATOM      9  S   UNL     1       4.551   4.002  18.556  0.00  0.00    +0.000 S 
ATOM     10  O   UNL     1       3.281   3.424  18.177  0.00  0.00    +0.000 OA
ATOM     11  O   UNL     1       5.405   3.353  19.527  0.00  0.00    +0.000 OA
BRANCH   9  16
ATOM     12  C   UNL     1       7.571   5.191  13.388  0.00  0.00    +0.000 C 
ATOM     13  C   UNL     1       6.856   4.834  14.658  0.00  0.00    +0.000 A 
ATOM     14  C   UNL     1       5.562   4.310  14.636  0.00  0.00    +0.000 A 
ATOM     15  C   UNL     1       4.897   4.027  15.834  0.00  0.00    +0.000 A 
ATOM     16  C   UNL     1       5.519   4.267  17.068  0.00  0.00    +0.000 A 
ATOM     17  C   UNL     1       6.836   4.768  17.113  0.00  0.00    +0.000 A 
ATOM     18  C   UNL     1       7.619   5.054  18.363  0.00  0.00    +0.000 C 
ATOM     19  C   UNL     1       7.483   5.044  15.893  0.00  0.00    +0.000 A 
ENDBRANCH   9  16
ENDBRANCH   1   9
BRANCH   5  20
ATOM     20  C   UNL     1       1.041   9.477  19.515  0.00  0.00    +0.000 C 
BRANCH  20  21
ATOM     21  O   UNL     1       1.533  10.802  19.747  0.00  0.00    +0.000 OA
BRANCH  21  22
ATOM     22  C   UNL     1       0.636  11.790  19.483  0.00  0.00    +0.000 C 
ATOM     23  O   UNL     1       0.681  12.551  18.527  0.00  0.00    +0.000 OA
BRANCH  22  24
ATOM     24  C   UNL     1      -0.378  11.882  20.567  0.00  0.00    +0.000 A 
ATOM     25  C   UNL     1      -1.702  12.139  20.234  0.00  0.00    +0.000 A 
ATOM     26  N   UNL     1      -2.665  12.345  21.172  0.00  0.00    +0.000 NA
ATOM     27  C   UNL     1      -2.259  12.267  22.465  0.00  0.00    +0.000 A 
ATOM     28  C   UNL     1      -3.268  12.528  23.540  0.00  0.00    +0.000 C 
ATOM     29  C   UNL     1      -0.942  11.957  22.790  0.00  0.00    +0.000 A 
ATOM     30  N   UNL     1       0.025  11.775  21.862  0.00  0.00    +0.000 NA
ENDBRANCH  22  24
ENDBRANCH  21  22
ENDBRANCH  20  21
ENDBRANCH   5  20
TORSDOF 6
ENDMDL
MODEL 8
REMARK VINA RESULT:      -7.0      1.808      2.248
REMARK  Name = 
REMARK  9 active torsions:
REMARK  status: ('A' for Active; 'I' for Inactive)
REMARK    1  A    between atoms: C_1  and  C_2
REMARK    2  A    between atoms: C_5  and  S_6
REMARK    3  A    between atoms: S_6  and  N_9
REMARK    4  A    between atoms: C_13  and  C_15
REMARK    5  A    between atoms: C_15  and  O_16
REMARK    6  A    between atoms: O_16  and  C_17
REMARK    7  A    between atoms: C_17  and  C_19
REMARK    8  A    between atoms: C_22  and  C_23
REMARK    9  A    between atoms: C_28  and  C_29
REMARK                            x       y       z     vdW  Elec       q    Type
REMARK                         _______ _______ _______ _____ _____    ______ ____
ROOT
ATOM      1  N   UNL     1      -1.168  11.129  21.527  0.00  0.00    +0.000 NA
ATOM      2  C   UNL     1      -0.748  11.039  20.103  0.00  0.00    +0.000 C 
ATOM      3  C   UNL     1       0.773  10.913  20.048  0.00  0.00    +0.000 C 
ATOM      4  N   UNL     1       1.138   9.630  20.644  0.00  0.00    +0.000 N 
ATOM      5  C   UNL     1       1.483   8.608  19.772  0.00  0.00    +0.000 C 
ATOM      6  O   UNL     1       1.559   8.815  18.555  0.00  0.00    +0.000 OA
ATOM      7  C   UNL     1       0.768   9.527  22.067  0.00  0.00    +0.000 C 
ATOM      8  C   UNL     1      -0.673  10.015  22.387  0.00  0.00    +0.000 C 
ENDROOT
BRANCH   1   9
ATOM      9  S   UNL     1      -1.342  12.688  22.162  0.00  0.00    +0.000 S 
ATOM     10  O   UNL     1      -1.200  13.616  21.062  0.00  0.00    +0.000 OA
ATOM     11  O   UNL     1      -0.539  12.821  23.358  0.00  0.00    +0.000 OA
BRANCH   9  16
ATOM     12  C   UNL     1      -7.133  12.957  24.073  0.00  0.00    +0.000 C 
ATOM     13  C   UNL     1      -5.716  12.821  23.596  0.00  0.00    +0.000 A 
ATOM     14  C   UNL     1      -4.662  12.663  24.500  0.00  0.00    +0.000 A 
ATOM     15  C   UNL     1      -3.345  12.585  24.036  0.00  0.00    +0.000 A 
ATOM     16  C   UNL     1      -3.066  12.665  22.664  0.00  0.00    +0.000 A 
ATOM     17  C   UNL     1      -4.117  12.795  21.733  0.00  0.00    +0.000 A 
ATOM     18  C   UNL     1      -3.956  12.876  20.241  0.00  0.00    +0.000 C 
ATOM     19  C   UNL     1      -5.434  12.871  22.225  0.00  0.00    +0.000 A 
ENDBRANCH   9  16
ENDBRANCH   1   9
BRANCH   5  20
ATOM     20  C   UNL     1       1.801   7.217  20.316  0.00  0.00    +0.000 C 
BRANCH  20  21
ATOM     21  O   UNL     1       3.047   6.729  19.807  0.00  0.00    +0.000 OA
BRANCH  21  22
ATOM     22  C   UNL     1       3.129   5.374  19.723  0.00  0.00    +0.000 C 
ATOM     23  O   UNL     1       2.542   4.584  20.449  0.00  0.00    +0.000 OA
BRANCH  22  24
ATOM     24  C   UNL     1       4.102   4.970  18.674  0.00  0.00    +0.000 A 
ATOM     25  C   UNL     1       5.455   5.202  18.881  0.00  0.00    +0.000 A 
ATOM     26  N   UNL     1       6.393   4.961  17.926  0.00  0.00    +0.000 NA
ATOM     27  C   UNL     1       5.929   4.460  16.753  0.00  0.00    +0.000 A 
ATOM     28  C   UNL     1       6.911   4.215  15.649  0.00  0.00    +0.000 C 
ATOM     29  C   UNL     1       4.578   4.180  16.572  0.00  0.00    +0.000 A 
ATOM     30  N   UNL     1       3.638   4.441  17.509  0.00  0.00    +0.000 NA
ENDBRANCH  22  24
ENDBRANCH  21  22
ENDBRANCH  20  21
ENDBRANCH   5  20
TORSDOF 6
ENDMDL
MODEL 9
REMARK VINA RESULT:      -6.9      3.535      9.944
REMARK  Name = 
REMARK  9 active torsions:
REMARK  status: ('A' for Active; 'I' for Inactive)
REMARK    1  A    between atoms: C_1  and  C_2
REMARK    2  A    between atoms: C_5  and  S_6
REMARK    3  A    between atoms: S_6  and  N_9
REMARK    4  A    between atoms: C_13  and  C_15
REMARK    5  A    between atoms: C_15  and  O_16
REMARK    6  A    between atoms: O_16  and  C_17
REMARK    7  A    between atoms: C_17  and  C_19
REMARK    8  A    between atoms: C_22  and  C_23
REMARK    9  A    between atoms: C_28  and  C_29
REMARK                            x       y       z     vdW  Elec       q    Type
REMARK                         _______ _______ _______ _____ _____    ______ ____
ROOT
ATOM      1  N   UNL     1       4.299   5.575  18.979  0.00  0.00    +0.000 NA
ATOM      2  C   UNL     1       4.323   6.604  17.907  0.00  0.00    +0.000 C 
ATOM      3  C   UNL     1       2.898   6.821  17.402  0.00  0.00    +0.000 C 
ATOM      4  N   UNL     1       2.122   7.409  18.491  0.00  0.00    +0.000 N 
ATOM      5  C   UNL     1       1.863   8.769  18.414  0.00  0.00    +0.000 C 
ATOM      6  O   UNL     1       2.204   9.422  17.420  0.00  0.00    +0.000 OA
ATOM      7  C   UNL     1       2.012   6.526  19.666  0.00  0.00    +0.000 C 
ATOM      8  C   UNL     1       3.354   5.869  20.096  0.00  0.00    +0.000 C 
ENDROOT
BRANCH   1   9
ATOM      9  S   UNL     1       4.578   3.977  18.493  0.00  0.00    +0.000 S 
ATOM     10  O   UNL     1       3.298   3.415  18.123  0.00  0.00    +0.000 OA
ATOM     11  O   UNL     1       5.433   3.316  19.455  0.00  0.00    +0.000 OA
BRANCH   9  16
ATOM     12  C   UNL     1       7.568   5.147  13.303  0.00  0.00    +0.000 C 
ATOM     13  C   UNL     1       6.860   4.795  14.578  0.00  0.00    +0.000 A 
ATOM     14  C   UNL     1       5.558   4.288  14.565  0.00  0.00    +0.000 A 
ATOM     15  C   UNL     1       4.900   4.010  15.768  0.00  0.00    +0.000 A 
ATOM     16  C   UNL     1       5.537   4.235  16.997  0.00  0.00    +0.000 A 
ATOM     17  C   UNL     1       6.861   4.717  17.033  0.00  0.00    +0.000 A 
ATOM     18  C   UNL     1       7.658   4.986  18.278  0.00  0.00    +0.000 C 
ATOM     19  C   UNL     1       7.501   4.989  15.809  0.00  0.00    +0.000 A 
ENDBRANCH   9  16
ENDBRANCH   1   9
BRANCH   5  20
ATOM     20  C   UNL     1       1.125   9.470  19.552  0.00  0.00    +0.000 C 
BRANCH  20  21
ATOM     21  O   UNL     1       0.232  10.474  19.055  0.00  0.00    +0.000 OA
BRANCH  21  22
ATOM     22  C   UNL     1       0.154  11.590  19.828  0.00  0.00    +0.000 C 
ATOM     23  O   UNL     1      -0.772  11.870  20.576  0.00  0.00    +0.000 OA
BRANCH  22  24
ATOM     24  C   UNL     1       1.318  12.482  19.583  0.00  0.00    +0.000 A 
ATOM     25  C   UNL     1       1.997  13.021  20.668  0.00  0.00    +0.000 A 
ATOM     26  N   UNL     1       3.000  13.928  20.526  0.00  0.00    +0.000 NA
ATOM     27  C   UNL     1       3.315  14.267  19.250  0.00  0.00    +0.000 A 
ATOM     28  C   UNL     1       4.383  15.295  19.034  0.00  0.00    +0.000 C 
ATOM     29  C   UNL     1       2.666  13.683  18.167  0.00  0.00    +0.000 A 
ATOM     30  N   UNL     1       1.652  12.799  18.303  0.00  0.00    +0.000 NA
ENDBRANCH  22  24
ENDBRANCH  21  22
ENDBRANCH  20  21
ENDBRANCH   5  20
TORSDOF 6
ENDMDL
