MODEL 1
REMARK VINA RESULT:      -6.4      0.000      0.000
REMARK  Name = 
REMARK  10 active torsions:
REMARK  status: ('A' for Active; 'I' for Inactive)
REMARK    1  A    between atoms: C_1  and  N_2
REMARK    2  A    between atoms: N_2  and  C_3
REMARK    3  A    between atoms: N_2  and  C_16
REMARK    4  A    between atoms: C_3  and  C_4
REMARK    5  A    between atoms: C_4  and  C_5
REMARK    6  A    between atoms: C_5  and  C_6
REMARK    7  A    between atoms: C_6  and  C_7
REMARK    8  A    between atoms: C_7  and  O_8
REMARK    9  A    between atoms: O_8  and  C_9
REMARK   10  A    between atoms: C_12  and  O_13
REMARK                            x       y       z     vdW  Elec       q    Type
REMARK                         _______ _______ _______ _____ _____    ______ ____
ROOT
ATOM      1  C   UNL     1       0.970   3.364  19.629  0.00  0.00    +0.000 C 
ENDROOT
BRANCH   1   2
ATOM      2  C   UNL     1       1.492   3.946  18.309  0.00  0.00    +0.000 C 
BRANCH   2   3
ATOM      3  C   UNL     1       2.674   3.156  17.732  0.00  0.00    +0.000 C 
BRANCH   3   5
ATOM      4  C   UNL     1       4.424   2.330  19.317  0.00  0.00    +0.000 C 
ATOM      5  N   UNL     1       3.914   3.404  18.476  0.00  0.00    +0.000 N 
BRANCH   5   6
ATOM      6  C   UNL     1       4.775   4.403  18.026  0.00  0.00    +0.000 A 
ATOM      7  C   UNL     1       5.894   4.824  18.762  0.00  0.00    +0.000 A 
ATOM      8  C   UNL     1       6.754   5.822  18.290  0.00  0.00    +0.000 A 
ATOM      9  C   UNL     1       6.504   6.441  17.071  0.00  0.00    +0.000 A 
ATOM     10  C   UNL     1       5.398   6.054  16.323  0.00  0.00    +0.000 A 
ATOM     11  C   UNL     1       4.551   5.045  16.796  0.00  0.00    +0.000 A 
ENDBRANCH   5   6
ENDBRANCH   3   5
ENDBRANCH   2   3
ENDBRANCH   1   2
BRANCH   1  12
ATOM     12  C   UNL     1       1.425   4.105  20.890  0.00  0.00    +0.000 C 
BRANCH  12  13
ATOM     13  C   UNL     1       2.262   5.349  20.597  0.00  0.00    +0.000 C 
BRANCH  13  14
ATOM     14  O   UNL     1       1.471   6.491  20.929  0.00  0.00    +0.000 OA
BRANCH  14  15
ATOM     15  C   UNL     1       1.595   7.559  20.084  0.00  0.00    +0.000 A 
ATOM     16  C   UNL     1       2.366   7.320  18.943  0.00  0.00    +0.000 A 
ATOM     17  C   UNL     1       2.560   8.325  17.996  0.00  0.00    +0.000 A 
ATOM     18  C   UNL     1       1.974   9.570  18.193  0.00  0.00    +0.000 A 
ATOM     19  C   UNL     1       1.190   9.817  19.313  0.00  0.00    +0.000 A 
ATOM     20  C   UNL     1       0.997   8.808  20.264  0.00  0.00    +0.000 A 
BRANCH  18  21
ATOM     21  O   UNL     1       2.144  10.582  17.296  0.00  0.00    +0.000 OA
ATOM     22  H   UNL     1       1.329  10.676  16.777  0.00  0.00    +0.000 HD
ENDBRANCH  18  21
ENDBRANCH  14  15
ENDBRANCH  13  14
ENDBRANCH  12  13
ENDBRANCH   1  12
TORSDOF 9
ENDMDL
MODEL 2
REMARK VINA RESULT:      -6.2      0.945      1.654
REMARK  Name = 
REMARK  10 active torsions:
REMARK  status: ('A' for Active; 'I' for Inactive)
REMARK    1  A    between atoms: C_1  and  N_2
REMARK    2  A    between atoms: N_2  and  C_3
REMARK    3  A    between atoms: N_2  and  C_16
REMARK    4  A    between atoms: C_3  and  C_4
REMARK    5  A    between atoms: C_4  and  C_5
REMARK    6  A    between atoms: C_5  and  C_6
REMARK    7  A    between atoms: C_6  and  C_7
REMARK    8  A    between atoms: C_7  and  O_8
REMARK    9  A    between atoms: O_8  and  C_9
REMARK   10  A    between atoms: C_12  and  O_13
REMARK                            x       y       z     vdW  Elec       q    Type
REMARK                         _______ _______ _______ _____ _____    ______ ____
ROOT
ATOM      1  C   UNL     1       1.783   2.440  20.259  0.00  0.00    +0.000 C 
ENDROOT
BRANCH   1   2
ATOM      2  C   UNL     1       3.089   2.193  19.492  0.00  0.00    +0.000 C 
BRANCH   2   3
ATOM      3  C   UNL     1       4.082   3.357  19.609  0.00  0.00    +0.000 C 
BRANCH   3   5
ATOM      4  C   UNL     1       3.473   3.810  17.226  0.00  0.00    +0.000 C 
ATOM      5  N   UNL     1       4.458   3.890  18.295  0.00  0.00    +0.000 N 
BRANCH   5   6
ATOM      6  C   UNL     1       5.487   4.827  18.223  0.00  0.00    +0.000 A 
ATOM      7  C   UNL     1       6.443   4.979  19.240  0.00  0.00    +0.000 A 
ATOM      8  C   UNL     1       7.477   5.918  19.146  0.00  0.00    +0.000 A 
ATOM      9  C   UNL     1       7.568   6.747  18.034  0.00  0.00    +0.000 A 
ATOM     10  C   UNL     1       6.631   6.629  17.015  0.00  0.00    +0.000 A 
ATOM     11  C   UNL     1       5.609   5.677  17.111  0.00  0.00    +0.000 A 
ENDBRANCH   5   6
ENDBRANCH   3   5
ENDBRANCH   2   3
ENDBRANCH   1   2
BRANCH   1  12
ATOM     12  C   UNL     1       1.753   3.725  21.091  0.00  0.00    +0.000 C 
BRANCH  12  13
ATOM     13  C   UNL     1       1.229   4.937  20.321  0.00  0.00    +0.000 C 
BRANCH  13  14
ATOM     14  O   UNL     1       2.001   6.070  20.721  0.00  0.00    +0.000 OA
BRANCH  14  15
ATOM     15  C   UNL     1       2.015   7.114  19.838  0.00  0.00    +0.000 A 
ATOM     16  C   UNL     1       1.464   8.302  20.325  0.00  0.00    +0.000 A 
ATOM     17  C   UNL     1       1.429   9.446  19.527  0.00  0.00    +0.000 A 
ATOM     18  C   UNL     1       1.953   9.395  18.240  0.00  0.00    +0.000 A 
ATOM     19  C   UNL     1       2.520   8.225  17.749  0.00  0.00    +0.000 A 
ATOM     20  C   UNL     1       2.554   7.079  18.550  0.00  0.00    +0.000 A 
BRANCH  18  21
ATOM     21  O   UNL     1       1.932  10.486  17.424  0.00  0.00    +0.000 OA
ATOM     22  H   UNL     1       2.846  10.724  17.202  0.00  0.00    +0.000 HD
ENDBRANCH  18  21
ENDBRANCH  14  15
ENDBRANCH  13  14
ENDBRANCH  12  13
ENDBRANCH   1  12
TORSDOF 9
ENDMDL
MODEL 3
REMARK VINA RESULT:      -6.1      3.634      6.927
REMARK  Name = 
REMARK  10 active torsions:
REMARK  status: ('A' for Active; 'I' for Inactive)
REMARK    1  A    between atoms: C_1  and  N_2
REMARK    2  A    between atoms: N_2  and  C_3
REMARK    3  A    between atoms: N_2  and  C_16
REMARK    4  A    between atoms: C_3  and  C_4
REMARK    5  A    between atoms: C_4  and  C_5
REMARK    6  A    between atoms: C_5  and  C_6
REMARK    7  A    between atoms: C_6  and  C_7
REMARK    8  A    between atoms: C_7  and  O_8
REMARK    9  A    between atoms: O_8  and  C_9
REMARK   10  A    between atoms: C_12  and  O_13
REMARK                            x       y       z     vdW  Elec       q    Type
REMARK                         _______ _______ _______ _____ _____    ______ ____
ROOT
ATOM      1  C   UNL     1       5.727   7.003  16.978  0.00  0.00    +0.000 C 
ENDROOT
BRANCH   1   2
ATOM      2  C   UNL     1       4.303   7.254  17.491  0.00  0.00    +0.000 C 
BRANCH   2   3
ATOM      3  C   UNL     1       3.558   5.960  17.845  0.00  0.00    +0.000 C 
BRANCH   3   5
ATOM      4  C   UNL     1       2.249   7.387  19.428  0.00  0.00    +0.000 C 
ATOM      5  N   UNL     1       2.813   6.085  19.103  0.00  0.00    +0.000 N 
BRANCH   5   6
ATOM      6  C   UNL     1       2.284   4.933  19.683  0.00  0.00    +0.000 A 
ATOM      7  C   UNL     1       2.490   4.605  21.032  0.00  0.00    +0.000 A 
ATOM      8  C   UNL     1       1.942   3.448  21.601  0.00  0.00    +0.000 A 
ATOM      9  C   UNL     1       1.185   2.579  20.824  0.00  0.00    +0.000 A 
ATOM     10  C   UNL     1       0.971   2.871  19.482  0.00  0.00    +0.000 A 
ATOM     11  C   UNL     1       1.511   4.036  18.925  0.00  0.00    +0.000 A 
ENDBRANCH   5   6
ENDBRANCH   3   5
ENDBRANCH   2   3
ENDBRANCH   1   2
BRANCH   1  12
ATOM     12  C   UNL     1       6.516   5.940  17.748  0.00  0.00    +0.000 C 
BRANCH  12  13
ATOM     13  C   UNL     1       7.239   4.943  16.843  0.00  0.00    +0.000 C 
BRANCH  13  14
ATOM     14  O   UNL     1       7.449   5.578  15.581  0.00  0.00    +0.000 OA
BRANCH  14  15
ATOM     15  C   UNL     1       6.997   4.885  14.492  0.00  0.00    +0.000 A 
ATOM     16  C   UNL     1       5.803   4.187  14.692  0.00  0.00    +0.000 A 
ATOM     17  C   UNL     1       5.230   3.450  13.656  0.00  0.00    +0.000 A 
ATOM     18  C   UNL     1       5.856   3.420  12.414  0.00  0.00    +0.000 A 
ATOM     19  C   UNL     1       7.034   4.124  12.195  0.00  0.00    +0.000 A 
ATOM     20  C   UNL     1       7.609   4.862  13.236  0.00  0.00    +0.000 A 
BRANCH  18  21
ATOM     21  O   UNL     1       5.336   2.707  11.376  0.00  0.00    +0.000 OA
ATOM     22  H   UNL     1       5.386   1.763  11.593  0.00  0.00    +0.000 HD
ENDBRANCH  18  21
ENDBRANCH  14  15
ENDBRANCH  13  14
ENDBRANCH  12  13
ENDBRANCH   1  12
TORSDOF 9
ENDMDL
MODEL 4
REMARK VINA RESULT:      -6.1      3.682      6.949
REMARK  Name = 
REMARK  10 active torsions:
REMARK  status: ('A' for Active; 'I' for Inactive)
REMARK    1  A    between atoms: C_1  and  N_2
REMARK    2  A    between atoms: N_2  and  C_3
REMARK    3  A    between atoms: N_2  and  C_16
REMARK    4  A    between atoms: C_3  and  C_4
REMARK    5  A    between atoms: C_4  and  C_5
REMARK    6  A    between atoms: C_5  and  C_6
REMARK    7  A    between atoms: C_6  and  C_7
REMARK    8  A    between atoms: C_7  and  O_8
REMARK    9  A    between atoms: O_8  and  C_9
REMARK   10  A    between atoms: C_12  and  O_13
REMARK                            x       y       z     vdW  Elec       q    Type
REMARK                         _______ _______ _______ _____ _____    ______ ____
ROOT
ATOM      1  C   UNL     1       5.940   7.427  17.039  0.00  0.00    +0.000 C 
ENDROOT
BRANCH   1   2
ATOM      2  C   UNL     1       4.697   6.552  16.837  0.00  0.00    +0.000 C 
BRANCH   2   3
ATOM      3  C   UNL     1       3.832   6.438  18.099  0.00  0.00    +0.000 C 
BRANCH   3   5
ATOM      4  C   UNL     1       5.263   4.925  19.485  0.00  0.00    +0.000 C 
ATOM      5  N   UNL     1       4.013   5.146  18.772  0.00  0.00    +0.000 N 
BRANCH   5   6
ATOM      6  C   UNL     1       2.883   4.400  19.101  0.00  0.00    +0.000 A 
ATOM      7  C   UNL     1       2.178   3.639  18.155  0.00  0.00    +0.000 A 
ATOM      8  C   UNL     1       1.051   2.887  18.506  0.00  0.00    +0.000 A 
ATOM      9  C   UNL     1       0.587   2.894  19.816  0.00  0.00    +0.000 A 
ATOM     10  C   UNL     1       1.256   3.645  20.774  0.00  0.00    +0.000 A 
ATOM     11  C   UNL     1       2.391   4.383  20.418  0.00  0.00    +0.000 A 
ENDBRANCH   5   6
ENDBRANCH   3   5
ENDBRANCH   2   3
ENDBRANCH   1   2
BRANCH   1  12
ATOM     12  C   UNL     1       7.247   6.658  17.253  0.00  0.00    +0.000 C 
BRANCH  12  13
ATOM     13  C   UNL     1       7.302   5.329  16.502  0.00  0.00    +0.000 C 
BRANCH  13  14
ATOM     14  O   UNL     1       7.578   5.619  15.131  0.00  0.00    +0.000 OA
BRANCH  14  15
ATOM     15  C   UNL     1       6.898   4.858  14.220  0.00  0.00    +0.000 A 
ATOM     16  C   UNL     1       7.545   4.693  12.992  0.00  0.00    +0.000 A 
ATOM     17  C   UNL     1       6.963   3.929  11.981  0.00  0.00    +0.000 A 
ATOM     18  C   UNL     1       5.730   3.325  12.207  0.00  0.00    +0.000 A 
ATOM     19  C   UNL     1       5.084   3.466  13.429  0.00  0.00    +0.000 A 
ATOM     20  C   UNL     1       5.669   4.234  14.442  0.00  0.00    +0.000 A 
BRANCH  18  21
ATOM     21  O   UNL     1       5.122   2.577  11.245  0.00  0.00    +0.000 OA
ATOM     22  H   UNL     1       5.657   2.617  10.436  0.00  0.00    +0.000 HD
ENDBRANCH  18  21
ENDBRANCH  14  15
ENDBRANCH  13  14
ENDBRANCH  12  13
ENDBRANCH   1  12
TORSDOF 9
ENDMDL
MODEL 5
REMARK VINA RESULT:      -6.1      3.680      6.976
REMARK  Name = 
REMARK  10 active torsions:
REMARK  status: ('A' for Active; 'I' for Inactive)
REMARK    1  A    between atoms: C_1  and  N_2
REMARK    2  A    between atoms: N_2  and  C_3
REMARK    3  A    between atoms: N_2  and  C_16
REMARK    4  A    between atoms: C_3  and  C_4
REMARK    5  A    between atoms: C_4  and  C_5
REMARK    6  A    between atoms: C_5  and  C_6
REMARK    7  A    between atoms: C_6  and  C_7
REMARK    8  A    between atoms: C_7  and  O_8
REMARK    9  A    between atoms: O_8  and  C_9
REMARK   10  A    between atoms: C_12  and  O_13
REMARK                            x       y       z     vdW  Elec       q    Type
REMARK                         _______ _______ _______ _____ _____    ______ ____
ROOT
ATOM      1  C   UNL     1       6.932   6.071  18.788  0.00  0.00    +0.000 C 
ENDROOT
BRANCH   1   2
ATOM      2  C   UNL     1       5.637   5.277  19.007  0.00  0.00    +0.000 C 
BRANCH   2   3
ATOM      3  C   UNL     1       4.421   5.914  18.322  0.00  0.00    +0.000 C 
BRANCH   3   5
ATOM      4  C   UNL     1       2.530   6.976  19.568  0.00  0.00    +0.000 C 
ATOM      5  N   UNL     1       3.201   5.763  19.123  0.00  0.00    +0.000 N 
BRANCH   5   6
ATOM      6  C   UNL     1       2.491   4.566  19.040  0.00  0.00    +0.000 A 
ATOM      7  C   UNL     1       1.449   4.243  19.923  0.00  0.00    +0.000 A 
ATOM      8  C   UNL     1       0.740   3.040  19.819  0.00  0.00    +0.000 A 
ATOM      9  C   UNL     1       1.070   2.118  18.833  0.00  0.00    +0.000 A 
ATOM     10  C   UNL     1       2.103   2.404  17.948  0.00  0.00    +0.000 A 
ATOM     11  C   UNL     1       2.798   3.615  18.052  0.00  0.00    +0.000 A 
ENDBRANCH   5   6
ENDBRANCH   3   5
ENDBRANCH   2   3
ENDBRANCH   1   2
BRANCH   1  12
ATOM     12  C   UNL     1       7.293   6.331  17.323  0.00  0.00    +0.000 C 
BRANCH  12  13
ATOM     13  C   UNL     1       7.290   5.070  16.461  0.00  0.00    +0.000 C 
BRANCH  13  14
ATOM     14  O   UNL     1       7.658   5.452  15.135  0.00  0.00    +0.000 OA
BRANCH  14  15
ATOM     15  C   UNL     1       7.022   4.775  14.130  0.00  0.00    +0.000 A 
ATOM     16  C   UNL     1       5.755   4.287  14.460  0.00  0.00    +0.000 A 
ATOM     17  C   UNL     1       4.998   3.589  13.519  0.00  0.00    +0.000 A 
ATOM     18  C   UNL     1       5.513   3.387  12.244  0.00  0.00    +0.000 A 
ATOM     19  C   UNL     1       6.764   3.883  11.896  0.00  0.00    +0.000 A 
ATOM     20  C   UNL     1       7.523   4.582  12.841  0.00  0.00    +0.000 A 
BRANCH  18  21
ATOM     21  O   UNL     1       4.810   2.705  11.296  0.00  0.00    +0.000 OA
ATOM     22  H   UNL     1       4.629   1.811  11.629  0.00  0.00    +0.000 HD
ENDBRANCH  18  21
ENDBRANCH  14  15
ENDBRANCH  13  14
ENDBRANCH  12  13
ENDBRANCH   1  12
TORSDOF 9
ENDMDL
MODEL 6
REMARK VINA RESULT:      -6.1      1.245      2.132
REMARK  Name = 
REMARK  10 active torsions:
REMARK  status: ('A' for Active; 'I' for Inactive)
REMARK    1  A    between atoms: C_1  and  N_2
REMARK    2  A    between atoms: N_2  and  C_3
REMARK    3  A    between atoms: N_2  and  C_16
REMARK    4  A    between atoms: C_3  and  C_4
REMARK    5  A    between atoms: C_4  and  C_5
REMARK    6  A    between atoms: C_5  and  C_6
REMARK    7  A    between atoms: C_6  and  C_7
REMARK    8  A    between atoms: C_7  and  O_8
REMARK    9  A    between atoms: O_8  and  C_9
REMARK   10  A    between atoms: C_12  and  O_13
REMARK                            x       y       z     vdW  Elec       q    Type
REMARK                         _______ _______ _______ _____ _____    ______ ____
ROOT
ATOM      1  C   UNL     1       4.188   3.683  19.374  0.00  0.00    +0.000 C 
ENDROOT
BRANCH   1   2
ATOM      2  C   UNL     1       3.812   3.181  17.974  0.00  0.00    +0.000 C 
BRANCH   2   3
ATOM      3  C   UNL     1       4.099   4.208  16.872  0.00  0.00    +0.000 C 
BRANCH   3   5
ATOM      4  C   UNL     1       5.932   3.713  15.244  0.00  0.00    +0.000 C 
ATOM      5  N   UNL     1       5.525   4.261  16.530  0.00  0.00    +0.000 N 
BRANCH   5   6
ATOM      6  C   UNL     1       6.333   5.194  17.175  0.00  0.00    +0.000 A 
ATOM      7  C   UNL     1       6.352   6.552  16.818  0.00  0.00    +0.000 A 
ATOM      8  C   UNL     1       7.163   7.478  17.485  0.00  0.00    +0.000 A 
ATOM      9  C   UNL     1       7.994   7.062  18.518  0.00  0.00    +0.000 A 
ATOM     10  C   UNL     1       8.007   5.723  18.888  0.00  0.00    +0.000 A 
ATOM     11  C   UNL     1       7.182   4.807  18.226  0.00  0.00    +0.000 A 
ENDBRANCH   5   6
ENDBRANCH   3   5
ENDBRANCH   2   3
ENDBRANCH   1   2
BRANCH   1  12
ATOM     12  C   UNL     1       3.009   3.877  20.332  0.00  0.00    +0.000 C 
BRANCH  12  13
ATOM     13  C   UNL     1       1.940   4.829  19.798  0.00  0.00    +0.000 C 
BRANCH  13  14
ATOM     14  O   UNL     1       2.007   6.030  20.568  0.00  0.00    +0.000 OA
BRANCH  14  15
ATOM     15  C   UNL     1       1.961   7.193  19.850  0.00  0.00    +0.000 A 
ATOM     16  C   UNL     1       2.590   7.139  18.604  0.00  0.00    +0.000 A 
ATOM     17  C   UNL     1       2.604   8.256  17.768  0.00  0.00    +0.000 A 
ATOM     18  C   UNL     1       1.979   9.427  18.185  0.00  0.00    +0.000 A 
ATOM     19  C   UNL     1       1.333   9.489  19.414  0.00  0.00    +0.000 A 
ATOM     20  C   UNL     1       1.322   8.368  20.252  0.00  0.00    +0.000 A 
BRANCH  18  21
ATOM     21  O   UNL     1       1.974  10.543  17.404  0.00  0.00    +0.000 OA
ATOM     22  H   UNL     1       1.511  10.340  16.576  0.00  0.00    +0.000 HD
ENDBRANCH  18  21
ENDBRANCH  14  15
ENDBRANCH  13  14
ENDBRANCH  12  13
ENDBRANCH   1  12
TORSDOF 9
ENDMDL
MODEL 7
REMARK VINA RESULT:      -6.0      0.908      1.606
REMARK  Name = 
REMARK  10 active torsions:
REMARK  status: ('A' for Active; 'I' for Inactive)
REMARK    1  A    between atoms: C_1  and  N_2
REMARK    2  A    between atoms: N_2  and  C_3
REMARK    3  A    between atoms: N_2  and  C_16
REMARK    4  A    between atoms: C_3  and  C_4
REMARK    5  A    between atoms: C_4  and  C_5
REMARK    6  A    between atoms: C_5  and  C_6
REMARK    7  A    between atoms: C_6  and  C_7
REMARK    8  A    between atoms: C_7  and  O_8
REMARK    9  A    between atoms: O_8  and  C_9
REMARK   10  A    between atoms: C_12  and  O_13
REMARK                            x       y       z     vdW  Elec       q    Type
REMARK                         _______ _______ _______ _____ _____    ______ ____
ROOT
ATOM      1  C   UNL     1       0.748   3.599  19.401  0.00  0.00    +0.000 C 
ENDROOT
BRANCH   1   2
ATOM      2  C   UNL     1       1.551   2.685  18.467  0.00  0.00    +0.000 C 
BRANCH   2   3
ATOM      3  C   UNL     1       2.487   3.459  17.529  0.00  0.00    +0.000 C 
BRANCH   3   5
ATOM      4  C   UNL     1       4.257   2.388  18.935  0.00  0.00    +0.000 C 
ATOM      5  N   UNL     1       3.875   3.441  18.004  0.00  0.00    +0.000 N 
BRANCH   5   6
ATOM      6  C   UNL     1       4.850   4.085  17.244  0.00  0.00    +0.000 A 
ATOM      7  C   UNL     1       5.351   3.549  16.048  0.00  0.00    +0.000 A 
ATOM      8  C   UNL     1       6.324   4.215  15.292  0.00  0.00    +0.000 A 
ATOM      9  C   UNL     1       6.834   5.432  15.728  0.00  0.00    +0.000 A 
ATOM     10  C   UNL     1       6.366   5.985  16.914  0.00  0.00    +0.000 A 
ATOM     11  C   UNL     1       5.383   5.318  17.656  0.00  0.00    +0.000 A 
ENDBRANCH   5   6
ENDBRANCH   3   5
ENDBRANCH   2   3
ENDBRANCH   1   2
BRANCH   1  12
ATOM     12  C   UNL     1       1.395   3.864  20.763  0.00  0.00    +0.000 C 
BRANCH  12  13
ATOM     13  C   UNL     1       2.389   5.024  20.751  0.00  0.00    +0.000 C 
BRANCH  13  14
ATOM     14  O   UNL     1       1.655   6.225  20.993  0.00  0.00    +0.000 OA
BRANCH  14  15
ATOM     15  C   UNL     1       1.773   7.191  20.032  0.00  0.00    +0.000 A 
ATOM     16  C   UNL     1       1.144   8.402  20.336  0.00  0.00    +0.000 A 
ATOM     17  C   UNL     1       1.200   9.473  19.444  0.00  0.00    +0.000 A 
ATOM     18  C   UNL     1       1.894   9.328  18.247  0.00  0.00    +0.000 A 
ATOM     19  C   UNL     1       2.539   8.136  17.940  0.00  0.00    +0.000 A 
ATOM     20  C   UNL     1       2.481   7.062  18.836  0.00  0.00    +0.000 A 
BRANCH  18  21
ATOM     21  O   UNL     1       1.968  10.345  17.344  0.00  0.00    +0.000 OA
ATOM     22  H   UNL     1       2.234   9.979  16.486  0.00  0.00    +0.000 HD
ENDBRANCH  18  21
ENDBRANCH  14  15
ENDBRANCH  13  14
ENDBRANCH  12  13
ENDBRANCH   1  12
TORSDOF 9
ENDMDL
MODEL 8
REMARK VINA RESULT:      -6.0      1.012      1.623
REMARK  Name = 
REMARK  10 active torsions:
REMARK  status: ('A' for Active; 'I' for Inactive)
REMARK    1  A    between atoms: C_1  and  N_2
REMARK    2  A    between atoms: N_2  and  C_3
REMARK    3  A    between atoms: N_2  and  C_16
REMARK    4  A    between atoms: C_3  and  C_4
REMARK    5  A    between atoms: C_4  and  C_5
REMARK    6  A    between atoms: C_5  and  C_6
REMARK    7  A    between atoms: C_6  and  C_7
REMARK    8  A    between atoms: C_7  and  O_8
REMARK    9  A    between atoms: O_8  and  C_9
REMARK   10  A    between atoms: C_12  and  O_13
REMARK                            x       y       z     vdW  Elec       q    Type
REMARK                         _______ _______ _______ _____ _____    ______ ____
ROOT
ATOM      1  C   UNL     1       0.808   3.125  19.864  0.00  0.00    +0.000 C 
ENDROOT
BRANCH   1   2
ATOM      2  C   UNL     1       1.914   2.114  20.194  0.00  0.00    +0.000 C 
BRANCH   2   3
ATOM      3  C   UNL     1       3.312   2.745  20.227  0.00  0.00    +0.000 C 
BRANCH   3   5
ATOM      4  C   UNL     1       3.627   1.543  18.056  0.00  0.00    +0.000 C 
ATOM      5  N   UNL     1       3.983   2.656  18.925  0.00  0.00    +0.000 N 
BRANCH   5   6
ATOM      6  C   UNL     1       4.546   3.809  18.383  0.00  0.00    +0.000 A 
ATOM      7  C   UNL     1       4.199   4.294  17.112  0.00  0.00    +0.000 A 
ATOM      8  C   UNL     1       4.768   5.461  16.587  0.00  0.00    +0.000 A 
ATOM      9  C   UNL     1       5.718   6.165  17.318  0.00  0.00    +0.000 A 
ATOM     10  C   UNL     1       6.090   5.706  18.576  0.00  0.00    +0.000 A 
ATOM     11  C   UNL     1       5.506   4.546  19.098  0.00  0.00    +0.000 A 
ENDBRANCH   5   6
ENDBRANCH   3   5
ENDBRANCH   2   3
ENDBRANCH   1   2
BRANCH   1  12
ATOM     12  C   UNL     1       1.302   4.506  19.423  0.00  0.00    +0.000 C 
BRANCH  12  13
ATOM     13  C   UNL     1       1.714   5.406  20.587  0.00  0.00    +0.000 C 
BRANCH  13  14
ATOM     14  O   UNL     1       2.666   6.348  20.090  0.00  0.00    +0.000 OA
BRANCH  14  15
ATOM     15  C   UNL     1       2.147   7.537  19.659  0.00  0.00    +0.000 A 
ATOM     16  C   UNL     1       2.421   7.850  18.325  0.00  0.00    +0.000 A 
ATOM     17  C   UNL     1       1.939   9.031  17.760  0.00  0.00    +0.000 A 
ATOM     18  C   UNL     1       1.175   9.895  18.537  0.00  0.00    +0.000 A 
ATOM     19  C   UNL     1       0.879   9.588  19.860  0.00  0.00    +0.000 A 
ATOM     20  C   UNL     1       1.364   8.404  20.425  0.00  0.00    +0.000 A 
BRANCH  18  21
ATOM     21  O   UNL     1       0.690  11.062  18.028  0.00  0.00    +0.000 OA
ATOM     22  H   UNL     1      -0.095  11.320  18.537  0.00  0.00    +0.000 HD
ENDBRANCH  18  21
ENDBRANCH  14  15
ENDBRANCH  13  14
ENDBRANCH  12  13
ENDBRANCH   1  12
TORSDOF 9
ENDMDL
MODEL 9
REMARK VINA RESULT:      -5.9      4.747      7.031
REMARK  Name = 
REMARK  10 active torsions:
REMARK  status: ('A' for Active; 'I' for Inactive)
REMARK    1  A    between atoms: C_1  and  N_2
REMARK    2  A    between atoms: N_2  and  C_3
REMARK    3  A    between atoms: N_2  and  C_16
REMARK    4  A    between atoms: C_3  and  C_4
REMARK    5  A    between atoms: C_4  and  C_5
REMARK    6  A    between atoms: C_5  and  C_6
REMARK    7  A    between atoms: C_6  and  C_7
REMARK    8  A    between atoms: C_7  and  O_8
REMARK    9  A    between atoms: O_8  and  C_9
REMARK   10  A    between atoms: C_12  and  O_13
REMARK                            x       y       z     vdW  Elec       q    Type
REMARK                         _______ _______ _______ _____ _____    ______ ____
ROOT
ATOM      1  C   UNL     1       6.447   7.328  17.402  0.00  0.00    +0.000 C 
ENDROOT
BRANCH   1   2
ATOM      2  C   UNL     1       6.051   5.847  17.333  0.00  0.00    +0.000 C 
BRANCH   2   3
ATOM      3  C   UNL     1       4.660   5.627  16.723  0.00  0.00    +0.000 C 
BRANCH   3   5
ATOM      4  C   UNL     1       3.017   7.068  17.941  0.00  0.00    +0.000 C 
ATOM      5  N   UNL     1       3.597   5.749  17.727  0.00  0.00    +0.000 N 
BRANCH   5   6
ATOM      6  C   UNL     1       2.880   4.608  18.083  0.00  0.00    +0.000 A 
ATOM      7  C   UNL     1       1.932   4.605  19.118  0.00  0.00    +0.000 A 
ATOM      8  C   UNL     1       1.213   3.452  19.456  0.00  0.00    +0.000 A 
ATOM      9  C   UNL     1       1.441   2.262  18.773  0.00  0.00    +0.000 A 
ATOM     10  C   UNL     1       2.380   2.230  17.750  0.00  0.00    +0.000 A 
ATOM     11  C   UNL     1       3.084   3.392  17.410  0.00  0.00    +0.000 A 
ENDBRANCH   5   6
ENDBRANCH   3   5
ENDBRANCH   2   3
ENDBRANCH   1   2
BRANCH   1  12
ATOM     12  C   UNL     1       7.891   7.592  17.839  0.00  0.00    +0.000 C 
BRANCH  12  13
ATOM     13  C   UNL     1       8.250   9.077  17.889  0.00  0.00    +0.000 C 
BRANCH  13  14
ATOM     14  O   UNL     1       8.892   9.324  19.141  0.00  0.00    +0.000 OA
BRANCH  14  15
ATOM     15  C   UNL     1       9.542  10.523  19.242  0.00  0.00    +0.000 A 
ATOM     16  C   UNL     1       9.859  11.125  18.022  0.00  0.00    +0.000 A 
ATOM     17  C   UNL     1      10.511  12.358  17.988  0.00  0.00    +0.000 A 
ATOM     18  C   UNL     1      10.841  12.988  19.183  0.00  0.00    +0.000 A 
ATOM     19  C   UNL     1      10.515  12.410  20.404  0.00  0.00    +0.000 A 
ATOM     20  C   UNL     1       9.862  11.173  20.437  0.00  0.00    +0.000 A 
BRANCH  18  21
ATOM     21  O   UNL     1      11.485  14.188  19.196  0.00  0.00    +0.000 OA
ATOM     22  H   UNL     1      11.138  14.718  19.931  0.00  0.00    +0.000 HD
ENDBRANCH  18  21
ENDBRANCH  14  15
ENDBRANCH  13  14
ENDBRANCH  12  13
ENDBRANCH   1  12
TORSDOF 9
ENDMDL
