MODEL 1
REMARK VINA RESULT:      -8.1      0.000      0.000
REMARK  Name = 
REMARK  12 active torsions:
REMARK  status: ('A' for Active; 'I' for Inactive)
REMARK    1  A    between atoms: C_1  and  C_2
REMARK    2  A    between atoms: C_2  and  O_3
REMARK    3  A    between atoms: O_3  and  C_4
REMARK    4  A    between atoms: C_6  and  C_7
REMARK    5  A    between atoms: C_7  and  C_8
REMARK    6  A    between atoms: C_7  and  N_13
REMARK    7  A    between atoms: C_8  and  S_9
REMARK    8  A    between atoms: S_9  and  C_10
REMARK    9  A    between atoms: C_20  and  N_21
REMARK   10  A    between atoms: C_22  and  C_23
REMARK   11  A    between atoms: C_30  and  O_31
REMARK   12  A    between atoms: O_31  and  C_32
REMARK                            x       y       z     vdW  Elec       q    Type
REMARK                         _______ _______ _______ _____ _____    ______ ____
ROOT
ATOM      1  C   UNL     1       0.667  10.163  19.896  0.00  0.00    +0.000 C 
ENDROOT
BRANCH   1   2
ATOM      2  N   UNL     1       1.438   8.966  19.424  0.00  0.00    +0.000 N 
ATOM      3  C   UNL     1       2.086   9.056  18.219  0.00  0.00    +0.000 C 
ATOM      4  O   UNL     1       2.062   9.961  17.408  0.00  0.00    +0.000 OA
ATOM      5  C   UNL     1       2.874   7.853  18.043  0.00  0.00    +0.000 A 
ATOM      6  C   UNL     1       3.783   7.580  17.040  0.00  0.00    +0.000 A 
ATOM      7  C   UNL     1       4.418   6.351  17.087  0.00  0.00    +0.000 A 
ATOM      8  C   UNL     1       4.087   5.421  18.090  0.00  0.00    +0.000 A 
ATOM      9  C   UNL     1       3.150   5.705  19.107  0.00  0.00    +0.000 A 
ATOM     10  C   UNL     1       2.590   6.985  19.086  0.00  0.00    +0.000 A 
ATOM     11  C   UNL     1       1.726   7.750  20.012  0.00  0.00    +0.000 C 
ATOM     12  O   UNL     1       1.434   7.321  21.113  0.00  0.00    +0.000 OA
BRANCH   9  13
ATOM     13  N   UNL     1       2.736   4.701  20.028  0.00  0.00    +0.000 N 
ATOM     14  C   UNL     1       1.686   3.810  19.828  0.00  0.00    +0.000 C 
ATOM     15  C   UNL     1       1.198   3.117  21.074  0.00  0.00    +0.000 C 
ATOM     16  O   UNL     1       1.150   3.555  18.752  0.00  0.00    +0.000 OA
ATOM     17  H   UNL     1       3.250   4.640  20.904  0.00  0.00    +0.000 HD
ENDBRANCH   9  13
ENDBRANCH   1   2
BRANCH   1  20
ATOM     18  C   UNL     1      -2.711  11.968  19.280  0.00  0.00    +0.000 A 
ATOM     19  C   UNL     1      -1.470  11.574  19.821  0.00  0.00    +0.000 A 
ATOM     20  C   UNL     1      -0.733  10.457  19.350  0.00  0.00    +0.000 A 
ATOM     21  C   UNL     1      -1.283   9.758  18.276  0.00  0.00    +0.000 A 
ATOM     22  C   UNL     1      -2.534  10.104  17.757  0.00  0.00    +0.000 A 
ATOM     23  C   UNL     1      -3.254  11.206  18.244  0.00  0.00    +0.000 A 
BRANCH  23  24
ATOM     24  O   UNL     1      -4.435  11.378  17.572  0.00  0.00    +0.000 OA
ATOM     25  C   UNL     1      -5.622  10.839  18.131  0.00  0.00    +0.000 C 
ENDBRANCH  23  24
BRANCH  18  26
ATOM     26  O   UNL     1      -3.409  13.055  19.744  0.00  0.00    +0.000 OA
BRANCH  26  28
ATOM     27  C   UNL     1      -5.254  12.783  21.248  0.00  0.00    +0.000 C 
ATOM     28  C   UNL     1      -3.769  13.081  21.126  0.00  0.00    +0.000 C 
ENDBRANCH  26  28
ENDBRANCH  18  26
ENDBRANCH   1  20
BRANCH   1  29
ATOM     29  C   UNL     1       0.950  10.519  21.375  0.00  0.00    +0.000 C 
BRANCH  29  30
ATOM     30  S   UNL     1      -0.103   9.828  22.623  0.00  0.00    +0.000 S 
ATOM     31  C   UNL     1      -1.247  11.113  23.034  0.00  0.00    +0.000 C 
ATOM     32  O   UNL     1      -0.869   8.781  21.967  0.00  0.00    +0.000 OA
ATOM     33  O   UNL     1       0.669   9.512  23.805  0.00  0.00    +0.000 OA
ENDBRANCH  29  30
ENDBRANCH   1  29
TORSDOF 8
ENDMDL
MODEL 2
REMARK VINA RESULT:      -7.9      2.279      3.988
REMARK  Name = 
REMARK  12 active torsions:
REMARK  status: ('A' for Active; 'I' for Inactive)
REMARK    1  A    between atoms: C_1  and  C_2
REMARK    2  A    between atoms: C_2  and  O_3
REMARK    3  A    between atoms: O_3  and  C_4
REMARK    4  A    between atoms: C_6  and  C_7
REMARK    5  A    between atoms: C_7  and  C_8
REMARK    6  A    between atoms: C_7  and  N_13
REMARK    7  A    between atoms: C_8  and  S_9
REMARK    8  A    between atoms: S_9  and  C_10
REMARK    9  A    between atoms: C_20  and  N_21
REMARK   10  A    between atoms: C_22  and  C_23
REMARK   11  A    between atoms: C_30  and  O_31
REMARK   12  A    between atoms: O_31  and  C_32
REMARK                            x       y       z     vdW  Elec       q    Type
REMARK                         _______ _______ _______ _____ _____    ______ ____
ROOT
ATOM      1  C   UNL     1       0.617  10.758  19.355  0.00  0.00    +0.000 C 
ENDROOT
BRANCH   1   2
ATOM      2  N   UNL     1       1.252   9.400  19.404  0.00  0.00    +0.000 N 
ATOM      3  C   UNL     1       1.001   8.616  20.502  0.00  0.00    +0.000 C 
ATOM      4  O   UNL     1       0.389   8.898  21.514  0.00  0.00    +0.000 OA
ATOM      5  C   UNL     1       1.587   7.313  20.265  0.00  0.00    +0.000 A 
ATOM      6  C   UNL     1       1.463   6.179  21.044  0.00  0.00    +0.000 A 
ATOM      7  C   UNL     1       2.120   5.043  20.605  0.00  0.00    +0.000 A 
ATOM      8  C   UNL     1       2.918   5.089  19.447  0.00  0.00    +0.000 A 
ATOM      9  C   UNL     1       3.047   6.254  18.662  0.00  0.00    +0.000 A 
ATOM     10  C   UNL     1       2.302   7.361  19.079  0.00  0.00    +0.000 A 
ATOM     11  C   UNL     1       2.008   8.688  18.495  0.00  0.00    +0.000 C 
ATOM     12  O   UNL     1       2.359   8.979  17.366  0.00  0.00    +0.000 OA
BRANCH   9  13
ATOM     13  N   UNL     1       3.964   6.312  17.574  0.00  0.00    +0.000 N 
ATOM     14  C   UNL     1       5.347   6.206  17.682  0.00  0.00    +0.000 C 
ATOM     15  C   UNL     1       6.114   6.677  16.472  0.00  0.00    +0.000 C 
ATOM     16  O   UNL     1       5.966   5.773  18.652  0.00  0.00    +0.000 OA
ATOM     17  H   UNL     1       3.569   6.448  16.646  0.00  0.00    +0.000 HD
ENDBRANCH   9  13
ENDBRANCH   1   2
BRANCH   1  20
ATOM     18  C   UNL     1      -2.533  10.241  17.150  0.00  0.00    +0.000 A 
ATOM     19  C   UNL     1      -1.215  10.208  17.650  0.00  0.00    +0.000 A 
ATOM     20  C   UNL     1      -0.794  10.942  18.790  0.00  0.00    +0.000 A 
ATOM     21  C   UNL     1      -1.771  11.696  19.438  0.00  0.00    +0.000 A 
ATOM     22  C   UNL     1      -3.071  11.779  18.930  0.00  0.00    +0.000 A 
ATOM     23  C   UNL     1      -3.465  11.056  17.794  0.00  0.00    +0.000 A 
BRANCH  23  24
ATOM     24  O   UNL     1      -4.785  11.263  17.494  0.00  0.00    +0.000 OA
ATOM     25  C   UNL     1      -5.756  11.057  18.507  0.00  0.00    +0.000 C 
ENDBRANCH  23  24
BRANCH  18  26
ATOM     26  O   UNL     1      -2.924   9.522  16.049  0.00  0.00    +0.000 OA
BRANCH  26  28
ATOM     27  C   UNL     1      -4.053  10.002  13.990  0.00  0.00    +0.000 C 
ATOM     28  C   UNL     1      -2.748  10.115  14.761  0.00  0.00    +0.000 C 
ENDBRANCH  26  28
ENDBRANCH  18  26
ENDBRANCH   1  20
BRANCH   1  29
ATOM     29  C   UNL     1       1.042  11.665  20.534  0.00  0.00    +0.000 C 
BRANCH  29  30
ATOM     30  S   UNL     1       1.950  13.145  20.173  0.00  0.00    +0.000 S 
ATOM     31  C   UNL     1       0.748  14.443  20.171  0.00  0.00    +0.000 C 
ATOM     32  O   UNL     1       2.813  13.376  21.320  0.00  0.00    +0.000 OA
ATOM     33  O   UNL     1       2.530  13.061  18.851  0.00  0.00    +0.000 OA
ENDBRANCH  29  30
ENDBRANCH   1  29
TORSDOF 8
ENDMDL
MODEL 3
REMARK VINA RESULT:      -7.8      1.619      1.877
REMARK  Name = 
REMARK  12 active torsions:
REMARK  status: ('A' for Active; 'I' for Inactive)
REMARK    1  A    between atoms: C_1  and  C_2
REMARK    2  A    between atoms: C_2  and  O_3
REMARK    3  A    between atoms: O_3  and  C_4
REMARK    4  A    between atoms: C_6  and  C_7
REMARK    5  A    between atoms: C_7  and  C_8
REMARK    6  A    between atoms: C_7  and  N_13
REMARK    7  A    between atoms: C_8  and  S_9
REMARK    8  A    between atoms: S_9  and  C_10
REMARK    9  A    between atoms: C_20  and  N_21
REMARK   10  A    between atoms: C_22  and  C_23
REMARK   11  A    between atoms: C_30  and  O_31
REMARK   12  A    between atoms: O_31  and  C_32
REMARK                            x       y       z     vdW  Elec       q    Type
REMARK                         _______ _______ _______ _____ _____    ______ ____
ROOT
ATOM      1  C   UNL     1       0.539  10.588  19.556  0.00  0.00    +0.000 C 
ENDROOT
BRANCH   1   2
ATOM      2  N   UNL     1       1.277   9.300  19.341  0.00  0.00    +0.000 N 
ATOM      3  C   UNL     1       2.002   9.163  18.184  0.00  0.00    +0.000 C 
ATOM      4  O   UNL     1       2.072   9.922  17.237  0.00  0.00    +0.000 OA
ATOM      5  C   UNL     1       2.738   7.919  18.262  0.00  0.00    +0.000 A 
ATOM      6  C   UNL     1       3.692   7.448  17.381  0.00  0.00    +0.000 A 
ATOM      7  C   UNL     1       4.261   6.220  17.672  0.00  0.00    +0.000 A 
ATOM      8  C   UNL     1       3.823   5.483  18.788  0.00  0.00    +0.000 A 
ATOM      9  C   UNL     1       2.841   5.967  19.677  0.00  0.00    +0.000 A 
ATOM     10  C   UNL     1       2.348   7.247  19.410  0.00  0.00    +0.000 A 
ATOM     11  C   UNL     1       1.467   8.188  20.137  0.00  0.00    +0.000 C 
ATOM     12  O   UNL     1       1.087   7.959  21.270  0.00  0.00    +0.000 OA
BRANCH   9  13
ATOM     13  N   UNL     1       2.321   5.147  20.719  0.00  0.00    +0.000 N 
ATOM     14  C   UNL     1       2.394   3.758  20.761  0.00  0.00    +0.000 C 
ATOM     15  C   UNL     1       1.455   3.104  21.742  0.00  0.00    +0.000 C 
ATOM     16  O   UNL     1       3.139   3.052  20.084  0.00  0.00    +0.000 OA
ATOM     17  H   UNL     1       1.855   5.621  21.489  0.00  0.00    +0.000 HD
ENDBRANCH   9  13
ENDBRANCH   1   2
BRANCH   1  20
ATOM     18  C   UNL     1      -3.074  11.976  19.290  0.00  0.00    +0.000 A 
ATOM     19  C   UNL     1      -1.759  11.707  19.724  0.00  0.00    +0.000 A 
ATOM     20  C   UNL     1      -0.920  10.737  19.117  0.00  0.00    +0.000 A 
ATOM     21  C   UNL     1      -1.448  10.060  18.019  0.00  0.00    +0.000 A 
ATOM     22  C   UNL     1      -2.764  10.278  17.602  0.00  0.00    +0.000 A 
ATOM     23  C   UNL     1      -3.584  11.233  18.223  0.00  0.00    +0.000 A 
BRANCH  23  24
ATOM     24  O   UNL     1      -4.819  11.300  17.636  0.00  0.00    +0.000 OA
ATOM     25  C   UNL     1      -5.934  10.759  18.327  0.00  0.00    +0.000 C 
ENDBRANCH  23  24
BRANCH  18  26
ATOM     26  O   UNL     1      -3.871  12.920  19.885  0.00  0.00    +0.000 OA
BRANCH  26  28
ATOM     27  C   UNL     1      -5.568  13.567  21.448  0.00  0.00    +0.000 C 
ATOM     28  C   UNL     1      -4.399  12.634  21.181  0.00  0.00    +0.000 C 
ENDBRANCH  26  28
ENDBRANCH  18  26
ENDBRANCH   1  20
BRANCH   1  29
ATOM     29  C   UNL     1       0.981  11.328  20.842  0.00  0.00    +0.000 C 
BRANCH  29  30
ATOM     30  S   UNL     1       1.484  13.023  20.707  0.00  0.00    +0.000 S 
ATOM     31  C   UNL     1       0.326  13.934  21.686  0.00  0.00    +0.000 C 
ATOM     32  O   UNL     1       2.767  13.116  21.382  0.00  0.00    +0.000 OA
ATOM     33  O   UNL     1       1.368  13.468  19.335  0.00  0.00    +0.000 OA
ENDBRANCH  29  30
ENDBRANCH   1  29
TORSDOF 8
ENDMDL
MODEL 4
REMARK VINA RESULT:      -7.8      0.984      2.204
REMARK  Name = 
REMARK  12 active torsions:
REMARK  status: ('A' for Active; 'I' for Inactive)
REMARK    1  A    between atoms: C_1  and  C_2
REMARK    2  A    between atoms: C_2  and  O_3
REMARK    3  A    between atoms: O_3  and  C_4
REMARK    4  A    between atoms: C_6  and  C_7
REMARK    5  A    between atoms: C_7  and  C_8
REMARK    6  A    between atoms: C_7  and  N_13
REMARK    7  A    between atoms: C_8  and  S_9
REMARK    8  A    between atoms: S_9  and  C_10
REMARK    9  A    between atoms: C_20  and  N_21
REMARK   10  A    between atoms: C_22  and  C_23
REMARK   11  A    between atoms: C_30  and  O_31
REMARK   12  A    between atoms: O_31  and  C_32
REMARK                            x       y       z     vdW  Elec       q    Type
REMARK                         _______ _______ _______ _____ _____    ______ ____
ROOT
ATOM      1  C   UNL     1       0.835  10.303  19.902  0.00  0.00    +0.000 C 
ENDROOT
BRANCH   1   2
ATOM      2  N   UNL     1       1.530   9.069  19.408  0.00  0.00    +0.000 N 
ATOM      3  C   UNL     1       2.183   9.141  18.203  0.00  0.00    +0.000 C 
ATOM      4  O   UNL     1       2.213  10.061  17.408  0.00  0.00    +0.000 OA
ATOM      5  C   UNL     1       2.895   7.896  18.005  0.00  0.00    +0.000 A 
ATOM      6  C   UNL     1       3.785   7.586  16.995  0.00  0.00    +0.000 A 
ATOM      7  C   UNL     1       4.344   6.320  17.020  0.00  0.00    +0.000 A 
ATOM      8  C   UNL     1       3.958   5.394  18.006  0.00  0.00    +0.000 A 
ATOM      9  C   UNL     1       3.041   5.716  19.029  0.00  0.00    +0.000 A 
ATOM     10  C   UNL     1       2.560   7.028  19.032  0.00  0.00    +0.000 A 
ATOM     11  C   UNL     1       1.744   7.828  19.973  0.00  0.00    +0.000 C 
ATOM     12  O   UNL     1       1.427   7.397  21.067  0.00  0.00    +0.000 OA
BRANCH   9  13
ATOM     13  N   UNL     1       2.566   4.723  19.933  0.00  0.00    +0.000 N 
ATOM     14  C   UNL     1       1.569   3.793  19.654  0.00  0.00    +0.000 C 
ATOM     15  C   UNL     1       0.979   3.115  20.865  0.00  0.00    +0.000 C 
ATOM     16  O   UNL     1       1.152   3.493  18.537  0.00  0.00    +0.000 OA
ATOM     17  H   UNL     1       2.990   4.701  20.857  0.00  0.00    +0.000 HD
ENDBRANCH   9  13
ENDBRANCH   1   2
BRANCH   1  20
ATOM     18  C   UNL     1      -2.269  10.395  17.576  0.00  0.00    +0.000 A 
ATOM     19  C   UNL     1      -0.999  10.116  18.122  0.00  0.00    +0.000 A 
ATOM     20  C   UNL     1      -0.497  10.747  19.291  0.00  0.00    +0.000 A 
ATOM     21  C   UNL     1      -1.346  11.657  19.918  0.00  0.00    +0.000 A 
ATOM     22  C   UNL     1      -2.589  11.981  19.366  0.00  0.00    +0.000 A 
ATOM     23  C   UNL     1      -3.064  11.356  18.203  0.00  0.00    +0.000 A 
BRANCH  23  24
ATOM     24  O   UNL     1      -4.312  11.803  17.860  0.00  0.00    +0.000 OA
ATOM     25  C   UNL     1      -5.229  12.126  18.893  0.00  0.00    +0.000 C 
ENDBRANCH  23  24
BRANCH  18  26
ATOM     26  O   UNL     1      -2.742   9.772  16.448  0.00  0.00    +0.000 OA
BRANCH  26  28
ATOM     27  C   UNL     1      -2.938   9.743  14.060  0.00  0.00    +0.000 C 
ATOM     28  C   UNL     1      -3.066  10.585  15.319  0.00  0.00    +0.000 C 
ENDBRANCH  26  28
ENDBRANCH  18  26
ENDBRANCH   1  20
BRANCH   1  29
ATOM     29  C   UNL     1       1.049  10.552  21.414  0.00  0.00    +0.000 C 
BRANCH  29  30
ATOM     30  S   UNL     1      -0.119   9.861  22.555  0.00  0.00    +0.000 S 
ATOM     31  C   UNL     1      -1.240  11.177  22.931  0.00  0.00    +0.000 C 
ATOM     32  O   UNL     1      -0.873   8.870  21.806  0.00  0.00    +0.000 OA
ATOM     33  O   UNL     1       0.551   9.472  23.776  0.00  0.00    +0.000 OA
ENDBRANCH  29  30
ENDBRANCH   1  29
TORSDOF 8
ENDMDL
MODEL 5
REMARK VINA RESULT:      -7.7      2.552      8.041
REMARK  Name = 
REMARK  12 active torsions:
REMARK  status: ('A' for Active; 'I' for Inactive)
REMARK    1  A    between atoms: C_1  and  C_2
REMARK    2  A    between atoms: C_2  and  O_3
REMARK    3  A    between atoms: O_3  and  C_4
REMARK    4  A    between atoms: C_6  and  C_7
REMARK    5  A    between atoms: C_7  and  C_8
REMARK    6  A    between atoms: C_7  and  N_13
REMARK    7  A    between atoms: C_8  and  S_9
REMARK    8  A    between atoms: S_9  and  C_10
REMARK    9  A    between atoms: C_20  and  N_21
REMARK   10  A    between atoms: C_22  and  C_23
REMARK   11  A    between atoms: C_30  and  O_31
REMARK   12  A    between atoms: O_31  and  C_32
REMARK                            x       y       z     vdW  Elec       q    Type
REMARK                         _______ _______ _______ _____ _____    ______ ____
ROOT
ATOM      1  C   UNL     1       0.847  10.709  19.209  0.00  0.00    +0.000 C 
ENDROOT
BRANCH   1   2
ATOM      2  N   UNL     1      -0.596  11.091  19.066  0.00  0.00    +0.000 N 
ATOM      3  C   UNL     1      -1.311  10.522  18.042  0.00  0.00    +0.000 C 
ATOM      4  O   UNL     1      -0.915   9.794  17.152  0.00  0.00    +0.000 OA
ATOM      5  C   UNL     1      -2.696  10.916  18.190  0.00  0.00    +0.000 A 
ATOM      6  C   UNL     1      -3.782  10.469  17.462  0.00  0.00    +0.000 A 
ATOM      7  C   UNL     1      -5.018  10.996  17.793  0.00  0.00    +0.000 A 
ATOM      8  C   UNL     1      -5.123  11.985  18.788  0.00  0.00    +0.000 A 
ATOM      9  C   UNL     1      -4.007  12.444  19.520  0.00  0.00    +0.000 A 
ATOM     10  C   UNL     1      -2.786  11.830  19.228  0.00  0.00    +0.000 A 
ATOM     11  C   UNL     1      -1.438  11.869  19.836  0.00  0.00    +0.000 C 
ATOM     12  O   UNL     1      -1.226  12.460  20.879  0.00  0.00    +0.000 OA
BRANCH   9  13
ATOM     13  N   UNL     1      -4.118  13.537  20.426  0.00  0.00    +0.000 N 
ATOM     14  C   UNL     1      -4.539  13.446  21.749  0.00  0.00    +0.000 C 
ATOM     15  C   UNL     1      -4.940  14.756  22.378  0.00  0.00    +0.000 C 
ATOM     16  O   UNL     1      -4.605  12.416  22.417  0.00  0.00    +0.000 OA
ATOM     17  H   UNL     1      -3.873  14.458  20.069  0.00  0.00    +0.000 HD
ENDBRANCH   9  13
ENDBRANCH   1   2
BRANCH   1  20
ATOM     18  C   UNL     1       2.458   7.228  18.630  0.00  0.00    +0.000 A 
ATOM     19  C   UNL     1       1.955   8.531  18.439  0.00  0.00    +0.000 A 
ATOM     20  C   UNL     1       1.252   9.251  19.440  0.00  0.00    +0.000 A 
ATOM     21  C   UNL     1       1.100   8.614  20.671  0.00  0.00    +0.000 A 
ATOM     22  C   UNL     1       1.550   7.305  20.865  0.00  0.00    +0.000 A 
ATOM     23  C   UNL     1       2.232   6.604  19.859  0.00  0.00    +0.000 A 
BRANCH  23  24
ATOM     24  O   UNL     1       2.606   5.354  20.275  0.00  0.00    +0.000 OA
ATOM     25  C   UNL     1       1.597   4.410  20.593  0.00  0.00    +0.000 C 
ENDBRANCH  23  24
BRANCH  18  26
ATOM     26  O   UNL     1       3.140   6.547  17.653  0.00  0.00    +0.000 OA
BRANCH  26  28
ATOM     27  C   UNL     1       5.038   6.623  16.192  0.00  0.00    +0.000 C 
ATOM     28  C   UNL     1       4.565   6.645  17.636  0.00  0.00    +0.000 C 
ENDBRANCH  26  28
ENDBRANCH  18  26
ENDBRANCH   1  20
BRANCH   1  29
ATOM     29  C   UNL     1       1.791  11.589  18.353  0.00  0.00    +0.000 C 
BRANCH  29  30
ATOM     30  S   UNL     1       2.054  13.271  18.849  0.00  0.00    +0.000 S 
ATOM     31  C   UNL     1       2.212  13.220  20.610  0.00  0.00    +0.000 C 
ATOM     32  O   UNL     1       3.356  13.645  18.323  0.00  0.00    +0.000 OA
ATOM     33  O   UNL     1       0.896  14.072  18.520  0.00  0.00    +0.000 OA
ENDBRANCH  29  30
ENDBRANCH   1  29
TORSDOF 8
ENDMDL
MODEL 6
REMARK VINA RESULT:      -7.7      2.334      4.084
REMARK  Name = 
REMARK  12 active torsions:
REMARK  status: ('A' for Active; 'I' for Inactive)
REMARK    1  A    between atoms: C_1  and  C_2
REMARK    2  A    between atoms: C_2  and  O_3
REMARK    3  A    between atoms: O_3  and  C_4
REMARK    4  A    between atoms: C_6  and  C_7
REMARK    5  A    between atoms: C_7  and  C_8
REMARK    6  A    between atoms: C_7  and  N_13
REMARK    7  A    between atoms: C_8  and  S_9
REMARK    8  A    between atoms: S_9  and  C_10
REMARK    9  A    between atoms: C_20  and  N_21
REMARK   10  A    between atoms: C_22  and  C_23
REMARK   11  A    between atoms: C_30  and  O_31
REMARK   12  A    between atoms: O_31  and  C_32
REMARK                            x       y       z     vdW  Elec       q    Type
REMARK                         _______ _______ _______ _____ _____    ______ ____
ROOT
ATOM      1  C   UNL     1       0.765  11.124  19.237  0.00  0.00    +0.000 C 
ENDROOT
BRANCH   1   2
ATOM      2  N   UNL     1       1.288   9.721  19.317  0.00  0.00    +0.000 N 
ATOM      3  C   UNL     1       1.037   9.008  20.462  0.00  0.00    +0.000 C 
ATOM      4  O   UNL     1       0.510   9.384  21.491  0.00  0.00    +0.000 OA
ATOM      5  C   UNL     1       1.499   7.652  20.256  0.00  0.00    +0.000 A 
ATOM      6  C   UNL     1       1.328   6.566  21.093  0.00  0.00    +0.000 A 
ATOM      7  C   UNL     1       1.863   5.361  20.673  0.00  0.00    +0.000 A 
ATOM      8  C   UNL     1       2.595   5.290  19.473  0.00  0.00    +0.000 A 
ATOM      9  C   UNL     1       2.773   6.406  18.628  0.00  0.00    +0.000 A 
ATOM     10  C   UNL     1       2.147   7.589  19.031  0.00  0.00    +0.000 A 
ATOM     11  C   UNL     1       1.929   8.909  18.402  0.00  0.00    +0.000 C 
ATOM     12  O   UNL     1       2.237   9.122  17.244  0.00  0.00    +0.000 OA
BRANCH   9  13
ATOM     13  N   UNL     1       3.628   6.340  17.490  0.00  0.00    +0.000 N 
ATOM     14  C   UNL     1       5.012   6.205  17.532  0.00  0.00    +0.000 C 
ATOM     15  C   UNL     1       5.720   6.543  16.245  0.00  0.00    +0.000 C 
ATOM     16  O   UNL     1       5.674   5.842  18.502  0.00  0.00    +0.000 OA
ATOM     17  H   UNL     1       3.184   6.404  16.577  0.00  0.00    +0.000 HD
ENDBRANCH   9  13
ENDBRANCH   1   2
BRANCH   1  20
ATOM     18  C   UNL     1      -2.782  10.930  17.678  0.00  0.00    +0.000 A 
ATOM     19  C   UNL     1      -1.392  10.821  17.889  0.00  0.00    +0.000 A 
ATOM     20  C   UNL     1      -0.724  11.392  19.003  0.00  0.00    +0.000 A 
ATOM     21  C   UNL     1      -1.523  12.060  19.930  0.00  0.00    +0.000 A 
ATOM     22  C   UNL     1      -2.896  12.220  19.715  0.00  0.00    +0.000 A 
ATOM     23  C   UNL     1      -3.536  11.658  18.601  0.00  0.00    +0.000 A 
BRANCH  23  24
ATOM     24  O   UNL     1      -4.882  11.913  18.607  0.00  0.00    +0.000 OA
ATOM     25  C   UNL     1      -5.413  12.752  19.620  0.00  0.00    +0.000 C 
ENDBRANCH  23  24
BRANCH  18  26
ATOM     26  O   UNL     1      -3.413  10.368  16.598  0.00  0.00    +0.000 OA
BRANCH  26  28
ATOM     27  C   UNL     1      -3.636   9.935  14.251  0.00  0.00    +0.000 C 
ATOM     28  C   UNL     1      -3.148  10.915  15.305  0.00  0.00    +0.000 C 
ENDBRANCH  26  28
ENDBRANCH  18  26
ENDBRANCH   1  20
BRANCH   1  29
ATOM     29  C   UNL     1       1.536  12.108  20.150  0.00  0.00    +0.000 C 
BRANCH  29  30
ATOM     30  S   UNL     1       2.203  13.582  19.426  0.00  0.00    +0.000 S 
ATOM     31  C   UNL     1       3.386  14.184  20.595  0.00  0.00    +0.000 C 
ATOM     32  O   UNL     1       2.952  13.152  18.257  0.00  0.00    +0.000 OA
ATOM     33  O   UNL     1       1.163  14.577  19.278  0.00  0.00    +0.000 OA
ENDBRANCH  29  30
ENDBRANCH   1  29
TORSDOF 8
ENDMDL
MODEL 7
REMARK VINA RESULT:      -7.6      2.011      3.369
REMARK  Name = 
REMARK  12 active torsions:
REMARK  status: ('A' for Active; 'I' for Inactive)
REMARK    1  A    between atoms: C_1  and  C_2
REMARK    2  A    between atoms: C_2  and  O_3
REMARK    3  A    between atoms: O_3  and  C_4
REMARK    4  A    between atoms: C_6  and  C_7
REMARK    5  A    between atoms: C_7  and  C_8
REMARK    6  A    between atoms: C_7  and  N_13
REMARK    7  A    between atoms: C_8  and  S_9
REMARK    8  A    between atoms: S_9  and  C_10
REMARK    9  A    between atoms: C_20  and  N_21
REMARK   10  A    between atoms: C_22  and  C_23
REMARK   11  A    between atoms: C_30  and  O_31
REMARK   12  A    between atoms: O_31  and  C_32
REMARK                            x       y       z     vdW  Elec       q    Type
REMARK                         _______ _______ _______ _____ _____    ______ ____
ROOT
ATOM      1  C   UNL     1       0.572  10.816  19.092  0.00  0.00    +0.000 C 
ENDROOT
BRANCH   1   2
ATOM      2  N   UNL     1       1.262   9.488  19.189  0.00  0.00    +0.000 N 
ATOM      3  C   UNL     1       1.032   8.727  20.308  0.00  0.00    +0.000 C 
ATOM      4  O   UNL     1       0.398   9.014  21.305  0.00  0.00    +0.000 OA
ATOM      5  C   UNL     1       1.674   7.444  20.116  0.00  0.00    +0.000 A 
ATOM      6  C   UNL     1       1.588   6.329  20.928  0.00  0.00    +0.000 A 
ATOM      7  C   UNL     1       2.297   5.209  20.530  0.00  0.00    +0.000 A 
ATOM      8  C   UNL     1       3.106   5.254  19.379  0.00  0.00    +0.000 A 
ATOM      9  C   UNL     1       3.195   6.400  18.561  0.00  0.00    +0.000 A 
ATOM     10  C   UNL     1       2.400   7.486  18.936  0.00  0.00    +0.000 A 
ATOM     11  C   UNL     1       2.058   8.782  18.309  0.00  0.00    +0.000 C 
ATOM     12  O   UNL     1       2.409   9.054  17.175  0.00  0.00    +0.000 OA
BRANCH   9  13
ATOM     13  N   UNL     1       4.121   6.464  17.480  0.00  0.00    +0.000 N 
ATOM     14  C   UNL     1       4.560   5.376  16.733  0.00  0.00    +0.000 C 
ATOM     15  C   UNL     1       5.804   5.628  15.918  0.00  0.00    +0.000 C 
ATOM     16  O   UNL     1       4.029   4.268  16.687  0.00  0.00    +0.000 OA
ATOM     17  H   UNL     1       4.491   7.381  17.245  0.00  0.00    +0.000 HD
ENDBRANCH   9  13
ENDBRANCH   1   2
BRANCH   1  20
ATOM     18  C   UNL     1      -3.088  12.067  19.387  0.00  0.00    +0.000 A 
ATOM     19  C   UNL     1      -1.710  11.860  19.605  0.00  0.00    +0.000 A 
ATOM     20  C   UNL     1      -0.944  10.898  18.898  0.00  0.00    +0.000 A 
ATOM     21  C   UNL     1      -1.618  10.162  17.924  0.00  0.00    +0.000 A 
ATOM     22  C   UNL     1      -2.993  10.319  17.726  0.00  0.00    +0.000 A 
ATOM     23  C   UNL     1      -3.737  11.267  18.445  0.00  0.00    +0.000 A 
BRANCH  23  24
ATOM     24  O   UNL     1      -5.054  11.270  18.069  0.00  0.00    +0.000 OA
ATOM     25  C   UNL     1      -5.473  12.172  17.058  0.00  0.00    +0.000 C 
ENDBRANCH  23  24
BRANCH  18  26
ATOM     26  O   UNL     1      -3.813  13.005  20.077  0.00  0.00    +0.000 OA
BRANCH  26  28
ATOM     27  C   UNL     1      -5.963  13.081  21.135  0.00  0.00    +0.000 C 
ATOM     28  C   UNL     1      -4.532  12.580  21.237  0.00  0.00    +0.000 C 
ENDBRANCH  26  28
ENDBRANCH  18  26
ENDBRANCH   1  20
BRANCH   1  29
ATOM     29  C   UNL     1       1.245  11.910  19.957  0.00  0.00    +0.000 C 
BRANCH  29  30
ATOM     30  S   UNL     1       1.944  13.319  19.139  0.00  0.00    +0.000 S 
ATOM     31  C   UNL     1       2.976  14.097  20.346  0.00  0.00    +0.000 C 
ATOM     32  O   UNL     1       2.827  12.790  18.113  0.00  0.00    +0.000 OA
ATOM     33  O   UNL     1       0.898  14.247  18.768  0.00  0.00    +0.000 OA
ENDBRANCH  29  30
ENDBRANCH   1  29
TORSDOF 8
ENDMDL
MODEL 8
REMARK VINA RESULT:      -7.5      2.041      3.312
REMARK  Name = 
REMARK  12 active torsions:
REMARK  status: ('A' for Active; 'I' for Inactive)
REMARK    1  A    between atoms: C_1  and  C_2
REMARK    2  A    between atoms: C_2  and  O_3
REMARK    3  A    between atoms: O_3  and  C_4
REMARK    4  A    between atoms: C_6  and  C_7
REMARK    5  A    between atoms: C_7  and  C_8
REMARK    6  A    between atoms: C_7  and  N_13
REMARK    7  A    between atoms: C_8  and  S_9
REMARK    8  A    between atoms: S_9  and  C_10
REMARK    9  A    between atoms: C_20  and  N_21
REMARK   10  A    between atoms: C_22  and  C_23
REMARK   11  A    between atoms: C_30  and  O_31
REMARK   12  A    between atoms: O_31  and  C_32
REMARK                            x       y       z     vdW  Elec       q    Type
REMARK                         _______ _______ _______ _____ _____    ______ ____
ROOT
ATOM      1  C   UNL     1       0.592  10.639  19.371  0.00  0.00    +0.000 C 
ENDROOT
BRANCH   1   2
ATOM      2  N   UNL     1       1.264   9.298  19.407  0.00  0.00    +0.000 N 
ATOM      3  C   UNL     1       1.023   8.491  20.490  0.00  0.00    +0.000 C 
ATOM      4  O   UNL     1       0.392   8.740  21.499  0.00  0.00    +0.000 OA
ATOM      5  C   UNL     1       1.648   7.209  20.240  0.00  0.00    +0.000 A 
ATOM      6  C   UNL     1       1.548   6.060  21.000  0.00  0.00    +0.000 A 
ATOM      7  C   UNL     1       2.242   4.950  20.552  0.00  0.00    +0.000 A 
ATOM      8  C   UNL     1       3.052   5.036  19.405  0.00  0.00    +0.000 A 
ATOM      9  C   UNL     1       3.156   6.217  18.639  0.00  0.00    +0.000 A 
ATOM     10  C   UNL     1       2.376   7.296  19.063  0.00  0.00    +0.000 A 
ATOM     11  C   UNL     1       2.051   8.623  18.496  0.00  0.00    +0.000 C 
ATOM     12  O   UNL     1       2.406   8.941  17.376  0.00  0.00    +0.000 OA
BRANCH   9  13
ATOM     13  N   UNL     1       4.084   6.318  17.563  0.00  0.00    +0.000 N 
ATOM     14  C   UNL     1       5.464   6.185  17.676  0.00  0.00    +0.000 C 
ATOM     15  C   UNL     1       6.249   6.706  16.500  0.00  0.00    +0.000 C 
ATOM     16  O   UNL     1       6.067   5.691  18.627  0.00  0.00    +0.000 OA
ATOM     17  H   UNL     1       3.700   6.509  16.641  0.00  0.00    +0.000 HD
ENDBRANCH   9  13
ENDBRANCH   1   2
BRANCH   1  20
ATOM     18  C   UNL     1      -3.062  11.918  19.112  0.00  0.00    +0.000 A 
ATOM     19  C   UNL     1      -1.750  11.660  19.562  0.00  0.00    +0.000 A 
ATOM     20  C   UNL     1      -0.860  10.773  18.902  0.00  0.00    +0.000 A 
ATOM     21  C   UNL     1      -1.332  10.173  17.736  0.00  0.00    +0.000 A 
ATOM     22  C   UNL     1      -2.644  10.380  17.300  0.00  0.00    +0.000 A 
ATOM     23  C   UNL     1      -3.515  11.251  17.973  0.00  0.00    +0.000 A 
BRANCH  23  24
ATOM     24  O   UNL     1      -4.736  11.324  17.356  0.00  0.00    +0.000 OA
ATOM     25  C   UNL     1      -5.891  10.935  18.081  0.00  0.00    +0.000 C 
ENDBRANCH  23  24
BRANCH  18  26
ATOM     26  O   UNL     1      -3.909  12.782  19.759  0.00  0.00    +0.000 OA
BRANCH  26  28
ATOM     27  C   UNL     1      -4.364  13.029  22.099  0.00  0.00    +0.000 C 
ATOM     28  C   UNL     1      -3.442  13.412  20.953  0.00  0.00    +0.000 C 
ENDBRANCH  26  28
ENDBRANCH  18  26
ENDBRANCH   1  20
BRANCH   1  29
ATOM     29  C   UNL     1       1.073  11.586  20.496  0.00  0.00    +0.000 C 
BRANCH  29  30
ATOM     30  S   UNL     1       1.963  13.050  20.041  0.00  0.00    +0.000 S 
ATOM     31  C   UNL     1       0.734  14.309  19.861  0.00  0.00    +0.000 C 
ATOM     32  O   UNL     1       2.763  13.410  21.200  0.00  0.00    +0.000 OA
ATOM     33  O   UNL     1       2.611  12.860  18.762  0.00  0.00    +0.000 OA
ENDBRANCH  29  30
ENDBRANCH   1  29
TORSDOF 8
ENDMDL
MODEL 9
REMARK VINA RESULT:      -7.5      3.581      7.319
REMARK  Name = 
REMARK  12 active torsions:
REMARK  status: ('A' for Active; 'I' for Inactive)
REMARK    1  A    between atoms: C_1  and  C_2
REMARK    2  A    between atoms: C_2  and  O_3
REMARK    3  A    between atoms: O_3  and  C_4
REMARK    4  A    between atoms: C_6  and  C_7
REMARK    5  A    between atoms: C_7  and  C_8
REMARK    6  A    between atoms: C_7  and  N_13
REMARK    7  A    between atoms: C_8  and  S_9
REMARK    8  A    between atoms: S_9  and  C_10
REMARK    9  A    between atoms: C_20  and  N_21
REMARK   10  A    between atoms: C_22  and  C_23
REMARK   11  A    between atoms: C_30  and  O_31
REMARK   12  A    between atoms: O_31  and  C_32
REMARK                            x       y       z     vdW  Elec       q    Type
REMARK                         _______ _______ _______ _____ _____    ______ ____
ROOT
ATOM      1  C   UNL     1      -0.317  11.632  20.801  0.00  0.00    +0.000 C 
ENDROOT
BRANCH   1   2
ATOM      2  N   UNL     1      -1.234  11.481  19.623  0.00  0.00    +0.000 N 
ATOM      3  C   UNL     1      -0.793  10.733  18.561  0.00  0.00    +0.000 C 
ATOM      4  O   UNL     1       0.299  10.226  18.389  0.00  0.00    +0.000 OA
ATOM      5  C   UNL     1      -1.886  10.605  17.620  0.00  0.00    +0.000 A 
ATOM      6  C   UNL     1      -1.928   9.828  16.479  0.00  0.00    +0.000 A 
ATOM      7  C   UNL     1      -3.095   9.870  15.735  0.00  0.00    +0.000 A 
ATOM      8  C   UNL     1      -4.149  10.721  16.118  0.00  0.00    +0.000 A 
ATOM      9  C   UNL     1      -4.093  11.519  17.281  0.00  0.00    +0.000 A 
ATOM     10  C   UNL     1      -2.941  11.389  18.060  0.00  0.00    +0.000 A 
ATOM     11  C   UNL     1      -2.535  11.882  19.395  0.00  0.00    +0.000 C 
ATOM     12  O   UNL     1      -3.315  12.471  20.121  0.00  0.00    +0.000 OA
BRANCH   9  13
ATOM     13  N   UNL     1      -5.114  12.468  17.573  0.00  0.00    +0.000 N 
ATOM     14  C   UNL     1      -6.433  12.158  17.891  0.00  0.00    +0.000 C 
ATOM     15  C   UNL     1      -7.398  13.310  17.779  0.00  0.00    +0.000 C 
ATOM     16  O   UNL     1      -6.852  11.058  18.244  0.00  0.00    +0.000 OA
ATOM     17  H   UNL     1      -4.853  13.450  17.538  0.00  0.00    +0.000 HD
ENDBRANCH   9  13
ENDBRANCH   1   2
BRANCH   1  20
ATOM     18  C   UNL     1       2.458  14.292  20.280  0.00  0.00    +0.000 A 
ATOM     19  C   UNL     1       1.709  13.098  20.245  0.00  0.00    +0.000 A 
ATOM     20  C   UNL     1       0.515  12.904  20.987  0.00  0.00    +0.000 A 
ATOM     21  C   UNL     1       0.078  13.984  21.752  0.00  0.00    +0.000 A 
ATOM     22  C   UNL     1       0.831  15.159  21.837  0.00  0.00    +0.000 A 
ATOM     23  C   UNL     1       2.016  15.328  21.105  0.00  0.00    +0.000 A 
BRANCH  23  24
ATOM     24  O   UNL     1       2.572  16.562  21.315  0.00  0.00    +0.000 OA
ATOM     25  C   UNL     1       1.791  17.562  21.949  0.00  0.00    +0.000 C 
ENDBRANCH  23  24
BRANCH  18  26
ATOM     26  O   UNL     1       3.609  14.465  19.552  0.00  0.00    +0.000 OA
BRANCH  26  28
ATOM     27  C   UNL     1       3.356  15.921  17.666  0.00  0.00    +0.000 C 
ATOM     28  C   UNL     1       3.507  14.481  18.127  0.00  0.00    +0.000 C 
ENDBRANCH  26  28
ENDBRANCH  18  26
ENDBRANCH   1  20
BRANCH   1  29
ATOM     29  C   UNL     1      -0.850  10.931  22.074  0.00  0.00    +0.000 C 
BRANCH  29  30
ATOM     30  S   UNL     1      -0.070   9.426  22.595  0.00  0.00    +0.000 S 
ATOM     31  C   UNL     1       1.417   9.316  21.644  0.00  0.00    +0.000 C 
ATOM     32  O   UNL     1       0.331   9.639  23.976  0.00  0.00    +0.000 OA
ATOM     33  O   UNL     1      -0.906   8.293  22.263  0.00  0.00    +0.000 OA
ENDBRANCH  29  30
ENDBRANCH   1  29
TORSDOF 8
ENDMDL
