MODEL 1
REMARK VINA RESULT:      -7.0      0.000      0.000
REMARK  Name = 
REMARK  4 active torsions:
REMARK  status: ('A' for Active; 'I' for Inactive)
REMARK    1  A    between atoms: C_1  and  C_2
REMARK    2  A    between atoms: N_6  and  S_7
REMARK    3  A    between atoms: S_7  and  C_10
REMARK    4  A    between atoms: C_13  and  N_14
REMARK                            x       y       z     vdW  Elec       q    Type
REMARK                         _______ _______ _______ _____ _____    ______ ____
ROOT
ATOM      1  S   UNL     1       4.156   5.722  18.905  0.00  0.00    +0.000 S 
ATOM      2  O   UNL     1       3.535   7.026  18.794  0.00  0.00    +0.000 OA
ATOM      3  O   UNL     1       5.191   5.457  19.879  0.00  0.00    +0.000 OA
ENDROOT
BRANCH   1   9
ATOM      4  C   UNL     1       1.273   2.834  21.196  0.00  0.00    +0.000 C 
ATOM      5  C   UNL     1       2.190   2.339  20.076  0.00  0.00    +0.000 C 
ATOM      6  C   UNL     1       1.425   2.059  18.781  0.00  0.00    +0.000 C 
ATOM      7  C   UNL     1       0.946   3.351  18.134  0.00  0.00    +0.000 C 
ATOM      8  C   UNL     1       2.112   4.293  17.865  0.00  0.00    +0.000 C 
ATOM      9  N   UNL     1       2.916   4.537  19.090  0.00  0.00    +0.000 NA
ATOM     10  C   UNL     1       3.348   3.306  19.811  0.00  0.00    +0.000 C 
ENDBRANCH   1   9
BRANCH   1  11
ATOM     11  C   UNL     1       4.836   5.323  17.293  0.00  0.00    +0.000 A 
ATOM     12  C   UNL     1       5.325   4.038  17.040  0.00  0.00    +0.000 A 
ATOM     13  C   UNL     1       5.921   3.757  15.805  0.00  0.00    +0.000 A 
ATOM     14  C   UNL     1       6.001   4.762  14.830  0.00  0.00    +0.000 A 
ATOM     15  C   UNL     1       5.470   6.038  15.070  0.00  0.00    +0.000 A 
ATOM     16  C   UNL     1       4.873   6.312  16.303  0.00  0.00    +0.000 A 
BRANCH  14  17
ATOM     17  N   UNL     1       6.656   4.480  13.545  0.00  0.00    +0.000 N 
ATOM     18  O   UNL     1       6.302   3.465  12.929  0.00  0.00    +0.000 OA
ATOM     19  O   UNL     1       7.534   5.267  13.161  0.00  0.00    +0.000 OA
ENDBRANCH  14  17
ENDBRANCH   1  11
TORSDOF 3
ENDMDL
MODEL 2
REMARK VINA RESULT:      -7.0      1.458      2.074
REMARK  Name = 
REMARK  4 active torsions:
REMARK  status: ('A' for Active; 'I' for Inactive)
REMARK    1  A    between atoms: C_1  and  C_2
REMARK    2  A    between atoms: N_6  and  S_7
REMARK    3  A    between atoms: S_7  and  C_10
REMARK    4  A    between atoms: C_13  and  N_14
REMARK                            x       y       z     vdW  Elec       q    Type
REMARK                         _______ _______ _______ _____ _____    ______ ____
ROOT
ATOM      1  S   UNL     1       5.717   5.218  18.290  0.00  0.00    +0.000 S 
ATOM      2  O   UNL     1       5.443   6.637  18.390  0.00  0.00    +0.000 OA
ATOM      3  O   UNL     1       6.829   4.612  18.988  0.00  0.00    +0.000 OA
ENDROOT
BRANCH   1   9
ATOM      4  C   UNL     1       1.223   3.954  17.972  0.00  0.00    +0.000 C 
ATOM      5  C   UNL     1       1.839   4.424  19.292  0.00  0.00    +0.000 C 
ATOM      6  C   UNL     1       2.084   3.266  20.261  0.00  0.00    +0.000 C 
ATOM      7  C   UNL     1       3.222   2.376  19.779  0.00  0.00    +0.000 C 
ATOM      8  C   UNL     1       4.500   3.181  19.581  0.00  0.00    +0.000 C 
ATOM      9  N   UNL     1       4.281   4.352  18.694  0.00  0.00    +0.000 NA
ATOM     10  C   UNL     1       3.130   5.219  19.073  0.00  0.00    +0.000 C 
ENDBRANCH   1   9
BRANCH   1  11
ATOM     11  C   UNL     1       5.921   4.841  16.548  0.00  0.00    +0.000 A 
ATOM     12  C   UNL     1       4.891   4.210  15.845  0.00  0.00    +0.000 A 
ATOM     13  C   UNL     1       5.085   3.853  14.506  0.00  0.00    +0.000 A 
ATOM     14  C   UNL     1       6.305   4.153  13.880  0.00  0.00    +0.000 A 
ATOM     15  C   UNL     1       7.321   4.826  14.574  0.00  0.00    +0.000 A 
ATOM     16  C   UNL     1       7.119   5.183  15.910  0.00  0.00    +0.000 A 
BRANCH  14  17
ATOM     17  N   UNL     1       6.526   3.750  12.484  0.00  0.00    +0.000 N 
ATOM     18  O   UNL     1       5.864   2.798  12.048  0.00  0.00    +0.000 OA
ATOM     19  O   UNL     1       7.371   4.378  11.830  0.00  0.00    +0.000 OA
ENDBRANCH  14  17
ENDBRANCH   1  11
TORSDOF 3
ENDMDL
MODEL 3
REMARK VINA RESULT:      -7.0      1.559      2.259
REMARK  Name = 
REMARK  4 active torsions:
REMARK  status: ('A' for Active; 'I' for Inactive)
REMARK    1  A    between atoms: C_1  and  C_2
REMARK    2  A    between atoms: N_6  and  S_7
REMARK    3  A    between atoms: S_7  and  C_10
REMARK    4  A    between atoms: C_13  and  N_14
REMARK                            x       y       z     vdW  Elec       q    Type
REMARK                         _______ _______ _______ _____ _____    ______ ____
ROOT
ATOM      1  S   UNL     1       5.871   5.203  18.220  0.00  0.00    +0.000 S 
ATOM      2  O   UNL     1       5.646   6.635  18.234  0.00  0.00    +0.000 OA
ATOM      3  O   UNL     1       6.944   4.599  18.977  0.00  0.00    +0.000 OA
ENDROOT
BRANCH   1   9
ATOM      4  C   UNL     1       1.340   4.086  17.868  0.00  0.00    +0.000 C 
ATOM      5  C   UNL     1       1.946   4.603  19.174  0.00  0.00    +0.000 C 
ATOM      6  C   UNL     1       2.129   3.490  20.208  0.00  0.00    +0.000 C 
ATOM      7  C   UNL     1       3.242   2.536  19.798  0.00  0.00    +0.000 C 
ATOM      8  C   UNL     1       4.553   3.282  19.587  0.00  0.00    +0.000 C 
ATOM      9  N   UNL     1       4.396   4.412  18.636  0.00  0.00    +0.000 NA
ATOM     10  C   UNL     1       3.270   5.338  18.943  0.00  0.00    +0.000 C 
ENDBRANCH   1   9
BRANCH   1  11
ATOM     11  C   UNL     1       6.100   4.722  16.506  0.00  0.00    +0.000 A 
ATOM     12  C   UNL     1       7.222   5.165  15.801  0.00  0.00    +0.000 A 
ATOM     13  C   UNL     1       7.356   4.846  14.445  0.00  0.00    +0.000 A 
ATOM     14  C   UNL     1       6.372   4.067  13.816  0.00  0.00    +0.000 A 
ATOM     15  C   UNL     1       5.270   3.587  14.537  0.00  0.00    +0.000 A 
ATOM     16  C   UNL     1       5.143   3.906  15.892  0.00  0.00    +0.000 A 
BRANCH  14  17
ATOM     17  N   UNL     1       6.493   3.759  12.384  0.00  0.00    +0.000 N 
ATOM     18  O   UNL     1       5.732   2.902  11.914  0.00  0.00    +0.000 OA
ATOM     19  O   UNL     1       7.357   4.366  11.736  0.00  0.00    +0.000 OA
ENDBRANCH  14  17
ENDBRANCH   1  11
TORSDOF 3
ENDMDL
MODEL 4
REMARK VINA RESULT:      -7.0      0.584      1.449
REMARK  Name = 
REMARK  4 active torsions:
REMARK  status: ('A' for Active; 'I' for Inactive)
REMARK    1  A    between atoms: C_1  and  C_2
REMARK    2  A    between atoms: N_6  and  S_7
REMARK    3  A    between atoms: S_7  and  C_10
REMARK    4  A    between atoms: C_13  and  N_14
REMARK                            x       y       z     vdW  Elec       q    Type
REMARK                         _______ _______ _______ _____ _____    ______ ____
ROOT
ATOM      1  S   UNL     1       4.233   5.750  18.909  0.00  0.00    +0.000 S 
ATOM      2  O   UNL     1       3.469   6.973  18.763  0.00  0.00    +0.000 OA
ATOM      3  O   UNL     1       5.325   5.649  19.852  0.00  0.00    +0.000 OA
ENDROOT
BRANCH   1   9
ATOM      4  C   UNL     1       1.961   1.758  18.017  0.00  0.00    +0.000 C 
ATOM      5  C   UNL     1       1.219   3.047  18.378  0.00  0.00    +0.000 C 
ATOM      6  C   UNL     1       0.677   3.023  19.808  0.00  0.00    +0.000 C 
ATOM      7  C   UNL     1       1.806   3.113  20.826  0.00  0.00    +0.000 C 
ATOM      8  C   UNL     1       2.648   4.362  20.600  0.00  0.00    +0.000 C 
ATOM      9  N   UNL     1       3.138   4.450  19.201  0.00  0.00    +0.000 NA
ATOM     10  C   UNL     1       2.086   4.290  18.157  0.00  0.00    +0.000 C 
ENDBRANCH   1   9
BRANCH   1  11
ATOM     11  C   UNL     1       4.895   5.346  17.292  0.00  0.00    +0.000 A 
ATOM     12  C   UNL     1       5.374   4.058  17.035  0.00  0.00    +0.000 A 
ATOM     13  C   UNL     1       5.955   3.771  15.795  0.00  0.00    +0.000 A 
ATOM     14  C   UNL     1       6.032   4.774  14.817  0.00  0.00    +0.000 A 
ATOM     15  C   UNL     1       5.511   6.053  15.061  0.00  0.00    +0.000 A 
ATOM     16  C   UNL     1       4.928   6.333  16.300  0.00  0.00    +0.000 A 
BRANCH  14  17
ATOM     17  N   UNL     1       6.673   4.486  13.526  0.00  0.00    +0.000 N 
ATOM     18  O   UNL     1       6.297   3.480  12.910  0.00  0.00    +0.000 OA
ATOM     19  O   UNL     1       7.560   5.261  13.139  0.00  0.00    +0.000 OA
ENDBRANCH  14  17
ENDBRANCH   1  11
TORSDOF 3
ENDMDL
MODEL 5
REMARK VINA RESULT:      -6.9      1.205      2.266
REMARK  Name = 
REMARK  4 active torsions:
REMARK  status: ('A' for Active; 'I' for Inactive)
REMARK    1  A    between atoms: C_1  and  C_2
REMARK    2  A    between atoms: N_6  and  S_7
REMARK    3  A    between atoms: S_7  and  C_10
REMARK    4  A    between atoms: C_13  and  N_14
REMARK                            x       y       z     vdW  Elec       q    Type
REMARK                         _______ _______ _______ _____ _____    ______ ____
ROOT
ATOM      1  S   UNL     1       2.643   6.247  18.554  0.00  0.00    +0.000 S 
ATOM      2  O   UNL     1       1.459   6.585  17.789  0.00  0.00    +0.000 OA
ATOM      3  O   UNL     1       3.228   7.179  19.492  0.00  0.00    +0.000 OA
ENDROOT
BRANCH   1   9
ATOM      4  C   UNL     1       2.200   1.612  19.014  0.00  0.00    +0.000 C 
ATOM      5  C   UNL     1       1.105   2.578  19.473  0.00  0.00    +0.000 C 
ATOM      6  C   UNL     1       1.061   2.722  20.995  0.00  0.00    +0.000 C 
ATOM      7  C   UNL     1       2.274   3.484  21.511  0.00  0.00    +0.000 C 
ATOM      8  C   UNL     1       2.380   4.854  20.853  0.00  0.00    +0.000 C 
ATOM      9  N   UNL     1       2.361   4.755  19.371  0.00  0.00    +0.000 NA
ATOM     10  C   UNL     1       1.237   3.953  18.811  0.00  0.00    +0.000 C 
ENDBRANCH   1   9
BRANCH   1  11
ATOM     11  C   UNL     1       3.924   5.810  17.377  0.00  0.00    +0.000 A 
ATOM     12  C   UNL     1       4.660   6.814  16.740  0.00  0.00    +0.000 A 
ATOM     13  C   UNL     1       5.606   6.467  15.770  0.00  0.00    +0.000 A 
ATOM     14  C   UNL     1       5.820   5.114  15.463  0.00  0.00    +0.000 A 
ATOM     15  C   UNL     1       5.113   4.107  16.135  0.00  0.00    +0.000 A 
ATOM     16  C   UNL     1       4.171   4.459  17.106  0.00  0.00    +0.000 A 
BRANCH  14  17
ATOM     17  N   UNL     1       6.789   4.748  14.421  0.00  0.00    +0.000 N 
ATOM     18  O   UNL     1       7.808   5.444  14.312  0.00  0.00    +0.000 OA
ATOM     19  O   UNL     1       6.521   3.773  13.704  0.00  0.00    +0.000 OA
ENDBRANCH  14  17
ENDBRANCH   1  11
TORSDOF 3
ENDMDL
MODEL 6
REMARK VINA RESULT:      -6.9      3.431      5.776
REMARK  Name = 
REMARK  4 active torsions:
REMARK  status: ('A' for Active; 'I' for Inactive)
REMARK    1  A    between atoms: C_1  and  C_2
REMARK    2  A    between atoms: N_6  and  S_7
REMARK    3  A    between atoms: S_7  and  C_10
REMARK    4  A    between atoms: C_13  and  N_14
REMARK                            x       y       z     vdW  Elec       q    Type
REMARK                         _______ _______ _______ _____ _____    ______ ____
ROOT
ATOM      1  S   UNL     1       3.763   5.780  18.483  0.00  0.00    +0.000 S 
ATOM      2  O   UNL     1       4.890   5.893  19.386  0.00  0.00    +0.000 OA
ATOM      3  O   UNL     1       3.948   5.653  17.054  0.00  0.00    +0.000 OA
ENDROOT
BRANCH   1   9
ATOM      4  C   UNL     1       1.658   2.964  21.571  0.00  0.00    +0.000 C 
ATOM      5  C   UNL     1       2.506   2.414  20.423  0.00  0.00    +0.000 C 
ATOM      6  C   UNL     1       1.650   1.812  19.307  0.00  0.00    +0.000 C 
ATOM      7  C   UNL     1       0.901   2.895  18.543  0.00  0.00    +0.000 C 
ATOM      8  C   UNL     1       1.864   3.928  17.972  0.00  0.00    +0.000 C 
ATOM      9  N   UNL     1       2.756   4.487  19.020  0.00  0.00    +0.000 NA
ATOM     10  C   UNL     1       3.458   3.470  19.853  0.00  0.00    +0.000 C 
ENDBRANCH   1   9
BRANCH   1  11
ATOM     11  C   UNL     1       2.724   7.219  18.753  0.00  0.00    +0.000 A 
ATOM     12  C   UNL     1       2.563   8.164  17.737  0.00  0.00    +0.000 A 
ATOM     13  C   UNL     1       1.811   9.319  17.980  0.00  0.00    +0.000 A 
ATOM     14  C   UNL     1       1.212   9.503  19.236  0.00  0.00    +0.000 A 
ATOM     15  C   UNL     1       1.338   8.532  20.240  0.00  0.00    +0.000 A 
ATOM     16  C   UNL     1       2.087   7.379  19.990  0.00  0.00    +0.000 A 
BRANCH  14  17
ATOM     17  N   UNL     1       0.450  10.731  19.506  0.00  0.00    +0.000 N 
ATOM     18  O   UNL     1       1.048  11.673  20.044  0.00  0.00    +0.000 OA
ATOM     19  O   UNL     1      -0.749  10.744  19.192  0.00  0.00    +0.000 OA
ENDBRANCH  14  17
ENDBRANCH   1  11
TORSDOF 3
ENDMDL
MODEL 7
REMARK VINA RESULT:      -6.9      3.413      5.688
REMARK  Name = 
REMARK  4 active torsions:
REMARK  status: ('A' for Active; 'I' for Inactive)
REMARK    1  A    between atoms: C_1  and  C_2
REMARK    2  A    between atoms: N_6  and  S_7
REMARK    3  A    between atoms: S_7  and  C_10
REMARK    4  A    between atoms: C_13  and  N_14
REMARK                            x       y       z     vdW  Elec       q    Type
REMARK                         _______ _______ _______ _____ _____    ______ ____
ROOT
ATOM      1  S   UNL     1       3.772   5.751  18.494  0.00  0.00    +0.000 S 
ATOM      2  O   UNL     1       4.912   5.824  19.386  0.00  0.00    +0.000 OA
ATOM      3  O   UNL     1       3.939   5.626  17.063  0.00  0.00    +0.000 OA
ENDROOT
BRANCH   1   9
ATOM      4  C   UNL     1       1.620   2.979  21.589  0.00  0.00    +0.000 C 
ATOM      5  C   UNL     1       2.436   2.411  20.426  0.00  0.00    +0.000 C 
ATOM      6  C   UNL     1       1.546   1.845  19.317  0.00  0.00    +0.000 C 
ATOM      7  C   UNL     1       0.822   2.957  18.571  0.00  0.00    +0.000 C 
ATOM      8  C   UNL     1       1.809   3.963  17.995  0.00  0.00    +0.000 C 
ATOM      9  N   UNL     1       2.733   4.486  19.035  0.00  0.00    +0.000 NA
ATOM     10  C   UNL     1       3.413   3.441  19.851  0.00  0.00    +0.000 C 
ENDBRANCH   1   9
BRANCH   1  11
ATOM     11  C   UNL     1       2.781   7.219  18.783  0.00  0.00    +0.000 A 
ATOM     12  C   UNL     1       2.135   7.395  20.010  0.00  0.00    +0.000 A 
ATOM     13  C   UNL     1       1.305   8.505  20.201  0.00  0.00    +0.000 A 
ATOM     14  C   UNL     1       1.149   9.439  19.165  0.00  0.00    +0.000 A 
ATOM     15  C   UNL     1       1.832   9.283  17.950  0.00  0.00    +0.000 A 
ATOM     16  C   UNL     1       2.662   8.174  17.766  0.00  0.00    +0.000 A 
BRANCH  14  17
ATOM     17  N   UNL     1       0.251  10.588  19.350  0.00  0.00    +0.000 N 
ATOM     18  O   UNL     1       0.620  11.488  20.116  0.00  0.00    +0.000 OA
ATOM     19  O   UNL     1      -0.827  10.580  18.737  0.00  0.00    +0.000 OA
ENDBRANCH  14  17
ENDBRANCH   1  11
TORSDOF 3
ENDMDL
MODEL 8
REMARK VINA RESULT:      -6.9      3.504      6.455
REMARK  Name = 
REMARK  4 active torsions:
REMARK  status: ('A' for Active; 'I' for Inactive)
REMARK    1  A    between atoms: C_1  and  C_2
REMARK    2  A    between atoms: N_6  and  S_7
REMARK    3  A    between atoms: S_7  and  C_10
REMARK    4  A    between atoms: C_13  and  N_14
REMARK                            x       y       z     vdW  Elec       q    Type
REMARK                         _______ _______ _______ _____ _____    ______ ____
ROOT
ATOM      1  S   UNL     1       3.034   4.751  18.872  0.00  0.00    +0.000 S 
ATOM      2  O   UNL     1       2.084   4.111  17.986  0.00  0.00    +0.000 OA
ATOM      3  O   UNL     1       3.341   4.204  20.175  0.00  0.00    +0.000 OA
ENDROOT
BRANCH   1   9
ATOM      4  C   UNL     1       5.796   5.365  15.145  0.00  0.00    +0.000 C 
ATOM      5  C   UNL     1       6.049   4.252  16.164  0.00  0.00    +0.000 C 
ATOM      6  C   UNL     1       7.234   4.563  17.079  0.00  0.00    +0.000 C 
ATOM      7  C   UNL     1       6.901   5.690  18.047  0.00  0.00    +0.000 C 
ATOM      8  C   UNL     1       5.667   5.355  18.875  0.00  0.00    +0.000 C 
ATOM      9  N   UNL     1       4.513   4.985  18.016  0.00  0.00    +0.000 NA
ATOM     10  C   UNL     1       4.801   3.939  16.995  0.00  0.00    +0.000 C 
ENDBRANCH   1   9
BRANCH   1  11
ATOM     11  C   UNL     1       2.464   6.433  19.129  0.00  0.00    +0.000 A 
ATOM     12  C   UNL     1       1.974   6.821  20.380  0.00  0.00    +0.000 A 
ATOM     13  C   UNL     1       1.464   8.112  20.552  0.00  0.00    +0.000 A 
ATOM     14  C   UNL     1       1.470   9.009  19.472  0.00  0.00    +0.000 A 
ATOM     15  C   UNL     1       2.003   8.632  18.231  0.00  0.00    +0.000 A 
ATOM     16  C   UNL     1       2.514   7.342  18.066  0.00  0.00    +0.000 A 
BRANCH  14  17
ATOM     17  N   UNL     1       0.903  10.355  19.640  0.00  0.00    +0.000 N 
ATOM     18  O   UNL     1       1.023  10.895  20.748  0.00  0.00    +0.000 OA
ATOM     19  O   UNL     1       0.328  10.862  18.666  0.00  0.00    +0.000 OA
ENDBRANCH  14  17
ENDBRANCH   1  11
TORSDOF 3
ENDMDL
MODEL 9
REMARK VINA RESULT:      -6.8      3.401      6.501
REMARK  Name = 
REMARK  4 active torsions:
REMARK  status: ('A' for Active; 'I' for Inactive)
REMARK    1  A    between atoms: C_1  and  C_2
REMARK    2  A    between atoms: N_6  and  S_7
REMARK    3  A    between atoms: S_7  and  C_10
REMARK    4  A    between atoms: C_13  and  N_14
REMARK                            x       y       z     vdW  Elec       q    Type
REMARK                         _______ _______ _______ _____ _____    ______ ____
ROOT
ATOM      1  S   UNL     1       3.091   4.413  18.809  0.00  0.00    +0.000 S 
ATOM      2  O   UNL     1       2.170   3.781  17.886  0.00  0.00    +0.000 OA
ATOM      3  O   UNL     1       3.433   3.801  20.074  0.00  0.00    +0.000 OA
ENDROOT
BRANCH   1   9
ATOM      4  C   UNL     1       5.796   5.414  15.124  0.00  0.00    +0.000 C 
ATOM      5  C   UNL     1       6.108   4.246  16.062  0.00  0.00    +0.000 C 
ATOM      6  C   UNL     1       7.283   4.548  16.993  0.00  0.00    +0.000 C 
ATOM      7  C   UNL     1       6.904   5.588  18.038  0.00  0.00    +0.000 C 
ATOM      8  C   UNL     1       5.693   5.138  18.845  0.00  0.00    +0.000 C 
ATOM      9  N   UNL     1       4.551   4.775  17.966  0.00  0.00    +0.000 NA
ATOM     10  C   UNL     1       4.881   3.817  16.874  0.00  0.00    +0.000 C 
ENDBRANCH   1   9
BRANCH   1  11
ATOM     11  C   UNL     1       2.438   6.044  19.173  0.00  0.00    +0.000 A 
ATOM     12  C   UNL     1       2.492   7.050  18.204  0.00  0.00    +0.000 A 
ATOM     13  C   UNL     1       2.047   8.338  18.520  0.00  0.00    +0.000 A 
ATOM     14  C   UNL     1       1.533   8.599  19.800  0.00  0.00    +0.000 A 
ATOM     15  C   UNL     1       1.439   7.577  20.756  0.00  0.00    +0.000 A 
ATOM     16  C   UNL     1       1.881   6.291  20.433  0.00  0.00    +0.000 A 
BRANCH  14  17
ATOM     17  N   UNL     1       1.097   9.959  20.146  0.00  0.00    +0.000 N 
ATOM     18  O   UNL     1       0.785  10.181  21.324  0.00  0.00    +0.000 OA
ATOM     19  O   UNL     1       1.054  10.799  19.235  0.00  0.00    +0.000 OA
ENDBRANCH  14  17
ENDBRANCH   1  11
TORSDOF 3
ENDMDL
