MODEL 1
REMARK VINA RESULT:      -6.4      0.000      0.000
REMARK  Name = 
REMARK  3 active torsions:
REMARK  status: ('A' for Active; 'I' for Inactive)
REMARK    1  A    between atoms: C_1  and  C_2
REMARK    2  A    between atoms: C_7  and  C_9
REMARK    3  A    between atoms: C_9  and  C_10
REMARK                            x       y       z     vdW  Elec       q    Type
REMARK                         _______ _______ _______ _____ _____    ______ ____
ROOT
ATOM      1  C   UNL     1       7.853   7.723  17.448  0.00  0.00    +0.000 C 
ATOM      2  C   UNL     1       6.653   6.869  17.623  0.00  0.00    +0.000 A 
ATOM      3  N   UNL     1       5.571   6.959  16.883  0.00  0.00    +0.000 NA
ATOM      4  N   UNL     1       4.579   6.109  17.317  0.00  0.00    +0.000 NA
ATOM      5  C   UNL     1       4.947   5.396  18.350  0.00  0.00    +0.000 A 
ATOM      6  N   UNL     1       4.231   4.478  19.076  0.00  0.00    +0.000 N 
ATOM      7  C   UNL     1       2.889   4.293  18.816  0.00  0.00    +0.000 C 
ATOM      8  O   UNL     1       2.239   4.954  17.998  0.00  0.00    +0.000 OA
ATOM      9  S   UNL     1       6.558   5.672  18.863  0.00  0.00    +0.000 S 
ATOM     10  H   UNL     1       4.718   3.943  19.776  0.00  0.00    +0.000 HD
ENDROOT
BRANCH   7  11
ATOM     11  C   UNL     1       2.182   3.165  19.629  0.00  0.00    +0.000 C 
ATOM     12  C   UNL     1       2.783   2.699  20.994  0.00  0.00    +0.000 C 
ATOM     13  C   UNL     1       1.356   2.708  21.582  0.00  0.00    +0.000 C 
ATOM     14  C   UNL     1       0.961   3.682  20.467  0.00  0.00    +0.000 C 
BRANCH  11  15
ATOM     15  C   UNL     1       1.823   2.020  18.690  0.00  0.00    +0.000 C 
ATOM     16  F   UNL     1       2.986   1.509  18.199  0.00  0.00    +0.000 F 
ENDBRANCH  11  15
ENDBRANCH   7  11
TORSDOF 2
ENDMDL
MODEL 2
REMARK VINA RESULT:      -6.4      1.686      1.804
REMARK  Name = 
REMARK  3 active torsions:
REMARK  status: ('A' for Active; 'I' for Inactive)
REMARK    1  A    between atoms: C_1  and  C_2
REMARK    2  A    between atoms: C_7  and  C_9
REMARK    3  A    between atoms: C_9  and  C_10
REMARK                            x       y       z     vdW  Elec       q    Type
REMARK                         _______ _______ _______ _____ _____    ______ ____
ROOT
ATOM      1  C   UNL     1       8.037   7.849  17.424  0.00  0.00    +0.000 C 
ATOM      2  C   UNL     1       7.148   6.830  18.032  0.00  0.00    +0.000 A 
ATOM      3  N   UNL     1       7.546   5.933  18.907  0.00  0.00    +0.000 NA
ATOM      4  N   UNL     1       6.537   5.057  19.240  0.00  0.00    +0.000 NA
ATOM      5  C   UNL     1       5.414   5.330  18.627  0.00  0.00    +0.000 A 
ATOM      6  N   UNL     1       4.213   4.668  18.673  0.00  0.00    +0.000 N 
ATOM      7  C   UNL     1       4.112   3.476  19.357  0.00  0.00    +0.000 C 
ATOM      8  O   UNL     1       5.062   2.898  19.898  0.00  0.00    +0.000 OA
ATOM      9  S   UNL     1       5.478   6.709  17.613  0.00  0.00    +0.000 S 
ATOM     10  H   UNL     1       3.421   5.090  18.215  0.00  0.00    +0.000 HD
ENDROOT
BRANCH   7  11
ATOM     11  C   UNL     1       2.686   2.846  19.430  0.00  0.00    +0.000 C 
ATOM     12  C   UNL     1       1.992   2.655  20.817  0.00  0.00    +0.000 C 
ATOM     13  C   UNL     1       0.686   3.192  20.195  0.00  0.00    +0.000 C 
ATOM     14  C   UNL     1       1.542   3.872  19.120  0.00  0.00    +0.000 C 
BRANCH  11  15
ATOM     15  C   UNL     1       2.639   1.609  18.541  0.00  0.00    +0.000 C 
ATOM     16  F   UNL     1       2.520   2.032  17.252  0.00  0.00    +0.000 F 
ENDBRANCH  11  15
ENDBRANCH   7  11
TORSDOF 2
ENDMDL
MODEL 3
REMARK VINA RESULT:      -6.4      1.997      2.430
REMARK  Name = 
REMARK  3 active torsions:
REMARK  status: ('A' for Active; 'I' for Inactive)
REMARK    1  A    between atoms: C_1  and  C_2
REMARK    2  A    between atoms: C_7  and  C_9
REMARK    3  A    between atoms: C_9  and  C_10
REMARK                            x       y       z     vdW  Elec       q    Type
REMARK                         _______ _______ _______ _____ _____    ______ ____
ROOT
ATOM      1  C   UNL     1       7.852   7.603  17.249  0.00  0.00    +0.000 C 
ATOM      2  C   UNL     1       6.985   6.629  17.955  0.00  0.00    +0.000 A 
ATOM      3  N   UNL     1       7.435   5.679  18.744  0.00  0.00    +0.000 NA
ATOM      4  N   UNL     1       6.423   4.864  19.198  0.00  0.00    +0.000 NA
ATOM      5  C   UNL     1       5.247   5.234  18.757  0.00  0.00    +0.000 A 
ATOM      6  N   UNL     1       4.019   4.656  18.959  0.00  0.00    +0.000 N 
ATOM      7  C   UNL     1       3.928   3.451  19.624  0.00  0.00    +0.000 C 
ATOM      8  O   UNL     1       4.900   2.792  20.011  0.00  0.00    +0.000 OA
ATOM      9  S   UNL     1       5.269   6.637  17.776  0.00  0.00    +0.000 S 
ATOM     10  H   UNL     1       3.204   5.146  18.628  0.00  0.00    +0.000 HD
ENDROOT
BRANCH   7  11
ATOM     11  C   UNL     1       2.485   2.919  19.885  0.00  0.00    +0.000 C 
ATOM     12  C   UNL     1       1.253   3.741  19.388  0.00  0.00    +0.000 C 
ATOM     13  C   UNL     1       0.624   2.423  18.888  0.00  0.00    +0.000 C 
ATOM     14  C   UNL     1       2.035   1.825  18.855  0.00  0.00    +0.000 C 
BRANCH  11  15
ATOM     15  C   UNL     1       2.376   2.459  21.334  0.00  0.00    +0.000 C 
ATOM     16  F   UNL     1       1.768   3.453  22.038  0.00  0.00    +0.000 F 
ENDBRANCH  11  15
ENDBRANCH   7  11
TORSDOF 2
ENDMDL
MODEL 4
REMARK VINA RESULT:      -6.3      2.523      2.548
REMARK  Name = 
REMARK  3 active torsions:
REMARK  status: ('A' for Active; 'I' for Inactive)
REMARK    1  A    between atoms: C_1  and  C_2
REMARK    2  A    between atoms: C_7  and  C_9
REMARK    3  A    between atoms: C_9  and  C_10
REMARK                            x       y       z     vdW  Elec       q    Type
REMARK                         _______ _______ _______ _____ _____    ______ ____
ROOT
ATOM      1  C   UNL     1       7.654   5.098  13.894  0.00  0.00    +0.000 C 
ATOM      2  C   UNL     1       6.925   4.844  15.159  0.00  0.00    +0.000 A 
ATOM      3  N   UNL     1       7.502   4.751  16.337  0.00  0.00    +0.000 NA
ATOM      4  N   UNL     1       6.603   4.425  17.326  0.00  0.00    +0.000 NA
ATOM      5  C   UNL     1       5.382   4.303  16.873  0.00  0.00    +0.000 A 
ATOM      6  N   UNL     1       4.234   3.954  17.540  0.00  0.00    +0.000 N 
ATOM      7  C   UNL     1       4.301   3.558  18.859  0.00  0.00    +0.000 C 
ATOM      8  O   UNL     1       5.353   3.423  19.496  0.00  0.00    +0.000 OA
ATOM      9  S   UNL     1       5.215   4.614  15.197  0.00  0.00    +0.000 S 
ATOM     10  H   UNL     1       3.360   4.019  17.045  0.00  0.00    +0.000 HD
ENDROOT
BRANCH   7  11
ATOM     11  C   UNL     1       2.936   3.270  19.558  0.00  0.00    +0.000 C 
ATOM     12  C   UNL     1       2.914   2.632  20.984  0.00  0.00    +0.000 C 
ATOM     13  C   UNL     1       1.820   3.646  21.379  0.00  0.00    +0.000 C 
ATOM     14  C   UNL     1       2.310   4.539  20.235  0.00  0.00    +0.000 C 
BRANCH  11  15
ATOM     15  C   UNL     1       1.997   2.596  18.565  0.00  0.00    +0.000 C 
ATOM     16  F   UNL     1       1.124   3.539  18.117  0.00  0.00    +0.000 F 
ENDBRANCH  11  15
ENDBRANCH   7  11
TORSDOF 2
ENDMDL
MODEL 5
REMARK VINA RESULT:      -6.3      2.748      3.082
REMARK  Name = 
REMARK  3 active torsions:
REMARK  status: ('A' for Active; 'I' for Inactive)
REMARK    1  A    between atoms: C_1  and  C_2
REMARK    2  A    between atoms: C_7  and  C_9
REMARK    3  A    between atoms: C_9  and  C_10
REMARK                            x       y       z     vdW  Elec       q    Type
REMARK                         _______ _______ _______ _____ _____    ______ ____
ROOT
ATOM      1  C   UNL     1       7.748   5.065  13.636  0.00  0.00    +0.000 C 
ATOM      2  C   UNL     1       6.962   4.859  14.876  0.00  0.00    +0.000 A 
ATOM      3  N   UNL     1       7.481   4.848  16.084  0.00  0.00    +0.000 NA
ATOM      4  N   UNL     1       6.540   4.551  17.045  0.00  0.00    +0.000 NA
ATOM      5  C   UNL     1       5.348   4.367  16.538  0.00  0.00    +0.000 A 
ATOM      6  N   UNL     1       4.178   4.022  17.167  0.00  0.00    +0.000 N 
ATOM      7  C   UNL     1       4.187   3.702  18.508  0.00  0.00    +0.000 C 
ATOM      8  O   UNL     1       5.208   3.634  19.202  0.00  0.00    +0.000 OA
ATOM      9  S   UNL     1       5.259   4.581  14.842  0.00  0.00    +0.000 S 
ATOM     10  H   UNL     1       3.328   4.033  16.626  0.00  0.00    +0.000 HD
ENDROOT
BRANCH   7  11
ATOM     11  C   UNL     1       2.797   3.413  19.153  0.00  0.00    +0.000 C 
ATOM     12  C   UNL     1       1.492   3.866  18.423  0.00  0.00    +0.000 C 
ATOM     13  C   UNL     1       0.872   2.494  18.761  0.00  0.00    +0.000 C 
ATOM     14  C   UNL     1       2.296   1.947  18.908  0.00  0.00    +0.000 C 
BRANCH  11  15
ATOM     15  C   UNL     1       2.841   3.792  20.629  0.00  0.00    +0.000 C 
ATOM     16  F   UNL     1       1.987   4.836  20.813  0.00  0.00    +0.000 F 
ENDBRANCH  11  15
ENDBRANCH   7  11
TORSDOF 2
ENDMDL
MODEL 6
REMARK VINA RESULT:      -6.3      2.705      2.912
REMARK  Name = 
REMARK  3 active torsions:
REMARK  status: ('A' for Active; 'I' for Inactive)
REMARK    1  A    between atoms: C_1  and  C_2
REMARK    2  A    between atoms: C_7  and  C_9
REMARK    3  A    between atoms: C_9  and  C_10
REMARK                            x       y       z     vdW  Elec       q    Type
REMARK                         _______ _______ _______ _____ _____    ______ ____
ROOT
ATOM      1  C   UNL     1       7.972   5.203  12.965  0.00  0.00    +0.000 C 
ATOM      2  C   UNL     1       7.154   5.097  14.197  0.00  0.00    +0.000 A 
ATOM      3  N   UNL     1       7.509   5.594  15.362  0.00  0.00    +0.000 NA
ATOM      4  N   UNL     1       6.607   5.277  16.352  0.00  0.00    +0.000 NA
ATOM      5  C   UNL     1       5.599   4.572  15.905  0.00  0.00    +0.000 A 
ATOM      6  N   UNL     1       4.533   4.044  16.589  0.00  0.00    +0.000 N 
ATOM      7  C   UNL     1       4.490   4.128  17.964  0.00  0.00    +0.000 C 
ATOM      8  O   UNL     1       5.394   4.600  18.664  0.00  0.00    +0.000 OA
ATOM      9  S   UNL     1       5.641   4.267  14.220  0.00  0.00    +0.000 S 
ATOM     10  H   UNL     1       3.791   3.620  16.056  0.00  0.00    +0.000 HD
ENDROOT
BRANCH   7  11
ATOM     11  C   UNL     1       3.197   3.580  18.645  0.00  0.00    +0.000 C 
ATOM     12  C   UNL     1       2.842   4.018  20.102  0.00  0.00    +0.000 C 
ATOM     13  C   UNL     1       1.380   4.207  19.648  0.00  0.00    +0.000 C 
ATOM     14  C   UNL     1       1.900   4.349  18.213  0.00  0.00    +0.000 C 
BRANCH  11  15
ATOM     15  C   UNL     1       3.108   2.077  18.412  0.00  0.00    +0.000 C 
ATOM     16  F   UNL     1       2.266   1.871  17.362  0.00  0.00    +0.000 F 
ENDBRANCH  11  15
ENDBRANCH   7  11
TORSDOF 2
ENDMDL
MODEL 7
REMARK VINA RESULT:      -6.2      2.804      5.874
REMARK  Name = 
REMARK  3 active torsions:
REMARK  status: ('A' for Active; 'I' for Inactive)
REMARK    1  A    between atoms: C_1  and  C_2
REMARK    2  A    between atoms: C_7  and  C_9
REMARK    3  A    between atoms: C_9  and  C_10
REMARK                            x       y       z     vdW  Elec       q    Type
REMARK                         _______ _______ _______ _____ _____    ______ ____
ROOT
ATOM      1  C   UNL     1       1.501   2.537  21.831  0.00  0.00    +0.000 C 
ATOM      2  C   UNL     1       2.367   3.387  20.979  0.00  0.00    +0.000 A 
ATOM      3  N   UNL     1       2.227   4.688  20.853  0.00  0.00    +0.000 NA
ATOM      4  N   UNL     1       3.108   5.213  19.934  0.00  0.00    +0.000 NA
ATOM      5  C   UNL     1       3.891   4.303  19.415  0.00  0.00    +0.000 A 
ATOM      6  N   UNL     1       4.860   4.433  18.451  0.00  0.00    +0.000 N 
ATOM      7  C   UNL     1       5.029   5.640  17.806  0.00  0.00    +0.000 C 
ATOM      8  O   UNL     1       4.313   6.633  17.984  0.00  0.00    +0.000 OA
ATOM      9  S   UNL     1       3.649   2.724  20.033  0.00  0.00    +0.000 S 
ATOM     10  H   UNL     1       5.442   3.636  18.254  0.00  0.00    +0.000 HD
ENDROOT
BRANCH   7  11
ATOM     11  C   UNL     1       6.212   5.716  16.793  0.00  0.00    +0.000 C 
ATOM     12  C   UNL     1       7.035   4.430  16.462  0.00  0.00    +0.000 C 
ATOM     13  C   UNL     1       6.982   4.826  14.972  0.00  0.00    +0.000 C 
ATOM     14  C   UNL     1       5.746   5.673  15.296  0.00  0.00    +0.000 C 
BRANCH  11  15
ATOM     15  C   UNL     1       7.071   6.932  17.118  0.00  0.00    +0.000 C 
ATOM     16  F   UNL     1       7.945   6.571  18.099  0.00  0.00    +0.000 F 
ENDBRANCH  11  15
ENDBRANCH   7  11
TORSDOF 2
ENDMDL
MODEL 8
REMARK VINA RESULT:      -6.2      2.889      3.098
REMARK  Name = 
REMARK  3 active torsions:
REMARK  status: ('A' for Active; 'I' for Inactive)
REMARK    1  A    between atoms: C_1  and  C_2
REMARK    2  A    between atoms: C_7  and  C_9
REMARK    3  A    between atoms: C_9  and  C_10
REMARK                            x       y       z     vdW  Elec       q    Type
REMARK                         _______ _______ _______ _____ _____    ______ ____
ROOT
ATOM      1  C   UNL     1       7.804   5.112  12.881  0.00  0.00    +0.000 C 
ATOM      2  C   UNL     1       7.109   4.982  14.184  0.00  0.00    +0.000 A 
ATOM      3  N   UNL     1       7.604   5.401  15.328  0.00  0.00    +0.000 NA
ATOM      4  N   UNL     1       6.791   5.076  16.390  0.00  0.00    +0.000 NA
ATOM      5  C   UNL     1       5.707   4.445  16.016  0.00  0.00    +0.000 A 
ATOM      6  N   UNL     1       4.689   3.933  16.780  0.00  0.00    +0.000 N 
ATOM      7  C   UNL     1       4.788   3.949  18.155  0.00  0.00    +0.000 C 
ATOM      8  O   UNL     1       5.781   4.340  18.780  0.00  0.00    +0.000 OA
ATOM      9  S   UNL     1       5.565   4.225  14.324  0.00  0.00    +0.000 S 
ATOM     10  H   UNL     1       3.876   3.574  16.307  0.00  0.00    +0.000 HD
ENDROOT
BRANCH   7  11
ATOM     11  C   UNL     1       3.543   3.429  18.938  0.00  0.00    +0.000 C 
ATOM     12  C   UNL     1       2.906   4.313  20.059  0.00  0.00    +0.000 C 
ATOM     13  C   UNL     1       1.514   3.956  19.496  0.00  0.00    +0.000 C 
ATOM     14  C   UNL     1       2.196   3.634  18.161  0.00  0.00    +0.000 C 
BRANCH  11  15
ATOM     15  C   UNL     1       3.781   1.982  19.354  0.00  0.00    +0.000 C 
ATOM     16  F   UNL     1       4.490   1.998  20.517  0.00  0.00    +0.000 F 
ENDBRANCH  11  15
ENDBRANCH   7  11
TORSDOF 2
ENDMDL
MODEL 9
REMARK VINA RESULT:      -6.1      3.039      6.004
REMARK  Name = 
REMARK  3 active torsions:
REMARK  status: ('A' for Active; 'I' for Inactive)
REMARK    1  A    between atoms: C_1  and  C_2
REMARK    2  A    between atoms: C_7  and  C_9
REMARK    3  A    between atoms: C_9  and  C_10
REMARK                            x       y       z     vdW  Elec       q    Type
REMARK                         _______ _______ _______ _____ _____    ______ ____
ROOT
ATOM      1  C   UNL     1       1.512   2.461  21.815  0.00  0.00    +0.000 C 
ATOM      2  C   UNL     1       2.569   2.796  20.831  0.00  0.00    +0.000 A 
ATOM      3  N   UNL     1       3.841   2.502  20.987  0.00  0.00    +0.000 NA
ATOM      4  N   UNL     1       4.614   3.005  19.965  0.00  0.00    +0.000 NA
ATOM      5  C   UNL     1       3.906   3.641  19.068  0.00  0.00    +0.000 A 
ATOM      6  N   UNL     1       4.320   4.303  17.939  0.00  0.00    +0.000 N 
ATOM      7  C   UNL     1       5.667   4.459  17.690  0.00  0.00    +0.000 C 
ATOM      8  O   UNL     1       6.566   4.097  18.459  0.00  0.00    +0.000 OA
ATOM      9  S   UNL     1       2.221   3.649  19.372  0.00  0.00    +0.000 S 
ATOM     10  H   UNL     1       3.616   4.643  17.304  0.00  0.00    +0.000 HD
ENDROOT
BRANCH   7  11
ATOM     11  C   UNL     1       6.040   5.144  16.339  0.00  0.00    +0.000 C 
ATOM     12  C   UNL     1       7.378   4.771  15.623  0.00  0.00    +0.000 C 
ATOM     13  C   UNL     1       6.605   4.717  14.289  0.00  0.00    +0.000 C 
ATOM     14  C   UNL     1       5.324   4.497  15.102  0.00  0.00    +0.000 C 
BRANCH  11  15
ATOM     15  C   UNL     1       5.798   6.644  16.454  0.00  0.00    +0.000 C 
ATOM     16  F   UNL     1       4.561   6.903  15.947  0.00  0.00    +0.000 F 
ENDBRANCH  11  15
ENDBRANCH   7  11
TORSDOF 2
ENDMDL
