MODEL 1
REMARK VINA RESULT:      -8.6      0.000      0.000
REMARK  Name = 
REMARK  2 active torsions:
REMARK  status: ('A' for Active; 'I' for Inactive)
REMARK    1  A    between atoms: C_3  and  C_4
REMARK    2  A    between atoms: C_12  and  O_13
REMARK                            x       y       z     vdW  Elec       q    Type
REMARK                         _______ _______ _______ _____ _____    ______ ____
ROOT
ATOM      1  O   UNL     1       3.385   6.545  17.777  0.00  0.00    +0.000 OA
ATOM      2  C   UNL     1       3.507   5.509  18.407  0.00  0.00    +0.000 C 
ATOM      3  C   UNL     1       4.726   4.637  18.369  0.00  0.00    +0.000 C 
ATOM      4  C   UNL     1       4.494   3.735  19.348  0.00  0.00    +0.000 C 
ATOM      5  N   UNL     1       3.270   3.888  19.993  0.00  0.00    +0.000 N 
ATOM      6  C   UNL     1       2.573   2.866  20.771  0.00  0.00    +0.000 C 
ATOM      7  C   UNL     1       1.067   2.864  20.459  0.00  0.00    +0.000 C 
ATOM      8  C   UNL     1       0.816   2.858  18.953  0.00  0.00    +0.000 C 
ATOM      9  C   UNL     1       1.574   3.981  18.244  0.00  0.00    +0.000 C 
ATOM     10  C   UNL     1       2.437   4.810  19.209  0.00  0.00    +0.000 C 
ENDROOT
BRANCH   3  11
ATOM     11  C   UNL     1       5.570   4.601  17.179  0.00  0.00    +0.000 A 
ATOM     12  C   UNL     1       4.942   4.085  16.020  0.00  0.00    +0.000 A 
ATOM     13  C   UNL     1       5.542   4.195  14.772  0.00  0.00    +0.000 A 
ATOM     14  C   UNL     1       6.785   4.800  14.664  0.00  0.00    +0.000 A 
ATOM     15 CL   UNL     1       7.485   5.006  13.107  0.00  0.00    +0.000 Cl
ATOM     16  C   UNL     1       7.449   5.269  15.802  0.00  0.00    +0.000 A 
ATOM     17  C   UNL     1       6.844   5.166  17.059  0.00  0.00    +0.000 A 
ATOM     18 CL   UNL     1       7.687   5.786  18.429  0.00  0.00    +0.000 Cl
ENDBRANCH   3  11
BRANCH   4  19
ATOM     19  O   UNL     1       5.242   2.626  19.613  0.00  0.00    +0.000 OA
ATOM     20  H   UNL     1       4.804   2.130  20.325  0.00  0.00    +0.000 HD
ENDBRANCH   4  19
TORSDOF 2
ENDMDL
MODEL 2
REMARK VINA RESULT:      -7.6      1.526      1.901
REMARK  Name = 
REMARK  2 active torsions:
REMARK  status: ('A' for Active; 'I' for Inactive)
REMARK    1  A    between atoms: C_3  and  C_4
REMARK    2  A    between atoms: C_12  and  O_13
REMARK                            x       y       z     vdW  Elec       q    Type
REMARK                         _______ _______ _______ _____ _____    ______ ____
ROOT
ATOM      1  O   UNL     1       3.193   6.720  19.088  0.00  0.00    +0.000 OA
ATOM      2  C   UNL     1       3.381   5.577  19.468  0.00  0.00    +0.000 C 
ATOM      3  C   UNL     1       4.487   4.694  18.972  0.00  0.00    +0.000 C 
ATOM      4  C   UNL     1       4.424   3.624  19.795  0.00  0.00    +0.000 C 
ATOM      5  N   UNL     1       3.402   3.683  20.738  0.00  0.00    +0.000 N 
ATOM      6  C   UNL     1       2.831   2.548  21.461  0.00  0.00    +0.000 C 
ATOM      7  C   UNL     1       1.298   2.653  21.534  0.00  0.00    +0.000 C 
ATOM      8  C   UNL     1       0.701   2.950  20.161  0.00  0.00    +0.000 C 
ATOM      9  C   UNL     1       1.353   4.168  19.506  0.00  0.00    +0.000 C 
ATOM     10  C   UNL     1       2.480   4.766  20.365  0.00  0.00    +0.000 C 
ENDROOT
BRANCH   3  11
ATOM     11  C   UNL     1       5.022   4.868  17.625  0.00  0.00    +0.000 A 
ATOM     12  C   UNL     1       6.218   5.622  17.554  0.00  0.00    +0.000 A 
ATOM     13  C   UNL     1       6.958   5.682  16.380  0.00  0.00    +0.000 A 
ATOM     14  C   UNL     1       6.505   5.010  15.255  0.00  0.00    +0.000 A 
ATOM     15 CL   UNL     1       7.466   5.021  13.828  0.00  0.00    +0.000 Cl
ATOM     16  C   UNL     1       5.299   4.303  15.285  0.00  0.00    +0.000 A 
ATOM     17  C   UNL     1       4.556   4.236  16.468  0.00  0.00    +0.000 A 
ATOM     18 CL   UNL     1       3.090   3.327  16.466  0.00  0.00    +0.000 Cl
ENDBRANCH   3  11
BRANCH   4  19
ATOM     19  O   UNL     1       5.126   2.464  19.660  0.00  0.00    +0.000 OA
ATOM     20  H   UNL     1       6.052   2.641  19.896  0.00  0.00    +0.000 HD
ENDBRANCH   4  19
TORSDOF 2
ENDMDL
MODEL 3
REMARK VINA RESULT:      -7.4      3.519      5.271
REMARK  Name = 
REMARK  2 active torsions:
REMARK  status: ('A' for Active; 'I' for Inactive)
REMARK    1  A    between atoms: C_3  and  C_4
REMARK    2  A    between atoms: C_12  and  O_13
REMARK                            x       y       z     vdW  Elec       q    Type
REMARK                         _______ _______ _______ _____ _____    ______ ____
ROOT
ATOM      1  O   UNL     1       5.421   6.130  18.072  0.00  0.00    +0.000 OA
ATOM      2  C   UNL     1       4.495   5.345  17.966  0.00  0.00    +0.000 C 
ATOM      3  C   UNL     1       3.054   5.746  17.872  0.00  0.00    +0.000 C 
ATOM      4  C   UNL     1       2.426   4.587  17.575  0.00  0.00    +0.000 C 
ATOM      5  N   UNL     1       3.267   3.481  17.498  0.00  0.00    +0.000 N 
ATOM      6  C   UNL     1       2.862   2.081  17.607  0.00  0.00    +0.000 C 
ATOM      7  C   UNL     1       3.847   1.286  18.479  0.00  0.00    +0.000 C 
ATOM      8  C   UNL     1       4.132   2.012  19.791  0.00  0.00    +0.000 C 
ATOM      9  C   UNL     1       4.571   3.459  19.559  0.00  0.00    +0.000 C 
ATOM     10  C   UNL     1       4.573   3.842  18.070  0.00  0.00    +0.000 C 
ENDROOT
BRANCH   3  11
ATOM     11  C   UNL     1       2.591   6.985  18.492  0.00  0.00    +0.000 A 
ATOM     12  C   UNL     1       2.551   8.103  17.626  0.00  0.00    +0.000 A 
ATOM     13  C   UNL     1       1.928   9.284  18.010  0.00  0.00    +0.000 A 
ATOM     14  C   UNL     1       1.355   9.373  19.270  0.00  0.00    +0.000 A 
ATOM     15 CL   UNL     1       0.514  10.807  19.709  0.00  0.00    +0.000 Cl
ATOM     16  C   UNL     1       1.428   8.299  20.162  0.00  0.00    +0.000 A 
ATOM     17  C   UNL     1       2.049   7.107  19.775  0.00  0.00    +0.000 A 
ATOM     18 CL   UNL     1       2.089   5.800  20.899  0.00  0.00    +0.000 Cl
ENDBRANCH   3  11
BRANCH   4  19
ATOM     19  O   UNL     1       1.078   4.390  17.535  0.00  0.00    +0.000 OA
ATOM     20  H   UNL     1       0.800   4.388  16.604  0.00  0.00    +0.000 HD
ENDBRANCH   4  19
TORSDOF 2
ENDMDL
MODEL 4
REMARK VINA RESULT:      -7.0      1.693      2.326
REMARK  Name = 
REMARK  2 active torsions:
REMARK  status: ('A' for Active; 'I' for Inactive)
REMARK    1  A    between atoms: C_3  and  C_4
REMARK    2  A    between atoms: C_12  and  O_13
REMARK                            x       y       z     vdW  Elec       q    Type
REMARK                         _______ _______ _______ _____ _____    ______ ____
ROOT
ATOM      1  O   UNL     1       5.787   3.822  19.506  0.00  0.00    +0.000 OA
ATOM      2  C   UNL     1       4.643   3.717  19.100  0.00  0.00    +0.000 C 
ATOM      3  C   UNL     1       4.267   3.598  17.653  0.00  0.00    +0.000 C 
ATOM      4  C   UNL     1       2.947   3.312  17.696  0.00  0.00    +0.000 C 
ATOM      5  N   UNL     1       2.411   3.263  18.980  0.00  0.00    +0.000 N 
ATOM      6  C   UNL     1       0.997   3.389  19.329  0.00  0.00    +0.000 C 
ATOM      7  C   UNL     1       0.809   4.287  20.563  0.00  0.00    +0.000 C 
ATOM      8  C   UNL     1       1.591   5.590  20.421  0.00  0.00    +0.000 C 
ATOM      9  C   UNL     1       3.060   5.340  20.080  0.00  0.00    +0.000 C 
ATOM     10  C   UNL     1       3.381   3.846  19.918  0.00  0.00    +0.000 C 
ENDROOT
BRANCH   3  11
ATOM     11  C   UNL     1       5.111   4.192  16.621  0.00  0.00    +0.000 A 
ATOM     12  C   UNL     1       5.870   3.265  15.868  0.00  0.00    +0.000 A 
ATOM     13  C   UNL     1       6.542   3.656  14.718  0.00  0.00    +0.000 A 
ATOM     14  C   UNL     1       6.485   4.982  14.313  0.00  0.00    +0.000 A 
ATOM     15 CL   UNL     1       7.250   5.443  12.844  0.00  0.00    +0.000 Cl
ATOM     16  C   UNL     1       5.785   5.927  15.070  0.00  0.00    +0.000 A 
ATOM     17  C   UNL     1       5.102   5.533  16.225  0.00  0.00    +0.000 A 
ATOM     18 CL   UNL     1       4.228   6.728  17.109  0.00  0.00    +0.000 Cl
ENDBRANCH   3  11
BRANCH   4  19
ATOM     19  O   UNL     1       2.101   3.258  16.629  0.00  0.00    +0.000 OA
ATOM     20  H   UNL     1       2.132   4.116  16.175  0.00  0.00    +0.000 HD
ENDBRANCH   4  19
TORSDOF 2
ENDMDL
MODEL 5
REMARK VINA RESULT:      -6.7      1.444      2.509
REMARK  Name = 
REMARK  2 active torsions:
REMARK  status: ('A' for Active; 'I' for Inactive)
REMARK    1  A    between atoms: C_3  and  C_4
REMARK    2  A    between atoms: C_12  and  O_13
REMARK                            x       y       z     vdW  Elec       q    Type
REMARK                         _______ _______ _______ _____ _____    ______ ____
ROOT
ATOM      1  O   UNL     1       4.018   1.108  17.635  0.00  0.00    +0.000 OA
ATOM      2  C   UNL     1       3.401   2.094  17.999  0.00  0.00    +0.000 C 
ATOM      3  C   UNL     1       3.531   3.450  17.372  0.00  0.00    +0.000 C 
ATOM      4  C   UNL     1       2.540   4.159  17.955  0.00  0.00    +0.000 C 
ATOM      5  N   UNL     1       1.807   3.451  18.903  0.00  0.00    +0.000 N 
ATOM      6  C   UNL     1       0.983   4.029  19.963  0.00  0.00    +0.000 C 
ATOM      7  C   UNL     1       1.184   3.280  21.291  0.00  0.00    +0.000 C 
ATOM      8  C   UNL     1       2.667   3.105  21.606  0.00  0.00    +0.000 C 
ATOM      9  C   UNL     1       3.427   2.470  20.439  0.00  0.00    +0.000 C 
ATOM     10  C   UNL     1       2.526   2.209  19.222  0.00  0.00    +0.000 C 
ENDROOT
BRANCH   3  11
ATOM     11  C   UNL     1       4.780   3.849  16.730  0.00  0.00    +0.000 A 
ATOM     12  C   UNL     1       4.840   3.597  15.339  0.00  0.00    +0.000 A 
ATOM     13  C   UNL     1       5.864   4.121  14.560  0.00  0.00    +0.000 A 
ATOM     14  C   UNL     1       6.854   4.884  15.161  0.00  0.00    +0.000 A 
ATOM     15 CL   UNL     1       8.074   5.597  14.180  0.00  0.00    +0.000 Cl
ATOM     16  C   UNL     1       6.845   5.102  16.542  0.00  0.00    +0.000 A 
ATOM     17  C   UNL     1       5.811   4.582  17.327  0.00  0.00    +0.000 A 
ATOM     18 CL   UNL     1       5.826   4.902  19.021  0.00  0.00    +0.000 Cl
ENDBRANCH   3  11
BRANCH   4  19
ATOM     19  O   UNL     1       2.333   5.501  17.835  0.00  0.00    +0.000 OA
ATOM     20  H   UNL     1       3.090   5.961  18.235  0.00  0.00    +0.000 HD
ENDBRANCH   4  19
TORSDOF 2
ENDMDL
MODEL 6
REMARK VINA RESULT:      -6.7      3.160      5.531
REMARK  Name = 
REMARK  2 active torsions:
REMARK  status: ('A' for Active; 'I' for Inactive)
REMARK    1  A    between atoms: C_3  and  C_4
REMARK    2  A    between atoms: C_12  and  O_13
REMARK                            x       y       z     vdW  Elec       q    Type
REMARK                         _______ _______ _______ _____ _____    ______ ____
ROOT
ATOM      1  O   UNL     1       5.686   4.626  15.297  0.00  0.00    +0.000 OA
ATOM      2  C   UNL     1       6.081   4.951  16.403  0.00  0.00    +0.000 C 
ATOM      3  C   UNL     1       5.534   4.405  17.688  0.00  0.00    +0.000 C 
ATOM      4  C   UNL     1       6.386   4.888  18.620  0.00  0.00    +0.000 C 
ATOM      5  N   UNL     1       7.393   5.703  18.110  0.00  0.00    +0.000 N 
ATOM      6  C   UNL     1       8.181   6.674  18.867  0.00  0.00    +0.000 C 
ATOM      7  C   UNL     1       8.353   7.983  18.078  0.00  0.00    +0.000 C 
ATOM      8  C   UNL     1       7.016   8.475  17.531  0.00  0.00    +0.000 C 
ATOM      9  C   UNL     1       6.289   7.389  16.737  0.00  0.00    +0.000 C 
ATOM     10  C   UNL     1       7.056   6.057  16.723  0.00  0.00    +0.000 C 
ENDROOT
BRANCH   3  11
ATOM     11  C   UNL     1       4.151   3.945  17.766  0.00  0.00    +0.000 A 
ATOM     12  C   UNL     1       3.992   2.539  17.782  0.00  0.00    +0.000 A 
ATOM     13  C   UNL     1       2.763   1.961  18.075  0.00  0.00    +0.000 A 
ATOM     14  C   UNL     1       1.672   2.776  18.334  0.00  0.00    +0.000 A 
ATOM     15 CL   UNL     1       0.174   2.055  18.776  0.00  0.00    +0.000 Cl
ATOM     16  C   UNL     1       1.791   4.168  18.271  0.00  0.00    +0.000 A 
ATOM     17  C   UNL     1       3.029   4.752  17.983  0.00  0.00    +0.000 A 
ATOM     18 CL   UNL     1       3.136   6.473  17.946  0.00  0.00    +0.000 Cl
ENDBRANCH   3  11
BRANCH   4  19
ATOM     19  O   UNL     1       6.234   4.800  19.971  0.00  0.00    +0.000 OA
ATOM     20  H   UNL     1       6.132   3.863  20.204  0.00  0.00    +0.000 HD
ENDBRANCH   4  19
TORSDOF 2
ENDMDL
MODEL 7
REMARK VINA RESULT:      -6.7      2.991      5.796
REMARK  Name = 
REMARK  2 active torsions:
REMARK  status: ('A' for Active; 'I' for Inactive)
REMARK    1  A    between atoms: C_3  and  C_4
REMARK    2  A    between atoms: C_12  and  O_13
REMARK                            x       y       z     vdW  Elec       q    Type
REMARK                         _______ _______ _______ _____ _____    ______ ____
ROOT
ATOM      1  O   UNL     1       2.485   3.751  17.188  0.00  0.00    +0.000 OA
ATOM      2  C   UNL     1       3.602   4.123  17.503  0.00  0.00    +0.000 C 
ATOM      3  C   UNL     1       3.903   4.957  18.713  0.00  0.00    +0.000 C 
ATOM      4  C   UNL     1       5.254   4.954  18.765  0.00  0.00    +0.000 C 
ATOM      5  N   UNL     1       5.867   4.256  17.728  0.00  0.00    +0.000 N 
ATOM      6  C   UNL     1       7.251   4.414  17.284  0.00  0.00    +0.000 C 
ATOM      7  C   UNL     1       7.342   4.423  15.749  0.00  0.00    +0.000 C 
ATOM      8  C   UNL     1       6.323   5.383  15.142  0.00  0.00    +0.000 C 
ATOM      9  C   UNL     1       4.908   5.113  15.656  0.00  0.00    +0.000 C 
ATOM     10  C   UNL     1       4.864   3.977  16.691  0.00  0.00    +0.000 C 
ENDROOT
BRANCH   3  11
ATOM     11  C   UNL     1       2.901   5.875  19.245  0.00  0.00    +0.000 A 
ATOM     12  C   UNL     1       2.206   5.401  20.384  0.00  0.00    +0.000 A 
ATOM     13  C   UNL     1       1.390   6.245  21.126  0.00  0.00    +0.000 A 
ATOM     14  C   UNL     1       1.237   7.566  20.732  0.00  0.00    +0.000 A 
ATOM     15 CL   UNL     1       0.291   8.626  21.701  0.00  0.00    +0.000 Cl
ATOM     16  C   UNL     1       1.871   8.042  19.580  0.00  0.00    +0.000 A 
ATOM     17  C   UNL     1       2.700   7.197  18.835  0.00  0.00    +0.000 A 
ATOM     18 CL   UNL     1       3.484   7.837  17.440  0.00  0.00    +0.000 Cl
ENDBRANCH   3  11
BRANCH   4  19
ATOM     19  O   UNL     1       6.028   5.701  19.601  0.00  0.00    +0.000 OA
ATOM     20  H   UNL     1       6.449   6.403  19.077  0.00  0.00    +0.000 HD
ENDBRANCH   4  19
TORSDOF 2
ENDMDL
MODEL 8
REMARK VINA RESULT:      -6.6      1.851      2.338
REMARK  Name = 
REMARK  2 active torsions:
REMARK  status: ('A' for Active; 'I' for Inactive)
REMARK    1  A    between atoms: C_3  and  C_4
REMARK    2  A    between atoms: C_12  and  O_13
REMARK                            x       y       z     vdW  Elec       q    Type
REMARK                         _______ _______ _______ _____ _____    ______ ____
ROOT
ATOM      1  O   UNL     1       2.126   3.029  16.760  0.00  0.00    +0.000 OA
ATOM      2  C   UNL     1       2.324   3.624  17.804  0.00  0.00    +0.000 C 
ATOM      3  C   UNL     1       3.212   4.825  17.936  0.00  0.00    +0.000 C 
ATOM      4  C   UNL     1       2.975   5.252  19.196  0.00  0.00    +0.000 C 
ATOM      5  N   UNL     1       2.076   4.465  19.910  0.00  0.00    +0.000 N 
ATOM      6  C   UNL     1       1.939   4.417  21.364  0.00  0.00    +0.000 C 
ATOM      7  C   UNL     1       1.771   2.970  21.857  0.00  0.00    +0.000 C 
ATOM      8  C   UNL     1       2.829   2.054  21.247  0.00  0.00    +0.000 C 
ATOM      9  C   UNL     1       2.869   2.166  19.722  0.00  0.00    +0.000 C 
ATOM     10  C   UNL     1       1.872   3.204  19.181  0.00  0.00    +0.000 C 
ENDROOT
BRANCH   3  11
ATOM     11  C   UNL     1       4.344   5.009  17.032  0.00  0.00    +0.000 A 
ATOM     12  C   UNL     1       4.979   3.811  16.625  0.00  0.00    +0.000 A 
ATOM     13  C   UNL     1       5.919   3.812  15.603  0.00  0.00    +0.000 A 
ATOM     14  C   UNL     1       6.255   5.008  14.987  0.00  0.00    +0.000 A 
ATOM     15 CL   UNL     1       7.358   4.990  13.667  0.00  0.00    +0.000 Cl
ATOM     16  C   UNL     1       5.681   6.211  15.408  0.00  0.00    +0.000 A 
ATOM     17  C   UNL     1       4.728   6.212  16.433  0.00  0.00    +0.000 A 
ATOM     18 CL   UNL     1       4.025   7.716  16.897  0.00  0.00    +0.000 Cl
ENDBRANCH   3  11
BRANCH   4  19
ATOM     19  O   UNL     1       3.656   6.231  19.855  0.00  0.00    +0.000 OA
ATOM     20  H   UNL     1       3.413   6.190  20.794  0.00  0.00    +0.000 HD
ENDBRANCH   4  19
TORSDOF 2
ENDMDL
MODEL 9
REMARK VINA RESULT:      -6.5      3.273      5.850
REMARK  Name = 
REMARK  2 active torsions:
REMARK  status: ('A' for Active; 'I' for Inactive)
REMARK    1  A    between atoms: C_3  and  C_4
REMARK    2  A    between atoms: C_12  and  O_13
REMARK                            x       y       z     vdW  Elec       q    Type
REMARK                         _______ _______ _______ _____ _____    ______ ____
ROOT
ATOM      1  O   UNL     1       2.610   3.660  17.412  0.00  0.00    +0.000 OA
ATOM      2  C   UNL     1       3.755   4.009  17.644  0.00  0.00    +0.000 C 
ATOM      3  C   UNL     1       4.192   4.677  18.914  0.00  0.00    +0.000 C 
ATOM      4  C   UNL     1       5.539   4.695  18.809  0.00  0.00    +0.000 C 
ATOM      5  N   UNL     1       6.030   4.158  17.622  0.00  0.00    +0.000 N 
ATOM      6  C   UNL     1       7.352   4.403  17.048  0.00  0.00    +0.000 C 
ATOM      7  C   UNL     1       7.263   4.622  15.528  0.00  0.00    +0.000 C 
ATOM      8  C   UNL     1       6.174   5.635  15.181  0.00  0.00    +0.000 C 
ATOM      9  C   UNL     1       4.831   5.268  15.812  0.00  0.00    +0.000 C 
ATOM     10  C   UNL     1       4.914   4.001  16.679  0.00  0.00    +0.000 C 
ENDROOT
BRANCH   3  11
ATOM     11  C   UNL     1       3.254   5.493  19.680  0.00  0.00    +0.000 A 
ATOM     12  C   UNL     1       3.159   6.841  19.258  0.00  0.00    +0.000 A 
ATOM     13  C   UNL     1       2.156   7.672  19.740  0.00  0.00    +0.000 A 
ATOM     14  C   UNL     1       1.249   7.179  20.665  0.00  0.00    +0.000 A 
ATOM     15 CL   UNL     1      -0.039   8.188  21.197  0.00  0.00    +0.000 Cl
ATOM     16  C   UNL     1       1.355   5.867  21.137  0.00  0.00    +0.000 A 
ATOM     17  C   UNL     1       2.360   5.025  20.647  0.00  0.00    +0.000 A 
ATOM     18 CL   UNL     1       2.434   3.407  21.236  0.00  0.00    +0.000 Cl
ENDBRANCH   3  11
BRANCH   4  19
ATOM     19  O   UNL     1       6.402   5.338  19.645  0.00  0.00    +0.000 OA
ATOM     20  H   UNL     1       6.112   5.180  20.559  0.00  0.00    +0.000 HD
ENDBRANCH   4  19
TORSDOF 2
ENDMDL
