MODEL 1
REMARK VINA RESULT:      -7.1      0.000      0.000
REMARK  Name = 
REMARK  6 active torsions:
REMARK  status: ('A' for Active; 'I' for Inactive)
REMARK    1  A    between atoms: C_1  and  C_2
REMARK    2  A    between atoms: C_2  and  C_3
REMARK    3  A    between atoms: C_2  and  O_4
REMARK    4  A    between atoms: O_4  and  C_5
REMARK    5  A    between atoms: C_5  and  C_7
REMARK    6  A    between atoms: C_18  and  C_19
REMARK                            x       y       z     vdW  Elec       q    Type
REMARK                         _______ _______ _______ _____ _____    ______ ____
ROOT
ATOM      1  C   UNL     1       3.563   5.518  17.815  0.00  0.00    +0.000 A 
ATOM      2  S   UNL     1       3.910   7.083  17.188  0.00  0.00    +0.000 S 
ATOM      3  C   UNL     1       2.804   7.794  18.305  0.00  0.00    +0.000 A 
ATOM      4  N   UNL     1       2.568   9.118  18.257  0.00  0.00    +0.000 N 
ATOM      5  C   UNL     1       1.447   9.740  18.798  0.00  0.00    +0.000 A 
ATOM      6  N   UNL     1       0.742   9.182  19.795  0.00  0.00    +0.000 NA
ATOM      7  C   UNL     1      -0.368   9.810  20.213  0.00  0.00    +0.000 A 
ATOM      8  C   UNL     1      -0.812  10.984  19.669  0.00  0.00    +0.000 A 
ATOM      9  C   UNL     1      -0.023  11.499  18.671  0.00  0.00    +0.000 A 
ATOM     10  N   UNL     1       1.105  10.909  18.228  0.00  0.00    +0.000 NA
ATOM     11  N   UNL     1       2.246   6.929  19.118  0.00  0.00    +0.000 NA
ATOM     12  C   UNL     1       2.676   5.638  18.868  0.00  0.00    +0.000 A 
ATOM     13  H   UNL     1       2.927   9.668  17.493  0.00  0.00    +0.000 HD
ENDROOT
BRANCH  12  14
ATOM     14  C   UNL     1       2.199   4.540  19.698  0.00  0.00    +0.000 A 
ATOM     15  C   UNL     1       1.177   3.726  19.248  0.00  0.00    +0.000 A 
ATOM     16  C   UNL     1       0.784   2.728  20.106  0.00  0.00    +0.000 A 
ATOM     17  N   UNL     1       1.343   2.525  21.312  0.00  0.00    +0.000 NA
ATOM     18  C   UNL     1       2.316   3.382  21.653  0.00  0.00    +0.000 A 
ATOM     19  N   UNL     1       2.764   4.403  20.914  0.00  0.00    +0.000 NA
ENDBRANCH  12  14
BRANCH   1  20
ATOM     20  C   UNL     1       4.114   4.330  17.211  0.00  0.00    +0.000 C 
ATOM     21  O   UNL     1       4.052   3.196  17.672  0.00  0.00    +0.000 OA
BRANCH  20  22
ATOM     22  O   UNL     1       4.708   4.635  16.018  0.00  0.00    +0.000 OA
BRANCH  22  24
ATOM     23  C   UNL     1       6.174   3.939  14.205  0.00  0.00    +0.000 C 
ATOM     24  C   UNL     1       5.906   3.903  15.706  0.00  0.00    +0.000 C 
ATOM     25  C   UNL     1       7.046   4.575  16.464  0.00  0.00    +0.000 C 
ENDBRANCH  22  24
ENDBRANCH  20  22
ENDBRANCH   1  20
TORSDOF 4
ENDMDL
MODEL 2
REMARK VINA RESULT:      -7.1      2.368      4.329
REMARK  Name = 
REMARK  6 active torsions:
REMARK  status: ('A' for Active; 'I' for Inactive)
REMARK    1  A    between atoms: C_1  and  C_2
REMARK    2  A    between atoms: C_2  and  C_3
REMARK    3  A    between atoms: C_2  and  O_4
REMARK    4  A    between atoms: O_4  and  C_5
REMARK    5  A    between atoms: C_5  and  C_7
REMARK    6  A    between atoms: C_18  and  C_19
REMARK                            x       y       z     vdW  Elec       q    Type
REMARK                         _______ _______ _______ _____ _____    ______ ____
ROOT
ATOM      1  C   UNL     1       3.616   5.361  19.185  0.00  0.00    +0.000 A 
ATOM      2  S   UNL     1       2.214   5.924  20.009  0.00  0.00    +0.000 S 
ATOM      3  C   UNL     1       2.254   7.394  19.106  0.00  0.00    +0.000 A 
ATOM      4  N   UNL     1       1.357   8.362  19.371  0.00  0.00    +0.000 N 
ATOM      5  C   UNL     1       1.515   9.701  19.024  0.00  0.00    +0.000 A 
ATOM      6  N   UNL     1       2.318  10.078  18.015  0.00  0.00    +0.000 NA
ATOM      7  C   UNL     1       2.472  11.391  17.789  0.00  0.00    +0.000 A 
ATOM      8  C   UNL     1       1.857  12.357  18.537  0.00  0.00    +0.000 A 
ATOM      9  C   UNL     1       1.037  11.887  19.534  0.00  0.00    +0.000 A 
ATOM     10  N   UNL     1       0.843  10.578  19.788  0.00  0.00    +0.000 NA
ATOM     11  N   UNL     1       3.220   7.444  18.221  0.00  0.00    +0.000 NA
ATOM     12  C   UNL     1       3.992   6.296  18.238  0.00  0.00    +0.000 A 
ATOM     13  H   UNL     1       0.757   8.289  20.178  0.00  0.00    +0.000 HD
ENDROOT
BRANCH  12  14
ATOM     14  C   UNL     1       5.091   6.145  17.295  0.00  0.00    +0.000 A 
ATOM     15  C   UNL     1       4.898   5.461  16.110  0.00  0.00    +0.000 A 
ATOM     16  C   UNL     1       5.996   5.356  15.292  0.00  0.00    +0.000 A 
ATOM     17  N   UNL     1       7.197   5.880  15.593  0.00  0.00    +0.000 NA
ATOM     18  C   UNL     1       7.276   6.510  16.774  0.00  0.00    +0.000 A 
ATOM     19  N   UNL     1       6.285   6.653  17.661  0.00  0.00    +0.000 NA
ENDBRANCH  12  14
BRANCH   1  20
ATOM     20  C   UNL     1       4.258   4.124  19.557  0.00  0.00    +0.000 C 
ATOM     21  O   UNL     1       5.463   3.956  19.700  0.00  0.00    +0.000 OA
BRANCH  20  22
ATOM     22  O   UNL     1       3.324   3.146  19.756  0.00  0.00    +0.000 OA
BRANCH  22  24
ATOM     23  C   UNL     1       3.557   1.366  18.114  0.00  0.00    +0.000 C 
ATOM     24  C   UNL     1       2.746   2.575  18.570  0.00  0.00    +0.000 C 
ATOM     25  C   UNL     1       1.324   2.155  18.926  0.00  0.00    +0.000 C 
ENDBRANCH  22  24
ENDBRANCH  20  22
ENDBRANCH   1  20
TORSDOF 4
ENDMDL
MODEL 3
REMARK VINA RESULT:      -7.0      3.957      6.002
REMARK  Name = 
REMARK  6 active torsions:
REMARK  status: ('A' for Active; 'I' for Inactive)
REMARK    1  A    between atoms: C_1  and  C_2
REMARK    2  A    between atoms: C_2  and  C_3
REMARK    3  A    between atoms: C_2  and  O_4
REMARK    4  A    between atoms: O_4  and  C_5
REMARK    5  A    between atoms: C_5  and  C_7
REMARK    6  A    between atoms: C_18  and  C_19
REMARK                            x       y       z     vdW  Elec       q    Type
REMARK                         _______ _______ _______ _____ _____    ______ ____
ROOT
ATOM      1  C   UNL     1       5.763   4.659  15.888  0.00  0.00    +0.000 A 
ATOM      2  S   UNL     1       4.356   3.687  15.690  0.00  0.00    +0.000 S 
ATOM      3  C   UNL     1       3.800   4.146  17.258  0.00  0.00    +0.000 A 
ATOM      4  N   UNL     1       2.667   3.605  17.746  0.00  0.00    +0.000 N 
ATOM      5  C   UNL     1       2.328   3.569  19.095  0.00  0.00    +0.000 A 
ATOM      6  N   UNL     1       2.839   4.446  19.975  0.00  0.00    +0.000 NA
ATOM      7  C   UNL     1       2.518   4.299  21.270  0.00  0.00    +0.000 A 
ATOM      8  C   UNL     1       1.705   3.301  21.731  0.00  0.00    +0.000 A 
ATOM      9  C   UNL     1       1.208   2.461  20.765  0.00  0.00    +0.000 A 
ATOM     10  N   UNL     1       1.493   2.578  19.453  0.00  0.00    +0.000 NA
ATOM     11  N   UNL     1       4.586   4.998  17.869  0.00  0.00    +0.000 NA
ATOM     12  C   UNL     1       5.694   5.314  17.103  0.00  0.00    +0.000 A 
ATOM     13  H   UNL     1       2.222   2.841  17.262  0.00  0.00    +0.000 HD
ENDROOT
BRANCH  12  14
ATOM     14  C   UNL     1       6.666   6.281  17.596  0.00  0.00    +0.000 A 
ATOM     15  C   UNL     1       7.530   5.934  18.618  0.00  0.00    +0.000 A 
ATOM     16  C   UNL     1       8.399   6.915  19.026  0.00  0.00    +0.000 A 
ATOM     17  N   UNL     1       8.438   8.145  18.483  0.00  0.00    +0.000 NA
ATOM     18  C   UNL     1       7.546   8.378  17.510  0.00  0.00    +0.000 A 
ATOM     19  N   UNL     1       6.637   7.511  17.047  0.00  0.00    +0.000 NA
ENDBRANCH  12  14
BRANCH   1  20
ATOM     20  C   UNL     1       6.818   4.658  14.905  0.00  0.00    +0.000 C 
ATOM     21  O   UNL     1       7.781   5.417  14.886  0.00  0.00    +0.000 OA
BRANCH  20  22
ATOM     22  O   UNL     1       6.616   3.663  13.991  0.00  0.00    +0.000 OA
BRANCH  22  24
ATOM     23  C   UNL     1       7.447   4.423  11.834  0.00  0.00    +0.000 C 
ATOM     24  C   UNL     1       6.220   4.088  12.675  0.00  0.00    +0.000 C 
ATOM     25  C   UNL     1       5.448   2.931  12.049  0.00  0.00    +0.000 C 
ENDBRANCH  22  24
ENDBRANCH  20  22
ENDBRANCH   1  20
TORSDOF 4
ENDMDL
MODEL 4
REMARK VINA RESULT:      -6.8      0.741      1.217
REMARK  Name = 
REMARK  6 active torsions:
REMARK  status: ('A' for Active; 'I' for Inactive)
REMARK    1  A    between atoms: C_1  and  C_2
REMARK    2  A    between atoms: C_2  and  C_3
REMARK    3  A    between atoms: C_2  and  O_4
REMARK    4  A    between atoms: O_4  and  C_5
REMARK    5  A    between atoms: C_5  and  C_7
REMARK    6  A    between atoms: C_18  and  C_19
REMARK                            x       y       z     vdW  Elec       q    Type
REMARK                         _______ _______ _______ _____ _____    ______ ____
ROOT
ATOM      1  C   UNL     1       3.558   5.751  17.935  0.00  0.00    +0.000 A 
ATOM      2  S   UNL     1       3.865   7.333  17.330  0.00  0.00    +0.000 S 
ATOM      3  C   UNL     1       2.702   7.994  18.419  0.00  0.00    +0.000 A 
ATOM      4  N   UNL     1       2.420   9.309  18.373  0.00  0.00    +0.000 N 
ATOM      5  C   UNL     1       1.262   9.886  18.886  0.00  0.00    +0.000 A 
ATOM      6  N   UNL     1       0.550   9.294  19.859  0.00  0.00    +0.000 NA
ATOM      7  C   UNL     1      -0.594   9.878  20.249  0.00  0.00    +0.000 A 
ATOM      8  C   UNL     1      -1.065  11.039  19.701  0.00  0.00    +0.000 A 
ATOM      9  C   UNL     1      -0.268  11.591  18.729  0.00  0.00    +0.000 A 
ATOM     10  N   UNL     1       0.894  11.045  18.315  0.00  0.00    +0.000 NA
ATOM     11  N   UNL     1       2.154   7.103  19.210  0.00  0.00    +0.000 NA
ATOM     12  C   UNL     1       2.637   5.830  18.963  0.00  0.00    +0.000 A 
ATOM     13  H   UNL     1       2.780   9.878  17.623  0.00  0.00    +0.000 HD
ENDROOT
BRANCH  12  14
ATOM     14  C   UNL     1       2.178   4.709  19.772  0.00  0.00    +0.000 A 
ATOM     15  C   UNL     1       1.257   3.816  19.257  0.00  0.00    +0.000 A 
ATOM     16  C   UNL     1       0.872   2.801  20.097  0.00  0.00    +0.000 A 
ATOM     17  N   UNL     1       1.345   2.654  21.347  0.00  0.00    +0.000 NA
ATOM     18  C   UNL     1       2.222   3.585  21.750  0.00  0.00    +0.000 A 
ATOM     19  N   UNL     1       2.652   4.628  21.031  0.00  0.00    +0.000 NA
ENDBRANCH  12  14
BRANCH   1  20
ATOM     20  C   UNL     1       4.169   4.589  17.339  0.00  0.00    +0.000 C 
ATOM     21  O   UNL     1       3.691   3.910  16.438  0.00  0.00    +0.000 OA
BRANCH  20  22
ATOM     22  O   UNL     1       5.389   4.350  17.907  0.00  0.00    +0.000 OA
BRANCH  22  24
ATOM     23  C   UNL     1       7.442   5.464  18.591  0.00  0.00    +0.000 C 
ATOM     24  C   UNL     1       6.470   5.182  17.449  0.00  0.00    +0.000 C 
ATOM     25  C   UNL     1       7.173   4.421  16.330  0.00  0.00    +0.000 C 
ENDBRANCH  22  24
ENDBRANCH  20  22
ENDBRANCH   1  20
TORSDOF 4
ENDMDL
MODEL 5
REMARK VINA RESULT:      -6.8      1.391      1.605
REMARK  Name = 
REMARK  6 active torsions:
REMARK  status: ('A' for Active; 'I' for Inactive)
REMARK    1  A    between atoms: C_1  and  C_2
REMARK    2  A    between atoms: C_2  and  C_3
REMARK    3  A    between atoms: C_2  and  O_4
REMARK    4  A    between atoms: O_4  and  C_5
REMARK    5  A    between atoms: C_5  and  C_7
REMARK    6  A    between atoms: C_18  and  C_19
REMARK                            x       y       z     vdW  Elec       q    Type
REMARK                         _______ _______ _______ _____ _____    ______ ____
ROOT
ATOM      1  C   UNL     1       2.982   5.742  18.136  0.00  0.00    +0.000 A 
ATOM      2  S   UNL     1       2.832   7.385  17.646  0.00  0.00    +0.000 S 
ATOM      3  C   UNL     1       2.232   7.812  19.206  0.00  0.00    +0.000 A 
ATOM      4  N   UNL     1       1.838   9.078  19.443  0.00  0.00    +0.000 N 
ATOM      5  C   UNL     1       0.989   9.458  20.479  0.00  0.00    +0.000 A 
ATOM      6  N   UNL     1       0.854   8.716  21.589  0.00  0.00    +0.000 NA
ATOM      7  C   UNL     1      -0.038   9.113  22.509  0.00  0.00    +0.000 A 
ATOM      8  C   UNL     1      -0.814  10.231  22.366  0.00  0.00    +0.000 A 
ATOM      9  C   UNL     1      -0.599  10.945  21.213  0.00  0.00    +0.000 A 
ATOM     10  N   UNL     1       0.295  10.590  20.268  0.00  0.00    +0.000 NA
ATOM     11  N   UNL     1       2.188   6.808  20.048  0.00  0.00    +0.000 NA
ATOM     12  C   UNL     1       2.625   5.631  19.466  0.00  0.00    +0.000 A 
ATOM     13  H   UNL     1       1.764   9.735  18.683  0.00  0.00    +0.000 HD
ENDROOT
BRANCH  12  14
ATOM     14  C   UNL     1       2.689   4.410  20.258  0.00  0.00    +0.000 A 
ATOM     15  C   UNL     1       1.650   4.080  21.108  0.00  0.00    +0.000 A 
ATOM     16  C   UNL     1       1.807   2.920  21.824  0.00  0.00    +0.000 A 
ATOM     17  N   UNL     1       2.889   2.128  21.724  0.00  0.00    +0.000 NA
ATOM     18  C   UNL     1       3.842   2.550  20.882  0.00  0.00    +0.000 A 
ATOM     19  N   UNL     1       3.812   3.672  20.152  0.00  0.00    +0.000 NA
ENDBRANCH  12  14
BRANCH   1  20
ATOM     20  C   UNL     1       3.364   4.713  17.200  0.00  0.00    +0.000 C 
ATOM     21  O   UNL     1       2.762   3.664  17.004  0.00  0.00    +0.000 OA
BRANCH  20  22
ATOM     22  O   UNL     1       4.496   5.077  16.528  0.00  0.00    +0.000 OA
BRANCH  22  24
ATOM     23  C   UNL     1       6.107   3.955  15.090  0.00  0.00    +0.000 C 
ATOM     24  C   UNL     1       5.555   4.105  16.504  0.00  0.00    +0.000 C 
ATOM     25  C   UNL     1       6.643   4.609  17.446  0.00  0.00    +0.000 C 
ENDBRANCH  22  24
ENDBRANCH  20  22
ENDBRANCH   1  20
TORSDOF 4
ENDMDL
MODEL 6
REMARK VINA RESULT:      -6.6      1.522      1.853
REMARK  Name = 
REMARK  6 active torsions:
REMARK  status: ('A' for Active; 'I' for Inactive)
REMARK    1  A    between atoms: C_1  and  C_2
REMARK    2  A    between atoms: C_2  and  C_3
REMARK    3  A    between atoms: C_2  and  O_4
REMARK    4  A    between atoms: O_4  and  C_5
REMARK    5  A    between atoms: C_5  and  C_7
REMARK    6  A    between atoms: C_18  and  C_19
REMARK                            x       y       z     vdW  Elec       q    Type
REMARK                         _______ _______ _______ _____ _____    ______ ____
ROOT
ATOM      1  C   UNL     1       2.794   5.943  18.338  0.00  0.00    +0.000 A 
ATOM      2  S   UNL     1       2.700   7.613  17.933  0.00  0.00    +0.000 S 
ATOM      3  C   UNL     1       2.088   7.976  19.505  0.00  0.00    +0.000 A 
ATOM      4  N   UNL     1       1.727   9.238  19.803  0.00  0.00    +0.000 N 
ATOM      5  C   UNL     1       0.874   9.589  20.845  0.00  0.00    +0.000 A 
ATOM      6  N   UNL     1       0.700   8.794  21.913  0.00  0.00    +0.000 NA
ATOM      7  C   UNL     1      -0.194   9.170  22.840  0.00  0.00    +0.000 A 
ATOM      8  C   UNL     1      -0.935  10.316  22.745  0.00  0.00    +0.000 A 
ATOM      9  C   UNL     1      -0.680  11.083  21.635  0.00  0.00    +0.000 A 
ATOM     10  N   UNL     1       0.217  10.751  20.685  0.00  0.00    +0.000 NA
ATOM     11  N   UNL     1       2.001   6.931  20.292  0.00  0.00    +0.000 NA
ATOM     12  C   UNL     1       2.413   5.773  19.656  0.00  0.00    +0.000 A 
ATOM     13  H   UNL     1       1.685   9.937  19.078  0.00  0.00    +0.000 HD
ENDROOT
BRANCH  12  14
ATOM     14  C   UNL     1       2.429   4.511  20.382  0.00  0.00    +0.000 A 
ATOM     15  C   UNL     1       3.568   3.728  20.384  0.00  0.00    +0.000 A 
ATOM     16  C   UNL     1       3.483   2.549  21.082  0.00  0.00    +0.000 A 
ATOM     17  N   UNL     1       2.378   2.154  21.739  0.00  0.00    +0.000 NA
ATOM     18  C   UNL     1       1.327   2.983  21.658  0.00  0.00    +0.000 A 
ATOM     19  N   UNL     1       1.284   4.141  20.990  0.00  0.00    +0.000 NA
ENDBRANCH  12  14
BRANCH   1  20
ATOM     20  C   UNL     1       3.160   4.953  17.355  0.00  0.00    +0.000 C 
ATOM     21  O   UNL     1       2.533   3.931  17.099  0.00  0.00    +0.000 OA
BRANCH  20  22
ATOM     22  O   UNL     1       4.309   5.322  16.714  0.00  0.00    +0.000 OA
BRANCH  22  24
ATOM     23  C   UNL     1       5.527   4.267  14.890  0.00  0.00    +0.000 C 
ATOM     24  C   UNL     1       5.216   4.255  16.384  0.00  0.00    +0.000 C 
ATOM     25  C   UNL     1       6.488   4.489  17.191  0.00  0.00    +0.000 C 
ENDBRANCH  22  24
ENDBRANCH  20  22
ENDBRANCH   1  20
TORSDOF 4
ENDMDL
MODEL 7
REMARK VINA RESULT:      -6.5      4.623      9.399
REMARK  Name = 
REMARK  6 active torsions:
REMARK  status: ('A' for Active; 'I' for Inactive)
REMARK    1  A    between atoms: C_1  and  C_2
REMARK    2  A    between atoms: C_2  and  C_3
REMARK    3  A    between atoms: C_2  and  O_4
REMARK    4  A    between atoms: O_4  and  C_5
REMARK    5  A    between atoms: C_5  and  C_7
REMARK    6  A    between atoms: C_18  and  C_19
REMARK                            x       y       z     vdW  Elec       q    Type
REMARK                         _______ _______ _______ _____ _____    ______ ____
ROOT
ATOM      1  C   UNL     1      -0.224  11.078  22.281  0.00  0.00    +0.000 A 
ATOM      2  S   UNL     1       0.030   9.542  23.015  0.00  0.00    +0.000 S 
ATOM      3  C   UNL     1       0.962   9.029  21.656  0.00  0.00    +0.000 A 
ATOM      4  N   UNL     1       1.429   7.767  21.609  0.00  0.00    +0.000 N 
ATOM      5  C   UNL     1       1.829   7.118  20.445  0.00  0.00    +0.000 A 
ATOM      6  N   UNL     1       2.223   7.798  19.356  0.00  0.00    +0.000 NA
ATOM      7  C   UNL     1       2.523   7.100  18.251  0.00  0.00    +0.000 A 
ATOM      8  C   UNL     1       2.443   5.736  18.181  0.00  0.00    +0.000 A 
ATOM      9  C   UNL     1       2.053   5.116  19.342  0.00  0.00    +0.000 A 
ATOM     10  N   UNL     1       1.754   5.776  20.479  0.00  0.00    +0.000 NA
ATOM     11  N   UNL     1       1.109   9.953  20.738  0.00  0.00    +0.000 NA
ATOM     12  C   UNL     1       0.460  11.126  21.081  0.00  0.00    +0.000 A 
ATOM     13  H   UNL     1       1.126   7.090  22.291  0.00  0.00    +0.000 HD
ENDROOT
BRANCH  12  14
ATOM     14  C   UNL     1       0.545  12.286  20.205  0.00  0.00    +0.000 A 
ATOM     15  C   UNL     1       1.571  13.199  20.361  0.00  0.00    +0.000 A 
ATOM     16  C   UNL     1       1.559  14.267  19.499  0.00  0.00    +0.000 A 
ATOM     17  N   UNL     1       0.625  14.443  18.548  0.00  0.00    +0.000 NA
ATOM     18  C   UNL     1      -0.333  13.505  18.495  0.00  0.00    +0.000 A 
ATOM     19  N   UNL     1      -0.438  12.438  19.294  0.00  0.00    +0.000 NA
ENDBRANCH  12  14
BRANCH   1  20
ATOM     20  C   UNL     1      -1.093  12.061  22.881  0.00  0.00    +0.000 C 
ATOM     21  O   UNL     1      -0.732  13.080  23.458  0.00  0.00    +0.000 OA
BRANCH  20  22
ATOM     22  O   UNL     1      -2.402  11.714  22.696  0.00  0.00    +0.000 OA
BRANCH  22  24
ATOM     23  C   UNL     1      -4.443  12.767  21.893  0.00  0.00    +0.000 C 
ATOM     24  C   UNL     1      -3.371  12.739  22.977  0.00  0.00    +0.000 C 
ATOM     25  C   UNL     1      -3.993  12.402  24.329  0.00  0.00    +0.000 C 
ENDBRANCH  22  24
ENDBRANCH  20  22
ENDBRANCH   1  20
TORSDOF 4
ENDMDL
MODEL 8
REMARK VINA RESULT:      -6.5      4.641      9.286
REMARK  Name = 
REMARK  6 active torsions:
REMARK  status: ('A' for Active; 'I' for Inactive)
REMARK    1  A    between atoms: C_1  and  C_2
REMARK    2  A    between atoms: C_2  and  C_3
REMARK    3  A    between atoms: C_2  and  O_4
REMARK    4  A    between atoms: O_4  and  C_5
REMARK    5  A    between atoms: C_5  and  C_7
REMARK    6  A    between atoms: C_18  and  C_19
REMARK                            x       y       z     vdW  Elec       q    Type
REMARK                         _______ _______ _______ _____ _____    ______ ____
ROOT
ATOM      1  C   UNL     1      -0.305  10.988  22.227  0.00  0.00    +0.000 A 
ATOM      2  S   UNL     1      -0.040   9.452  22.956  0.00  0.00    +0.000 S 
ATOM      3  C   UNL     1       0.928   8.964  21.613  0.00  0.00    +0.000 A 
ATOM      4  N   UNL     1       1.418   7.711  21.567  0.00  0.00    +0.000 N 
ATOM      5  C   UNL     1       1.852   7.076  20.407  0.00  0.00    +0.000 A 
ATOM      6  N   UNL     1       2.257   7.771  19.331  0.00  0.00    +0.000 NA
ATOM      7  C   UNL     1       2.592   7.086  18.227  0.00  0.00    +0.000 A 
ATOM      8  C   UNL     1       2.536   5.722  18.147  0.00  0.00    +0.000 A 
ATOM      9  C   UNL     1       2.134   5.087  19.296  0.00  0.00    +0.000 A 
ATOM     10  N   UNL     1       1.800   5.733  20.431  0.00  0.00    +0.000 NA
ATOM     11  N   UNL     1       1.078   9.897  20.704  0.00  0.00    +0.000 NA
ATOM     12  C   UNL     1       0.402  11.056  21.042  0.00  0.00    +0.000 A 
ATOM     13  H   UNL     1       1.113   7.024  22.238  0.00  0.00    +0.000 HD
ENDROOT
BRANCH  12  14
ATOM     14  C   UNL     1       0.484  12.224  20.174  0.00  0.00    +0.000 A 
ATOM     15  C   UNL     1      -0.589  12.569  19.375  0.00  0.00    +0.000 A 
ATOM     16  C   UNL     1      -0.413  13.675  18.580  0.00  0.00    +0.000 A 
ATOM     17  N   UNL     1       0.718  14.401  18.561  0.00  0.00    +0.000 NA
ATOM     18  C   UNL     1       1.700  13.968  19.364  0.00  0.00    +0.000 A 
ATOM     19  N   UNL     1       1.653  12.895  20.161  0.00  0.00    +0.000 NA
ENDBRANCH  12  14
BRANCH   1  20
ATOM     20  C   UNL     1      -1.203  11.952  22.815  0.00  0.00    +0.000 C 
ATOM     21  O   UNL     1      -2.424  11.865  22.853  0.00  0.00    +0.000 OA
BRANCH  20  22
ATOM     22  O   UNL     1      -0.497  12.988  23.360  0.00  0.00    +0.000 OA
BRANCH  22  24
ATOM     23  C   UNL     1      -1.395  14.921  24.533  0.00  0.00    +0.000 C 
ATOM     24  C   UNL     1      -1.062  14.298  23.181  0.00  0.00    +0.000 C 
ATOM     25  C   UNL     1      -0.016  15.137  22.454  0.00  0.00    +0.000 C 
ENDBRANCH  22  24
ENDBRANCH  20  22
ENDBRANCH   1  20
TORSDOF 4
ENDMDL
MODEL 9
REMARK VINA RESULT:      -6.1      2.362      4.755
REMARK  Name = 
REMARK  6 active torsions:
REMARK  status: ('A' for Active; 'I' for Inactive)
REMARK    1  A    between atoms: C_1  and  C_2
REMARK    2  A    between atoms: C_2  and  C_3
REMARK    3  A    between atoms: C_2  and  O_4
REMARK    4  A    between atoms: O_4  and  C_5
REMARK    5  A    between atoms: C_5  and  C_7
REMARK    6  A    between atoms: C_18  and  C_19
REMARK                            x       y       z     vdW  Elec       q    Type
REMARK                         _______ _______ _______ _____ _____    ______ ____
ROOT
ATOM      1  C   UNL     1       3.234   5.782  19.080  0.00  0.00    +0.000 A 
ATOM      2  S   UNL     1       1.807   6.477  19.743  0.00  0.00    +0.000 S 
ATOM      3  C   UNL     1       2.081   7.929  18.853  0.00  0.00    +0.000 A 
ATOM      4  N   UNL     1       1.253   8.978  19.019  0.00  0.00    +0.000 N 
ATOM      5  C   UNL     1       1.570  10.293  18.694  0.00  0.00    +0.000 A 
ATOM      6  N   UNL     1       2.511  10.587  17.782  0.00  0.00    +0.000 NA
ATOM      7  C   UNL     1       2.810  11.879  17.577  0.00  0.00    +0.000 A 
ATOM      8  C   UNL     1       2.206  12.903  18.254  0.00  0.00    +0.000 A 
ATOM      9  C   UNL     1       1.241  12.518  19.152  0.00  0.00    +0.000 A 
ATOM     10  N   UNL     1       0.900  11.234  19.381  0.00  0.00    +0.000 NA
ATOM     11  N   UNL     1       3.140   7.884  18.081  0.00  0.00    +0.000 NA
ATOM     12  C   UNL     1       3.797   6.670  18.182  0.00  0.00    +0.000 A 
ATOM     13  H   UNL     1       0.562   8.966  19.753  0.00  0.00    +0.000 HD
ENDROOT
BRANCH  12  14
ATOM     14  C   UNL     1       4.976   6.412  17.367  0.00  0.00    +0.000 A 
ATOM     15  C   UNL     1       6.219   6.843  17.791  0.00  0.00    +0.000 A 
ATOM     16  C   UNL     1       7.268   6.569  16.950  0.00  0.00    +0.000 A 
ATOM     17  N   UNL     1       7.130   5.918  15.781  0.00  0.00    +0.000 NA
ATOM     18  C   UNL     1       5.879   5.558  15.461  0.00  0.00    +0.000 A 
ATOM     19  N   UNL     1       4.779   5.792  16.186  0.00  0.00    +0.000 NA
ENDBRANCH  12  14
BRANCH   1  20
ATOM     20  C   UNL     1       3.714   4.494  19.517  0.00  0.00    +0.000 C 
ATOM     21  O   UNL     1       4.649   3.872  19.026  0.00  0.00    +0.000 OA
BRANCH  20  22
ATOM     22  O   UNL     1       2.991   4.058  20.591  0.00  0.00    +0.000 OA
BRANCH  22  24
ATOM     23  C   UNL     1       1.690   2.365  21.759  0.00  0.00    +0.000 C 
ATOM     24  C   UNL     1       2.437   2.735  20.482  0.00  0.00    +0.000 C 
ATOM     25  C   UNL     1       1.481   2.750  19.294  0.00  0.00    +0.000 C 
ENDBRANCH  22  24
ENDBRANCH  20  22
ENDBRANCH   1  20
TORSDOF 4
ENDMDL
