MODEL 1
REMARK VINA RESULT:      -8.0      0.000      0.000
REMARK  Name = 
REMARK  7 active torsions:
REMARK  status: ('A' for Active; 'I' for Inactive)
REMARK    1  A    between atoms: C_1  and  O_2
REMARK    2  A    between atoms: O_2  and  C_3
REMARK    3  A    between atoms: C_6  and  C_7
REMARK    4  A    between atoms: C_7  and  O_8
REMARK    5  A    between atoms: C_7  and  C_9
REMARK    6  A    between atoms: C_9  and  C_10
REMARK    7  A    between atoms: C_20  and  C_21
REMARK                            x       y       z     vdW  Elec       q    Type
REMARK                         _______ _______ _______ _____ _____    ______ ____
ROOT
ATOM      1  C   UNL     1       7.131   6.224  16.932  0.00  0.00    +0.000 A 
ATOM      2  C   UNL     1       6.503   6.011  18.104  0.00  0.00    +0.000 A 
ATOM      3  C   UNL     1       5.508   4.964  18.217  0.00  0.00    +0.000 A 
ATOM      4  C   UNL     1       5.154   4.147  17.196  0.00  0.00    +0.000 A 
ATOM      5  C   UNL     1       5.811   4.393  15.930  0.00  0.00    +0.000 A 
ATOM      6  C   UNL     1       5.731   3.803  14.689  0.00  0.00    +0.000 A 
ATOM      7  C   UNL     1       6.646   4.509  13.868  0.00  0.00    +0.000 A 
ATOM      8  N   UNL     1       7.269   5.475  14.563  0.00  0.00    +0.000 NA
ATOM      9  N   UNL     1       6.765   5.414  15.829  0.00  0.00    +0.000 N 
ENDROOT
BRANCH   7  10
ATOM     10  C   UNL     1       6.928   4.256  12.411  0.00  0.00    +0.000 C 
ATOM     11  F   UNL     1       7.756   5.200  11.884  0.00  0.00    +0.000 F 
ATOM     12  F   UNL     1       7.536   3.058  12.198  0.00  0.00    +0.000 F 
ATOM     13  F   UNL     1       5.801   4.272  11.650  0.00  0.00    +0.000 F 
ENDBRANCH   7  10
BRANCH   1  15
ATOM     14  C   UNL     1       8.072   8.329  17.549  0.00  0.00    +0.000 C 
ATOM     15  O   UNL     1       8.122   7.168  16.728  0.00  0.00    +0.000 OA
ENDBRANCH   1  15
BRANCH   4  16
ATOM     16  C   UNL     1       4.118   3.025  17.387  0.00  0.00    +0.000 C 
BRANCH  16  17
ATOM     17  O   UNL     1       4.422   2.364  18.621  0.00  0.00    +0.000 OA
ATOM     18  H   UNL     1       5.264   2.725  18.949  0.00  0.00    +0.000 HD
ENDBRANCH  16  17
BRANCH  16  19
ATOM     19  C   UNL     1       2.638   3.470  17.396  0.00  0.00    +0.000 C 
BRANCH  19  20
ATOM     20  C   UNL     1       2.205   4.202  18.651  0.00  0.00    +0.000 A 
ATOM     21  C   UNL     1       1.696   3.510  19.766  0.00  0.00    +0.000 A 
ATOM     22 CL   UNL     1       1.522   1.791  19.806  0.00  0.00    +0.000 Cl
ATOM     23  C   UNL     1       1.336   4.226  20.904  0.00  0.00    +0.000 A 
ATOM     24  N   UNL     1       1.445   5.568  21.023  0.00  0.00    +0.000 NA
ATOM     25  C   UNL     1       1.925   6.222  19.942  0.00  0.00    +0.000 A 
ATOM     26  C   UNL     1       2.305   5.600  18.755  0.00  0.00    +0.000 A 
ATOM     27 CL   UNL     1       2.899   6.589  17.472  0.00  0.00    +0.000 Cl
ENDBRANCH  19  20
ENDBRANCH  16  19
ENDBRANCH   4  16
TORSDOF 6
ENDMDL
MODEL 2
REMARK VINA RESULT:      -7.9      0.183      1.790
REMARK  Name = 
REMARK  7 active torsions:
REMARK  status: ('A' for Active; 'I' for Inactive)
REMARK    1  A    between atoms: C_1  and  O_2
REMARK    2  A    between atoms: O_2  and  C_3
REMARK    3  A    between atoms: C_6  and  C_7
REMARK    4  A    between atoms: C_7  and  O_8
REMARK    5  A    between atoms: C_7  and  C_9
REMARK    6  A    between atoms: C_9  and  C_10
REMARK    7  A    between atoms: C_20  and  C_21
REMARK                            x       y       z     vdW  Elec       q    Type
REMARK                         _______ _______ _______ _____ _____    ______ ____
ROOT
ATOM      1  C   UNL     1       7.125   6.193  17.012  0.00  0.00    +0.000 A 
ATOM      2  C   UNL     1       6.500   5.989  18.187  0.00  0.00    +0.000 A 
ATOM      3  C   UNL     1       5.493   4.954  18.306  0.00  0.00    +0.000 A 
ATOM      4  C   UNL     1       5.126   4.138  17.288  0.00  0.00    +0.000 A 
ATOM      5  C   UNL     1       5.780   4.376  16.018  0.00  0.00    +0.000 A 
ATOM      6  C   UNL     1       5.688   3.784  14.779  0.00  0.00    +0.000 A 
ATOM      7  C   UNL     1       6.608   4.479  13.953  0.00  0.00    +0.000 A 
ATOM      8  N   UNL     1       7.244   5.439  14.643  0.00  0.00    +0.000 NA
ATOM      9  N   UNL     1       6.745   5.386  15.912  0.00  0.00    +0.000 N 
ENDROOT
BRANCH   7  10
ATOM     10  C   UNL     1       6.880   4.221  12.495  0.00  0.00    +0.000 C 
ATOM     11  F   UNL     1       7.688   5.174  11.953  0.00  0.00    +0.000 F 
ATOM     12  F   UNL     1       7.506   3.031  12.284  0.00  0.00    +0.000 F 
ATOM     13  F   UNL     1       5.747   4.212  11.745  0.00  0.00    +0.000 F 
ENDBRANCH   7  10
BRANCH   1  15
ATOM     14  C   UNL     1       8.043   8.328  17.560  0.00  0.00    +0.000 C 
ATOM     15  O   UNL     1       8.125   7.126  16.802  0.00  0.00    +0.000 OA
ENDBRANCH   1  15
BRANCH   4  16
ATOM     16  C   UNL     1       4.079   3.028  17.486  0.00  0.00    +0.000 C 
BRANCH  16  17
ATOM     17  O   UNL     1       4.400   2.346  18.703  0.00  0.00    +0.000 OA
ATOM     18  H   UNL     1       5.097   1.697  18.503  0.00  0.00    +0.000 HD
ENDBRANCH  16  17
BRANCH  16  19
ATOM     19  C   UNL     1       2.605   3.494  17.532  0.00  0.00    +0.000 C 
BRANCH  19  20
ATOM     20  C   UNL     1       2.247   4.341  18.738  0.00  0.00    +0.000 A 
ATOM     21  C   UNL     1       2.381   5.742  18.715  0.00  0.00    +0.000 A 
ATOM     22 CL   UNL     1       2.954   6.610  17.335  0.00  0.00    +0.000 Cl
ATOM     23  C   UNL     1       2.014   6.478  19.838  0.00  0.00    +0.000 A 
ATOM     24  N   UNL     1       1.525   5.934  20.975  0.00  0.00    +0.000 NA
ATOM     25  C   UNL     1       1.411   4.587  20.988  0.00  0.00    +0.000 A 
ATOM     26  C   UNL     1       1.758   3.762  19.920  0.00  0.00    +0.000 A 
ATOM     27 CL   UNL     1       1.547   2.060  20.107  0.00  0.00    +0.000 Cl
ENDBRANCH  19  20
ENDBRANCH  16  19
ENDBRANCH   4  16
TORSDOF 6
ENDMDL
MODEL 3
REMARK VINA RESULT:      -7.8      0.838      2.046
REMARK  Name = 
REMARK  7 active torsions:
REMARK  status: ('A' for Active; 'I' for Inactive)
REMARK    1  A    between atoms: C_1  and  O_2
REMARK    2  A    between atoms: O_2  and  C_3
REMARK    3  A    between atoms: C_6  and  C_7
REMARK    4  A    between atoms: C_7  and  O_8
REMARK    5  A    between atoms: C_7  and  C_9
REMARK    6  A    between atoms: C_9  and  C_10
REMARK    7  A    between atoms: C_20  and  C_21
REMARK                            x       y       z     vdW  Elec       q    Type
REMARK                         _______ _______ _______ _____ _____    ______ ____
ROOT
ATOM      1  C   UNL     1       7.289   6.358  17.296  0.00  0.00    +0.000 A 
ATOM      2  C   UNL     1       6.882   6.181  18.568  0.00  0.00    +0.000 A 
ATOM      3  C   UNL     1       6.014   5.071  18.906  0.00  0.00    +0.000 A 
ATOM      4  C   UNL     1       5.570   4.159  18.007  0.00  0.00    +0.000 A 
ATOM      5  C   UNL     1       5.987   4.366  16.636  0.00  0.00    +0.000 A 
ATOM      6  C   UNL     1       5.756   3.686  15.462  0.00  0.00    +0.000 A 
ATOM      7  C   UNL     1       6.460   4.401  14.460  0.00  0.00    +0.000 A 
ATOM      8  N   UNL     1       7.101   5.457  14.984  0.00  0.00    +0.000 NA
ATOM      9  N   UNL     1       6.819   5.447  16.318  0.00  0.00    +0.000 N 
ENDROOT
BRANCH   7  10
ATOM     10  C   UNL     1       6.520   4.069  12.993  0.00  0.00    +0.000 C 
ATOM     11  F   UNL     1       5.302   4.187  12.395  0.00  0.00    +0.000 F 
ATOM     12  F   UNL     1       7.359   4.891  12.306  0.00  0.00    +0.000 F 
ATOM     13  F   UNL     1       6.935   2.795  12.761  0.00  0.00    +0.000 F 
ENDBRANCH   7  10
BRANCH   1  15
ATOM     14  C   UNL     1       8.118   8.574  17.615  0.00  0.00    +0.000 C 
ATOM     15  O   UNL     1       8.147   7.358  16.875  0.00  0.00    +0.000 OA
ENDBRANCH   1  15
BRANCH   4  16
ATOM     16  C   UNL     1       4.681   2.978  18.433  0.00  0.00    +0.000 C 
BRANCH  16  17
ATOM     17  O   UNL     1       5.028   2.643  19.782  0.00  0.00    +0.000 OA
ATOM     18  H   UNL     1       5.124   1.676  19.829  0.00  0.00    +0.000 HD
ENDBRANCH  16  17
BRANCH  16  19
ATOM     19  C   UNL     1       3.156   3.216  18.341  0.00  0.00    +0.000 C 
BRANCH  19  20
ATOM     20  C   UNL     1       2.641   4.358  19.194  0.00  0.00    +0.000 A 
ATOM     21  C   UNL     1       2.660   5.686  18.729  0.00  0.00    +0.000 A 
ATOM     22 CL   UNL     1       3.262   6.130  17.172  0.00  0.00    +0.000 Cl
ATOM     23  C   UNL     1       2.152   6.697  19.540  0.00  0.00    +0.000 A 
ATOM     24  N   UNL     1       1.625   6.492  20.768  0.00  0.00    +0.000 NA
ATOM     25  C   UNL     1       1.621   5.214  21.207  0.00  0.00    +0.000 A 
ATOM     26  C   UNL     1       2.113   4.134  20.477  0.00  0.00    +0.000 A 
ATOM     27 CL   UNL     1       2.029   2.565  21.189  0.00  0.00    +0.000 Cl
ENDBRANCH  19  20
ENDBRANCH  16  19
ENDBRANCH   4  16
TORSDOF 6
ENDMDL
MODEL 4
REMARK VINA RESULT:      -7.8      2.964      4.248
REMARK  Name = 
REMARK  7 active torsions:
REMARK  status: ('A' for Active; 'I' for Inactive)
REMARK    1  A    between atoms: C_1  and  O_2
REMARK    2  A    between atoms: O_2  and  C_3
REMARK    3  A    between atoms: C_6  and  C_7
REMARK    4  A    between atoms: C_7  and  O_8
REMARK    5  A    between atoms: C_7  and  C_9
REMARK    6  A    between atoms: C_9  and  C_10
REMARK    7  A    between atoms: C_20  and  C_21
REMARK                            x       y       z     vdW  Elec       q    Type
REMARK                         _______ _______ _______ _____ _____    ______ ____
ROOT
ATOM      1  C   UNL     1       6.937   4.894  14.655  0.00  0.00    +0.000 A 
ATOM      2  C   UNL     1       5.943   4.239  14.026  0.00  0.00    +0.000 A 
ATOM      3  C   UNL     1       4.879   3.622  14.791  0.00  0.00    +0.000 A 
ATOM      4  C   UNL     1       4.801   3.664  16.144  0.00  0.00    +0.000 A 
ATOM      5  C   UNL     1       5.884   4.346  16.820  0.00  0.00    +0.000 A 
ATOM      6  C   UNL     1       6.166   4.598  18.143  0.00  0.00    +0.000 A 
ATOM      7  C   UNL     1       7.382   5.327  18.144  0.00  0.00    +0.000 A 
ATOM      8  N   UNL     1       7.823   5.528  16.892  0.00  0.00    +0.000 NA
ATOM      9  N   UNL     1       6.912   4.931  16.070  0.00  0.00    +0.000 N 
ENDROOT
BRANCH   7  10
ATOM     10  C   UNL     1       8.125   5.836  19.351  0.00  0.00    +0.000 C 
ATOM     11  F   UNL     1       7.311   5.952  20.436  0.00  0.00    +0.000 F 
ATOM     12  F   UNL     1       9.139   5.010  19.725  0.00  0.00    +0.000 F 
ATOM     13  F   UNL     1       8.668   7.066  19.150  0.00  0.00    +0.000 F 
ENDBRANCH   7  10
BRANCH   1  15
ATOM     14  C   UNL     1       8.018   5.447  12.599  0.00  0.00    +0.000 C 
ATOM     15  O   UNL     1       7.976   5.549  14.018  0.00  0.00    +0.000 OA
ENDBRANCH   1  15
BRANCH   4  16
ATOM     16  C   UNL     1       3.624   3.024  16.900  0.00  0.00    +0.000 C 
BRANCH  16  17
ATOM     17  O   UNL     1       4.083   2.701  18.218  0.00  0.00    +0.000 OA
ATOM     18  H   UNL     1       4.182   3.536  18.708  0.00  0.00    +0.000 HD
ENDBRANCH  16  17
BRANCH  16  19
ATOM     19  C   UNL     1       2.342   3.884  17.002  0.00  0.00    +0.000 C 
BRANCH  19  20
ATOM     20  C   UNL     1       2.109   4.514  18.361  0.00  0.00    +0.000 A 
ATOM     21  C   UNL     1       2.588   5.801  18.665  0.00  0.00    +0.000 A 
ATOM     22 CL   UNL     1       3.472   6.767  17.536  0.00  0.00    +0.000 Cl
ATOM     23  C   UNL     1       2.326   6.346  19.919  0.00  0.00    +0.000 A 
ATOM     24  N   UNL     1       1.624   5.716  20.888  0.00  0.00    +0.000 NA
ATOM     25  C   UNL     1       1.178   4.476  20.588  0.00  0.00    +0.000 A 
ATOM     26  C   UNL     1       1.395   3.841  19.367  0.00  0.00    +0.000 A 
ATOM     27 CL   UNL     1       0.752   2.254  19.151  0.00  0.00    +0.000 Cl
ENDBRANCH  19  20
ENDBRANCH  16  19
ENDBRANCH   4  16
TORSDOF 6
ENDMDL
MODEL 5
REMARK VINA RESULT:      -7.8      1.019      1.356
REMARK  Name = 
REMARK  7 active torsions:
REMARK  status: ('A' for Active; 'I' for Inactive)
REMARK    1  A    between atoms: C_1  and  O_2
REMARK    2  A    between atoms: O_2  and  C_3
REMARK    3  A    between atoms: C_6  and  C_7
REMARK    4  A    between atoms: C_7  and  O_8
REMARK    5  A    between atoms: C_7  and  C_9
REMARK    6  A    between atoms: C_9  and  C_10
REMARK    7  A    between atoms: C_20  and  C_21
REMARK                            x       y       z     vdW  Elec       q    Type
REMARK                         _______ _______ _______ _____ _____    ______ ____
ROOT
ATOM      1  C   UNL     1       6.682   6.334  16.713  0.00  0.00    +0.000 A 
ATOM      2  C   UNL     1       5.907   6.302  17.813  0.00  0.00    +0.000 A 
ATOM      3  C   UNL     1       4.776   5.399  17.881  0.00  0.00    +0.000 A 
ATOM      4  C   UNL     1       4.431   4.546  16.886  0.00  0.00    +0.000 A 
ATOM      5  C   UNL     1       5.250   4.600  15.693  0.00  0.00    +0.000 A 
ATOM      6  C   UNL     1       5.229   3.919  14.497  0.00  0.00    +0.000 A 
ATOM      7  C   UNL     1       6.314   4.434  13.744  0.00  0.00    +0.000 A 
ATOM      8  N   UNL     1       6.978   5.372  14.437  0.00  0.00    +0.000 NA
ATOM      9  N   UNL     1       6.336   5.483  15.635  0.00  0.00    +0.000 N 
ENDROOT
BRANCH   7  10
ATOM     10  C   UNL     1       6.718   4.024  12.352  0.00  0.00    +0.000 C 
ATOM     11  F   UNL     1       7.191   2.747  12.317  0.00  0.00    +0.000 F 
ATOM     12  F   UNL     1       5.680   4.067  11.474  0.00  0.00    +0.000 F 
ATOM     13  F   UNL     1       7.704   4.809  11.841  0.00  0.00    +0.000 F 
ENDBRANCH   7  10
BRANCH   1  15
ATOM     14  C   UNL     1       8.010   8.133  17.549  0.00  0.00    +0.000 C 
ATOM     15  O   UNL     1       7.805   7.128  16.562  0.00  0.00    +0.000 OA
ENDBRANCH   1  15
BRANCH   4  16
ATOM     16  C   UNL     1       3.242   3.580  17.032  0.00  0.00    +0.000 C 
BRANCH  16  17
ATOM     17  O   UNL     1       3.703   2.435  17.757  0.00  0.00    +0.000 OA
ATOM     18  H   UNL     1       3.742   1.688  17.134  0.00  0.00    +0.000 HD
ENDBRANCH  16  17
BRANCH  16  19
ATOM     19  C   UNL     1       1.989   4.157  17.730  0.00  0.00    +0.000 C 
BRANCH  19  20
ATOM     20  C   UNL     1       1.914   3.888  19.220  0.00  0.00    +0.000 A 
ATOM     21  C   UNL     1       1.516   2.635  19.720  0.00  0.00    +0.000 A 
ATOM     22 CL   UNL     1       1.082   1.310  18.700  0.00  0.00    +0.000 Cl
ATOM     23  C   UNL     1       1.489   2.430  21.097  0.00  0.00    +0.000 A 
ATOM     24  N   UNL     1       1.828   3.367  22.011  0.00  0.00    +0.000 NA
ATOM     25  C   UNL     1       2.200   4.570  21.518  0.00  0.00    +0.000 A 
ATOM     26  C   UNL     1       2.252   4.877  20.160  0.00  0.00    +0.000 A 
ATOM     27 CL   UNL     1       2.750   6.465  19.704  0.00  0.00    +0.000 Cl
ENDBRANCH  19  20
ENDBRANCH  16  19
ENDBRANCH   4  16
TORSDOF 6
ENDMDL
MODEL 6
REMARK VINA RESULT:      -7.7      2.957      3.879
REMARK  Name = 
REMARK  7 active torsions:
REMARK  status: ('A' for Active; 'I' for Inactive)
REMARK    1  A    between atoms: C_1  and  O_2
REMARK    2  A    between atoms: O_2  and  C_3
REMARK    3  A    between atoms: C_6  and  C_7
REMARK    4  A    between atoms: C_7  and  O_8
REMARK    5  A    between atoms: C_7  and  C_9
REMARK    6  A    between atoms: C_9  and  C_10
REMARK    7  A    between atoms: C_20  and  C_21
REMARK                            x       y       z     vdW  Elec       q    Type
REMARK                         _______ _______ _______ _____ _____    ______ ____
ROOT
ATOM      1  C   UNL     1       6.969   4.867  14.631  0.00  0.00    +0.000 A 
ATOM      2  C   UNL     1       5.981   4.207  13.997  0.00  0.00    +0.000 A 
ATOM      3  C   UNL     1       4.904   3.604  14.756  0.00  0.00    +0.000 A 
ATOM      4  C   UNL     1       4.808   3.664  16.107  0.00  0.00    +0.000 A 
ATOM      5  C   UNL     1       5.884   4.351  16.789  0.00  0.00    +0.000 A 
ATOM      6  C   UNL     1       6.150   4.619  18.112  0.00  0.00    +0.000 A 
ATOM      7  C   UNL     1       7.368   5.344  18.121  0.00  0.00    +0.000 A 
ATOM      8  N   UNL     1       7.827   5.526  16.872  0.00  0.00    +0.000 NA
ATOM      9  N   UNL     1       6.925   4.922  16.046  0.00  0.00    +0.000 N 
ENDROOT
BRANCH   7  10
ATOM     10  C   UNL     1       8.097   5.866  19.330  0.00  0.00    +0.000 C 
ATOM     11  F   UNL     1       9.129   5.053  19.691  0.00  0.00    +0.000 F 
ATOM     12  F   UNL     1       8.639   7.096  19.122  0.00  0.00    +0.000 F 
ATOM     13  F   UNL     1       7.293   5.966  20.422  0.00  0.00    +0.000 F 
ENDBRANCH   7  10
BRANCH   1  15
ATOM     14  C   UNL     1       8.006   5.503  12.577  0.00  0.00    +0.000 C 
ATOM     15  O   UNL     1       8.019   5.510  14.000  0.00  0.00    +0.000 OA
ENDBRANCH   1  15
BRANCH   4  16
ATOM     16  C   UNL     1       3.619   3.038  16.856  0.00  0.00    +0.000 C 
BRANCH  16  17
ATOM     17  O   UNL     1       4.066   2.706  18.175  0.00  0.00    +0.000 OA
ATOM     18  H   UNL     1       5.021   2.521  18.124  0.00  0.00    +0.000 HD
ENDBRANCH  16  17
BRANCH  16  19
ATOM     19  C   UNL     1       2.348   3.915  16.952  0.00  0.00    +0.000 C 
BRANCH  19  20
ATOM     20  C   UNL     1       2.069   4.474  18.334  0.00  0.00    +0.000 A 
ATOM     21  C   UNL     1       1.341   3.740  19.288  0.00  0.00    +0.000 A 
ATOM     22 CL   UNL     1       0.710   2.161  18.980  0.00  0.00    +0.000 Cl
ATOM     23  C   UNL     1       1.133   4.287  20.552  0.00  0.00    +0.000 A 
ATOM     24  N   UNL     1       1.593   5.498  20.940  0.00  0.00    +0.000 NA
ATOM     25  C   UNL     1       2.281   6.197  20.010  0.00  0.00    +0.000 A 
ATOM     26  C   UNL     1       2.536   5.742  18.718  0.00  0.00    +0.000 A 
ATOM     27 CL   UNL     1       3.434   6.766  17.659  0.00  0.00    +0.000 Cl
ENDBRANCH  19  20
ENDBRANCH  16  19
ENDBRANCH   4  16
TORSDOF 6
ENDMDL
MODEL 7
REMARK VINA RESULT:      -7.6      5.969      8.281
REMARK  Name = 
REMARK  7 active torsions:
REMARK  status: ('A' for Active; 'I' for Inactive)
REMARK    1  A    between atoms: C_1  and  O_2
REMARK    2  A    between atoms: O_2  and  C_3
REMARK    3  A    between atoms: C_6  and  C_7
REMARK    4  A    between atoms: C_7  and  O_8
REMARK    5  A    between atoms: C_7  and  C_9
REMARK    6  A    between atoms: C_9  and  C_10
REMARK    7  A    between atoms: C_20  and  C_21
REMARK                            x       y       z     vdW  Elec       q    Type
REMARK                         _______ _______ _______ _____ _____    ______ ____
ROOT
ATOM      1  C   UNL     1       0.448  10.091  21.936  0.00  0.00    +0.000 A 
ATOM      2  C   UNL     1       1.287   9.078  22.226  0.00  0.00    +0.000 A 
ATOM      3  C   UNL     1       1.811   8.240  21.167  0.00  0.00    +0.000 A 
ATOM      4  C   UNL     1       1.516   8.411  19.855  0.00  0.00    +0.000 A 
ATOM      5  C   UNL     1       0.594   9.484  19.547  0.00  0.00    +0.000 A 
ATOM      6  C   UNL     1       0.058   9.966  18.375  0.00  0.00    +0.000 A 
ATOM      7  C   UNL     1      -0.778  11.047  18.751  0.00  0.00    +0.000 A 
ATOM      8  N   UNL     1      -0.753  11.234  20.080  0.00  0.00    +0.000 NA
ATOM      9  N   UNL     1       0.086  10.282  20.580  0.00  0.00    +0.000 N 
ENDROOT
BRANCH   7  10
ATOM     10  C   UNL     1      -1.604  11.908  17.833  0.00  0.00    +0.000 C 
ATOM     11  F   UNL     1      -0.966  13.067  17.513  0.00  0.00    +0.000 F 
ATOM     12  F   UNL     1      -1.883  11.292  16.652  0.00  0.00    +0.000 F 
ATOM     13  F   UNL     1      -2.793  12.269  18.384  0.00  0.00    +0.000 F 
ENDBRANCH   7  10
BRANCH   1  15
ATOM     14  C   UNL     1      -1.426  10.749  23.261  0.00  0.00    +0.000 C 
ATOM     15  O   UNL     1      -0.077  10.971  22.866  0.00  0.00    +0.000 OA
ENDBRANCH   1  15
BRANCH   4  16
ATOM     16  C   UNL     1       2.136   7.514  18.769  0.00  0.00    +0.000 C 
BRANCH  16  17
ATOM     17  O   UNL     1       2.884   8.359  17.888  0.00  0.00    +0.000 OA
ATOM     18  H   UNL     1       2.300   8.604  17.148  0.00  0.00    +0.000 HD
ENDBRANCH  16  17
BRANCH  16  19
ATOM     19  C   UNL     1       3.047   6.373  19.279  0.00  0.00    +0.000 C 
BRANCH  19  20
ATOM     20  C   UNL     1       2.780   5.021  18.648  0.00  0.00    +0.000 A 
ATOM     21  C   UNL     1       1.834   4.132  19.190  0.00  0.00    +0.000 A 
ATOM     22 CL   UNL     1       0.905   4.493  20.602  0.00  0.00    +0.000 Cl
ATOM     23  C   UNL     1       1.607   2.913  18.559  0.00  0.00    +0.000 A 
ATOM     24  N   UNL     1       2.240   2.511  17.434  0.00  0.00    +0.000 NA
ATOM     25  C   UNL     1       3.154   3.369  16.928  0.00  0.00    +0.000 A 
ATOM     26  C   UNL     1       3.459   4.607  17.489  0.00  0.00    +0.000 A 
ATOM     27 CL   UNL     1       4.654   5.579  16.711  0.00  0.00    +0.000 Cl
ENDBRANCH  19  20
ENDBRANCH  16  19
ENDBRANCH   4  16
TORSDOF 6
ENDMDL
MODEL 8
REMARK VINA RESULT:      -7.6      5.986      8.431
REMARK  Name = 
REMARK  7 active torsions:
REMARK  status: ('A' for Active; 'I' for Inactive)
REMARK    1  A    between atoms: C_1  and  O_2
REMARK    2  A    between atoms: O_2  and  C_3
REMARK    3  A    between atoms: C_6  and  C_7
REMARK    4  A    between atoms: C_7  and  O_8
REMARK    5  A    between atoms: C_7  and  C_9
REMARK    6  A    between atoms: C_9  and  C_10
REMARK    7  A    between atoms: C_20  and  C_21
REMARK                            x       y       z     vdW  Elec       q    Type
REMARK                         _______ _______ _______ _____ _____    ______ ____
ROOT
ATOM      1  C   UNL     1       0.409  10.147  21.969  0.00  0.00    +0.000 A 
ATOM      2  C   UNL     1       1.246   9.139  22.279  0.00  0.00    +0.000 A 
ATOM      3  C   UNL     1       1.776   8.287  21.234  0.00  0.00    +0.000 A 
ATOM      4  C   UNL     1       1.488   8.439  19.918  0.00  0.00    +0.000 A 
ATOM      5  C   UNL     1       0.568   9.506  19.590  0.00  0.00    +0.000 A 
ATOM      6  C   UNL     1       0.038   9.971  18.408  0.00  0.00    +0.000 A 
ATOM      7  C   UNL     1      -0.800  11.058  18.765  0.00  0.00    +0.000 A 
ATOM      8  N   UNL     1      -0.782  11.264  20.091  0.00  0.00    +0.000 NA
ATOM      9  N   UNL     1       0.054  10.319  20.609  0.00  0.00    +0.000 N 
ENDROOT
BRANCH   7  10
ATOM     10  C   UNL     1      -1.622  11.905  17.830  0.00  0.00    +0.000 C 
ATOM     11  F   UNL     1      -0.983  13.061  17.499  0.00  0.00    +0.000 F 
ATOM     12  F   UNL     1      -1.893  11.273  16.656  0.00  0.00    +0.000 F 
ATOM     13  F   UNL     1      -2.815  12.271  18.368  0.00  0.00    +0.000 F 
ENDBRANCH   7  10
BRANCH   1  15
ATOM     14  C   UNL     1      -1.483  10.845  23.248  0.00  0.00    +0.000 C 
ATOM     15  O   UNL     1      -0.121  11.041  22.884  0.00  0.00    +0.000 OA
ENDBRANCH   1  15
BRANCH   4  16
ATOM     16  C   UNL     1       2.115   7.526  18.849  0.00  0.00    +0.000 C 
BRANCH  16  17
ATOM     17  O   UNL     1       2.927   8.348  18.003  0.00  0.00    +0.000 OA
ATOM     18  H   UNL     1       3.844   8.029  18.075  0.00  0.00    +0.000 HD
ENDBRANCH  16  17
BRANCH  16  19
ATOM     19  C   UNL     1       2.961   6.347  19.382  0.00  0.00    +0.000 C 
BRANCH  19  20
ATOM     20  C   UNL     1       2.710   5.023  18.688  0.00  0.00    +0.000 A 
ATOM     21  C   UNL     1       3.416   4.658  17.528  0.00  0.00    +0.000 A 
ATOM     22 CL   UNL     1       4.614   5.667  16.798  0.00  0.00    +0.000 Cl
ATOM     23  C   UNL     1       3.167   3.420  16.942  0.00  0.00    +0.000 A 
ATOM     24  N   UNL     1       2.279   2.519  17.420  0.00  0.00    +0.000 NA
ATOM     25  C   UNL     1       1.600   2.886  18.530  0.00  0.00    +0.000 A 
ATOM     26  C   UNL     1       1.770   4.104  19.185  0.00  0.00    +0.000 A 
ATOM     27 CL   UNL     1       0.820   4.409  20.592  0.00  0.00    +0.000 Cl
ENDBRANCH  19  20
ENDBRANCH  16  19
ENDBRANCH   4  16
TORSDOF 6
ENDMDL
MODEL 9
REMARK VINA RESULT:      -7.5      5.639      7.328
REMARK  Name = 
REMARK  7 active torsions:
REMARK  status: ('A' for Active; 'I' for Inactive)
REMARK    1  A    between atoms: C_1  and  O_2
REMARK    2  A    between atoms: O_2  and  C_3
REMARK    3  A    between atoms: C_6  and  C_7
REMARK    4  A    between atoms: C_7  and  O_8
REMARK    5  A    between atoms: C_7  and  C_9
REMARK    6  A    between atoms: C_9  and  C_10
REMARK    7  A    between atoms: C_20  and  C_21
REMARK                            x       y       z     vdW  Elec       q    Type
REMARK                         _______ _______ _______ _____ _____    ______ ____
ROOT
ATOM      1  C   UNL     1       4.300   6.037  17.726  0.00  0.00    +0.000 A 
ATOM      2  C   UNL     1       4.130   7.268  17.205  0.00  0.00    +0.000 A 
ATOM      3  C   UNL     1       3.099   8.143  17.726  0.00  0.00    +0.000 A 
ATOM      4  C   UNL     1       2.267   7.806  18.741  0.00  0.00    +0.000 A 
ATOM      5  C   UNL     1       2.432   6.474  19.282  0.00  0.00    +0.000 A 
ATOM      6  C   UNL     1       1.804   5.773  20.285  0.00  0.00    +0.000 A 
ATOM      7  C   UNL     1       2.444   4.508  20.330  0.00  0.00    +0.000 A 
ATOM      8  N   UNL     1       3.423   4.433  19.414  0.00  0.00    +0.000 NA
ATOM      9  N   UNL     1       3.427   5.633  18.765  0.00  0.00    +0.000 N 
ENDROOT
BRANCH   7  10
ATOM     10  C   UNL     1       2.117   3.366  21.255  0.00  0.00    +0.000 C 
ATOM     11  F   UNL     1       0.818   2.974  21.138  0.00  0.00    +0.000 F 
ATOM     12  F   UNL     1       2.870   2.261  21.004  0.00  0.00    +0.000 F 
ATOM     13  F   UNL     1       2.302   3.684  22.564  0.00  0.00    +0.000 F 
ENDBRANCH   7  10
BRANCH   1  15
ATOM     14  C   UNL     1       4.958   4.300  16.227  0.00  0.00    +0.000 C 
ATOM     15  O   UNL     1       5.277   5.141  17.329  0.00  0.00    +0.000 OA
ENDBRANCH   1  15
BRANCH   4  16
ATOM     16  C   UNL     1       1.216   8.794  19.278  0.00  0.00    +0.000 C 
BRANCH  16  17
ATOM     17  O   UNL     1       1.456   8.957  20.681  0.00  0.00    +0.000 OA
ATOM     18  H   UNL     1       1.574   8.070  21.064  0.00  0.00    +0.000 HD
ENDBRANCH  16  17
BRANCH  16  19
ATOM     19  C   UNL     1       1.189  10.183  18.599  0.00  0.00    +0.000 C 
BRANCH  19  20
ATOM     20  C   UNL     1       0.001  11.047  18.973  0.00  0.00    +0.000 A 
ATOM     21  C   UNL     1      -1.257  10.865  18.370  0.00  0.00    +0.000 A 
ATOM     22 CL   UNL     1      -1.559   9.661  17.168  0.00  0.00    +0.000 Cl
ATOM     23  C   UNL     1      -2.323  11.667  18.767  0.00  0.00    +0.000 A 
ATOM     24  N   UNL     1      -2.239  12.628  19.714  0.00  0.00    +0.000 NA
ATOM     25  C   UNL     1      -1.023  12.800  20.278  0.00  0.00    +0.000 A 
ATOM     26  C   UNL     1       0.107  12.055  19.946  0.00  0.00    +0.000 A 
ATOM     27 CL   UNL     1       1.583  12.407  20.768  0.00  0.00    +0.000 Cl
ENDBRANCH  19  20
ENDBRANCH  16  19
ENDBRANCH   4  16
TORSDOF 6
ENDMDL
