MODEL 1
REMARK VINA RESULT:      -8.2      0.000      0.000
REMARK  Name = 
REMARK  11 active torsions:
REMARK  status: ('A' for Active; 'I' for Inactive)
REMARK    1  A    between atoms: C_1  and  O_2
REMARK    2  A    between atoms: O_2  and  C_3
REMARK    3  A    between atoms: C_5  and  O_6
REMARK    4  A    between atoms: O_6  and  C_7
REMARK    5  A    between atoms: C_8  and  C_9
REMARK    6  A    between atoms: N_12  and  C_13
REMARK    7  A    between atoms: C_16  and  O_17
REMARK    8  A    between atoms: C_18  and  C_19
REMARK    9  A    between atoms: C_19  and  C_21
REMARK   10  A    between atoms: C_22  and  C_23
REMARK   11  A    between atoms: C_26  and  C_27
REMARK                            x       y       z     vdW  Elec       q    Type
REMARK                         _______ _______ _______ _____ _____    ______ ____
ROOT
ATOM      1  C   UNL     1       1.403   8.131  20.571  0.00  0.00    +0.000 A 
ATOM      2  C   UNL     1       1.860   6.812  20.754  0.00  0.00    +0.000 A 
ATOM      3  C   UNL     1       2.561   6.081  19.769  0.00  0.00    +0.000 A 
ATOM      4  C   UNL     1       2.876   6.704  18.547  0.00  0.00    +0.000 A 
ATOM      5  C   UNL     1       2.401   8.043  18.378  0.00  0.00    +0.000 A 
ATOM      6  C   UNL     1       1.636   8.757  19.348  0.00  0.00    +0.000 A 
ENDROOT
BRANCH   4   7
ATOM      7  C   UNL     1       3.673   6.028  17.439  0.00  0.00    +0.000 C 
ATOM      8  C   UNL     1       3.656   4.488  17.436  0.00  0.00    +0.000 C 
ATOM      9  C   UNL     1       4.394   3.957  16.205  0.00  0.00    +0.000 C 
ATOM     10  N   UNL     1       5.762   4.488  16.133  0.00  0.00    +0.000 NA
ATOM     11  C   UNL     1       6.456   3.923  14.973  0.00  0.00    +0.000 C 
ATOM     12  C   UNL     1       5.774   5.956  16.056  0.00  0.00    +0.000 C 
ATOM     13  C   UNL     1       5.099   6.583  17.277  0.00  0.00    +0.000 C 
ENDBRANCH   4   7
BRANCH   1  15
ATOM     14  C   UNL     1      -0.412   8.670  22.022  0.00  0.00    +0.000 C 
ATOM     15  O   UNL     1       0.975   8.741  21.719  0.00  0.00    +0.000 OA
ENDBRANCH   1  15
BRANCH   3  16
ATOM     16  O   UNL     1       2.835   4.828  20.269  0.00  0.00    +0.000 OA
ATOM     17  C   UNL     1       2.075   4.164  21.268  0.00  0.00    +0.000 C 
ENDBRANCH   3  16
BRANCH   5  18
ATOM     18  O   UNL     1       2.767   8.764  17.263  0.00  0.00    +0.000 OA
ATOM     19  H   UNL     1       2.912   9.693  17.490  0.00  0.00    +0.000 HD
ENDBRANCH   5  18
BRANCH   6  20
ATOM     20  C   UNL     1       1.009  10.036  18.885  0.00  0.00    +0.000 C 
ATOM     21  O   UNL     1       1.745  10.935  18.466  0.00  0.00    +0.000 OA
BRANCH  20  22
ATOM     22  C   UNL     1      -0.444  10.283  18.715  0.00  0.00    +0.000 C 
ATOM     23  C   UNL     1      -1.208  10.280  17.615  0.00  0.00    +0.000 C 
BRANCH  23  24
ATOM     24  C   UNL     1      -2.551  10.902  17.615  0.00  0.00    +0.000 A 
ATOM     25  C   UNL     1      -3.425  10.784  16.517  0.00  0.00    +0.000 A 
ATOM     26  C   UNL     1      -4.727  11.283  16.566  0.00  0.00    +0.000 A 
ATOM     27  C   UNL     1      -5.201  11.907  17.722  0.00  0.00    +0.000 A 
ATOM     28  C   UNL     1      -4.345  11.996  18.835  0.00  0.00    +0.000 A 
ATOM     29  C   UNL     1      -3.040  11.493  18.782  0.00  0.00    +0.000 A 
BRANCH  27  30
ATOM     30  C   UNL     1      -6.600  12.475  17.789  0.00  0.00    +0.000 C 
ATOM     31  F   UNL     1      -6.700  13.573  18.594  0.00  0.00    +0.000 F 
ATOM     32  F   UNL     1      -7.069  12.861  16.572  0.00  0.00    +0.000 F 
ATOM     33  F   UNL     1      -7.501  11.576  18.274  0.00  0.00    +0.000 F 
ENDBRANCH  27  30
ENDBRANCH  23  24
ENDBRANCH  20  22
ENDBRANCH   6  20
TORSDOF 8
ENDMDL
MODEL 2
REMARK VINA RESULT:      -8.1      0.681      1.227
REMARK  Name = 
REMARK  11 active torsions:
REMARK  status: ('A' for Active; 'I' for Inactive)
REMARK    1  A    between atoms: C_1  and  O_2
REMARK    2  A    between atoms: O_2  and  C_3
REMARK    3  A    between atoms: C_5  and  O_6
REMARK    4  A    between atoms: O_6  and  C_7
REMARK    5  A    between atoms: C_8  and  C_9
REMARK    6  A    between atoms: N_12  and  C_13
REMARK    7  A    between atoms: C_16  and  O_17
REMARK    8  A    between atoms: C_18  and  C_19
REMARK    9  A    between atoms: C_19  and  C_21
REMARK   10  A    between atoms: C_22  and  C_23
REMARK   11  A    between atoms: C_26  and  C_27
REMARK                            x       y       z     vdW  Elec       q    Type
REMARK                         _______ _______ _______ _____ _____    ______ ____
ROOT
ATOM      1  C   UNL     1       1.427   8.281  20.549  0.00  0.00    +0.000 A 
ATOM      2  C   UNL     1       1.861   6.962  20.781  0.00  0.00    +0.000 A 
ATOM      3  C   UNL     1       2.544   6.180  19.823  0.00  0.00    +0.000 A 
ATOM      4  C   UNL     1       2.864   6.750  18.576  0.00  0.00    +0.000 A 
ATOM      5  C   UNL     1       2.413   8.089  18.357  0.00  0.00    +0.000 A 
ATOM      6  C   UNL     1       1.666   8.855  19.302  0.00  0.00    +0.000 A 
ENDROOT
BRANCH   4   7
ATOM      7  C   UNL     1       3.644   6.016  17.492  0.00  0.00    +0.000 C 
ATOM      8  C   UNL     1       3.627   4.478  17.569  0.00  0.00    +0.000 C 
ATOM      9  C   UNL     1       4.345   3.883  16.357  0.00  0.00    +0.000 C 
ATOM     10  N   UNL     1       5.712   4.408  16.235  0.00  0.00    +0.000 NA
ATOM     11  C   UNL     1       6.387   3.784  15.095  0.00  0.00    +0.000 C 
ATOM     12  C   UNL     1       5.723   5.870  16.081  0.00  0.00    +0.000 C 
ATOM     13  C   UNL     1       5.067   6.561  17.279  0.00  0.00    +0.000 C 
ENDBRANCH   4   7
BRANCH   1  15
ATOM     14  C   UNL     1      -0.362   8.870  22.012  0.00  0.00    +0.000 C 
ATOM     15  O   UNL     1       1.017   8.943  21.674  0.00  0.00    +0.000 OA
ENDBRANCH   1  15
BRANCH   3  16
ATOM     16  O   UNL     1       2.797   4.943  20.370  0.00  0.00    +0.000 OA
ATOM     17  C   UNL     1       1.842   4.138  21.045  0.00  0.00    +0.000 C 
ENDBRANCH   3  16
BRANCH   5  18
ATOM     18  O   UNL     1       2.788   8.759  17.213  0.00  0.00    +0.000 OA
ATOM     19  H   UNL     1       3.032   8.134  16.516  0.00  0.00    +0.000 HD
ENDBRANCH   5  18
BRANCH   6  20
ATOM     20  C   UNL     1       1.061  10.127  18.792  0.00  0.00    +0.000 C 
ATOM     21  O   UNL     1       1.816  11.029  18.418  0.00  0.00    +0.000 OA
BRANCH  20  22
ATOM     22  C   UNL     1      -0.379  10.360  18.525  0.00  0.00    +0.000 C 
ATOM     23  C   UNL     1      -1.100  11.489  18.543  0.00  0.00    +0.000 C 
BRANCH  23  24
ATOM     24  C   UNL     1      -2.579  11.451  18.604  0.00  0.00    +0.000 A 
ATOM     25  C   UNL     1      -3.308  12.279  19.478  0.00  0.00    +0.000 A 
ATOM     26  C   UNL     1      -4.703  12.313  19.456  0.00  0.00    +0.000 A 
ATOM     27  C   UNL     1      -5.414  11.526  18.547  0.00  0.00    +0.000 A 
ATOM     28  C   UNL     1      -4.689  10.723  17.646  0.00  0.00    +0.000 A 
ATOM     29  C   UNL     1      -3.291  10.693  17.672  0.00  0.00    +0.000 A 
BRANCH  27  30
ATOM     30  C   UNL     1      -6.924  11.529  18.521  0.00  0.00    +0.000 C 
ATOM     31  F   UNL     1      -7.446  12.216  17.463  0.00  0.00    +0.000 F 
ATOM     32  F   UNL     1      -7.451  10.277  18.449  0.00  0.00    +0.000 F 
ATOM     33  F   UNL     1      -7.460  12.101  19.635  0.00  0.00    +0.000 F 
ENDBRANCH  27  30
ENDBRANCH  23  24
ENDBRANCH  20  22
ENDBRANCH   6  20
TORSDOF 8
ENDMDL
MODEL 3
REMARK VINA RESULT:      -7.8      5.851      9.958
REMARK  Name = 
REMARK  11 active torsions:
REMARK  status: ('A' for Active; 'I' for Inactive)
REMARK    1  A    between atoms: C_1  and  O_2
REMARK    2  A    between atoms: O_2  and  C_3
REMARK    3  A    between atoms: C_5  and  O_6
REMARK    4  A    between atoms: O_6  and  C_7
REMARK    5  A    between atoms: C_8  and  C_9
REMARK    6  A    between atoms: N_12  and  C_13
REMARK    7  A    between atoms: C_16  and  O_17
REMARK    8  A    between atoms: C_18  and  C_19
REMARK    9  A    between atoms: C_19  and  C_21
REMARK   10  A    between atoms: C_22  and  C_23
REMARK   11  A    between atoms: C_26  and  C_27
REMARK                            x       y       z     vdW  Elec       q    Type
REMARK                         _______ _______ _______ _____ _____    ______ ____
ROOT
ATOM      1  C   UNL     1      -1.303  10.610  18.230  0.00  0.00    +0.000 A 
ATOM      2  C   UNL     1      -2.465  11.202  18.758  0.00  0.00    +0.000 A 
ATOM      3  C   UNL     1      -2.455  12.173  19.784  0.00  0.00    +0.000 A 
ATOM      4  C   UNL     1      -1.220  12.627  20.285  0.00  0.00    +0.000 A 
ATOM      5  C   UNL     1      -0.050  12.013  19.738  0.00  0.00    +0.000 A 
ATOM      6  C   UNL     1      -0.065  10.985  18.749  0.00  0.00    +0.000 A 
ENDROOT
BRANCH   4   7
ATOM      7  C   UNL     1      -1.092  13.709  21.350  0.00  0.00    +0.000 C 
ATOM      8  C   UNL     1      -1.529  13.313  22.773  0.00  0.00    +0.000 C 
ATOM      9  C   UNL     1      -1.231  14.452  23.750  0.00  0.00    +0.000 C 
ATOM     10  N   UNL     1      -1.860  15.707  23.315  0.00  0.00    +0.000 NA
ATOM     11  C   UNL     1      -1.597  16.764  24.294  0.00  0.00    +0.000 C 
ATOM     12  C   UNL     1      -1.382  16.126  21.989  0.00  0.00    +0.000 C 
ATOM     13  C   UNL     1      -1.683  15.065  20.928  0.00  0.00    +0.000 C 
ENDBRANCH   4   7
BRANCH   1  15
ATOM     14  C   UNL     1      -2.547  10.325  16.215  0.00  0.00    +0.000 C 
ATOM     15  O   UNL     1      -1.511   9.890  17.085  0.00  0.00    +0.000 OA
ENDBRANCH   1  15
BRANCH   3  16
ATOM     16  O   UNL     1      -3.756  12.516  20.073  0.00  0.00    +0.000 OA
ATOM     17  C   UNL     1      -4.876  12.242  19.244  0.00  0.00    +0.000 C 
ENDBRANCH   3  16
BRANCH   5  18
ATOM     18  O   UNL     1       1.197  12.484  20.086  0.00  0.00    +0.000 OA
ATOM     19  H   UNL     1       1.847  11.767  20.076  0.00  0.00    +0.000 HD
ENDBRANCH   5  18
BRANCH   6  20
ATOM     20  C   UNL     1       1.237  10.287  18.499  0.00  0.00    +0.000 C 
ATOM     21  O   UNL     1       2.158  10.927  17.982  0.00  0.00    +0.000 OA
BRANCH  20  22
ATOM     22  C   UNL     1       1.602   8.929  18.970  0.00  0.00    +0.000 C 
ATOM     23  C   UNL     1       2.331   7.968  18.388  0.00  0.00    +0.000 C 
BRANCH  23  24
ATOM     24  C   UNL     1       2.271   6.568  18.865  0.00  0.00    +0.000 A 
ATOM     25  C   UNL     1       2.557   5.481  18.017  0.00  0.00    +0.000 A 
ATOM     26  C   UNL     1       2.601   4.173  18.500  0.00  0.00    +0.000 A 
ATOM     27  C   UNL     1       2.371   3.911  19.852  0.00  0.00    +0.000 A 
ATOM     28  C   UNL     1       2.120   4.997  20.711  0.00  0.00    +0.000 A 
ATOM     29  C   UNL     1       2.078   6.307  20.223  0.00  0.00    +0.000 A 
BRANCH  27  30
ATOM     30  C   UNL     1       2.390   2.500  20.391  0.00  0.00    +0.000 C 
ATOM     31  F   UNL     1       1.519   2.302  21.423  0.00  0.00    +0.000 F 
ATOM     32  F   UNL     1       2.070   1.573  19.449  0.00  0.00    +0.000 F 
ATOM     33  F   UNL     1       3.616   2.145  20.869  0.00  0.00    +0.000 F 
ENDBRANCH  27  30
ENDBRANCH  23  24
ENDBRANCH  20  22
ENDBRANCH   6  20
TORSDOF 8
ENDMDL
MODEL 4
REMARK VINA RESULT:      -7.7      5.889     10.212
REMARK  Name = 
REMARK  11 active torsions:
REMARK  status: ('A' for Active; 'I' for Inactive)
REMARK    1  A    between atoms: C_1  and  O_2
REMARK    2  A    between atoms: O_2  and  C_3
REMARK    3  A    between atoms: C_5  and  O_6
REMARK    4  A    between atoms: O_6  and  C_7
REMARK    5  A    between atoms: C_8  and  C_9
REMARK    6  A    between atoms: N_12  and  C_13
REMARK    7  A    between atoms: C_16  and  O_17
REMARK    8  A    between atoms: C_18  and  C_19
REMARK    9  A    between atoms: C_19  and  C_21
REMARK   10  A    between atoms: C_22  and  C_23
REMARK   11  A    between atoms: C_26  and  C_27
REMARK                            x       y       z     vdW  Elec       q    Type
REMARK                         _______ _______ _______ _____ _____    ______ ____
ROOT
ATOM      1  C   UNL     1      -1.153  11.491  22.756  0.00  0.00    +0.000 A 
ATOM      2  C   UNL     1      -2.422  11.725  23.316  0.00  0.00    +0.000 A 
ATOM      3  C   UNL     1      -3.433  12.481  22.682  0.00  0.00    +0.000 A 
ATOM      4  C   UNL     1      -3.196  12.997  21.393  0.00  0.00    +0.000 A 
ATOM      5  C   UNL     1      -1.900  12.750  20.841  0.00  0.00    +0.000 A 
ATOM      6  C   UNL     1      -0.858  12.043  21.510  0.00  0.00    +0.000 A 
ENDROOT
BRANCH   4   7
ATOM      7  C   UNL     1      -4.234  13.778  20.596  0.00  0.00    +0.000 C 
ATOM      8  C   UNL     1      -4.691  15.115  21.209  0.00  0.00    +0.000 C 
ATOM      9  C   UNL     1      -5.635  15.839  20.246  0.00  0.00    +0.000 C 
ATOM     10  N   UNL     1      -6.775  14.988  19.877  0.00  0.00    +0.000 NA
ATOM     11  C   UNL     1      -7.683  15.726  18.995  0.00  0.00    +0.000 C 
ATOM     12  C   UNL     1      -6.340  13.748  19.220  0.00  0.00    +0.000 C 
ATOM     13  C   UNL     1      -5.426  12.926  20.131  0.00  0.00    +0.000 C 
ENDBRANCH   4   7
BRANCH   1  15
ATOM     14  C   UNL     1      -0.453   9.215  22.885  0.00  0.00    +0.000 C 
ATOM     15  O   UNL     1      -0.419  10.536  23.407  0.00  0.00    +0.000 OA
ENDBRANCH   1  15
BRANCH   3  16
ATOM     16  O   UNL     1      -4.529  12.529  23.512  0.00  0.00    +0.000 OA
ATOM     17  C   UNL     1      -4.478  12.549  24.931  0.00  0.00    +0.000 C 
ENDBRANCH   3  16
BRANCH   5  18
ATOM     18  O   UNL     1      -1.629  13.116  19.540  0.00  0.00    +0.000 OA
ATOM     19  H   UNL     1      -2.450  13.265  19.050  0.00  0.00    +0.000 HD
ENDBRANCH   5  18
BRANCH   6  20
ATOM     20  C   UNL     1       0.502  12.119  20.885  0.00  0.00    +0.000 C 
ATOM     21  O   UNL     1       1.217  13.090  21.148  0.00  0.00    +0.000 OA
BRANCH  20  22
ATOM     22  C   UNL     1       1.161  11.046  20.102  0.00  0.00    +0.000 C 
ATOM     23  C   UNL     1       0.643  10.004  19.436  0.00  0.00    +0.000 C 
BRANCH  23  24
ATOM     24  C   UNL     1       1.490   8.861  19.030  0.00  0.00    +0.000 A 
ATOM     25  C   UNL     1       2.208   8.861  17.818  0.00  0.00    +0.000 A 
ATOM     26  C   UNL     1       3.085   7.826  17.491  0.00  0.00    +0.000 A 
ATOM     27  C   UNL     1       3.280   6.761  18.372  0.00  0.00    +0.000 A 
ATOM     28  C   UNL     1       2.592   6.772  19.600  0.00  0.00    +0.000 A 
ATOM     29  C   UNL     1       1.715   7.812  19.925  0.00  0.00    +0.000 A 
BRANCH  27  30
ATOM     30  C   UNL     1       4.206   5.618  18.028  0.00  0.00    +0.000 C 
ATOM     31  F   UNL     1       4.171   5.270  16.709  0.00  0.00    +0.000 F 
ATOM     32  F   UNL     1       5.508   5.896  18.306  0.00  0.00    +0.000 F 
ATOM     33  F   UNL     1       3.907   4.482  18.719  0.00  0.00    +0.000 F 
ENDBRANCH  27  30
ENDBRANCH  23  24
ENDBRANCH  20  22
ENDBRANCH   6  20
TORSDOF 8
ENDMDL
MODEL 5
REMARK VINA RESULT:      -7.7      5.882     10.653
REMARK  Name = 
REMARK  11 active torsions:
REMARK  status: ('A' for Active; 'I' for Inactive)
REMARK    1  A    between atoms: C_1  and  O_2
REMARK    2  A    between atoms: O_2  and  C_3
REMARK    3  A    between atoms: C_5  and  O_6
REMARK    4  A    between atoms: O_6  and  C_7
REMARK    5  A    between atoms: C_8  and  C_9
REMARK    6  A    between atoms: N_12  and  C_13
REMARK    7  A    between atoms: C_16  and  O_17
REMARK    8  A    between atoms: C_18  and  C_19
REMARK    9  A    between atoms: C_19  and  C_21
REMARK   10  A    between atoms: C_22  and  C_23
REMARK   11  A    between atoms: C_26  and  C_27
REMARK                            x       y       z     vdW  Elec       q    Type
REMARK                         _______ _______ _______ _____ _____    ______ ____
ROOT
ATOM      1  C   UNL     1      -3.534  10.734  17.589  0.00  0.00    +0.000 A 
ATOM      2  C   UNL     1      -4.896  10.595  17.915  0.00  0.00    +0.000 A 
ATOM      3  C   UNL     1      -5.542  11.342  18.925  0.00  0.00    +0.000 A 
ATOM      4  C   UNL     1      -4.813  12.323  19.623  0.00  0.00    +0.000 A 
ATOM      5  C   UNL     1      -3.431  12.449  19.281  0.00  0.00    +0.000 A 
ATOM      6  C   UNL     1      -2.764  11.648  18.306  0.00  0.00    +0.000 A 
ENDROOT
BRANCH   4   7
ATOM      7  C   UNL     1      -5.424  13.222  20.692  0.00  0.00    +0.000 C 
ATOM      8  C   UNL     1      -5.830  12.531  22.006  0.00  0.00    +0.000 C 
ATOM      9  C   UNL     1      -6.311  13.570  23.021  0.00  0.00    +0.000 C 
ATOM     10  N   UNL     1      -7.404  14.385  22.472  0.00  0.00    +0.000 NA
ATOM     11  C   UNL     1      -7.873  15.337  23.482  0.00  0.00    +0.000 C 
ATOM     12  C   UNL     1      -6.990  15.108  21.260  0.00  0.00    +0.000 C 
ATOM     13  C   UNL     1      -6.537  14.142  20.163  0.00  0.00    +0.000 C 
ENDBRANCH   4   7
BRANCH   1  15
ATOM     14  C   UNL     1      -3.146  10.893  15.241  0.00  0.00    +0.000 C 
ATOM     15  O   UNL     1      -3.168  10.110  16.428  0.00  0.00    +0.000 OA
ENDBRANCH   1  15
BRANCH   3  16
ATOM     16  O   UNL     1      -6.856  10.939  18.992  0.00  0.00    +0.000 OA
ATOM     17  C   UNL     1      -7.310   9.727  19.575  0.00  0.00    +0.000 C 
ENDBRANCH   3  16
BRANCH   5  18
ATOM     18  O   UNL     1      -2.679  13.464  19.831  0.00  0.00    +0.000 OA
ATOM     19  H   UNL     1      -2.397  13.232  20.727  0.00  0.00    +0.000 HD
ENDBRANCH   5  18
BRANCH   6  20
ATOM     20  C   UNL     1      -1.269  11.746  18.279  0.00  0.00    +0.000 C 
ATOM     21  O   UNL     1      -0.756  12.824  17.964  0.00  0.00    +0.000 OA
BRANCH  20  22
ATOM     22  C   UNL     1      -0.320  10.715  18.764  0.00  0.00    +0.000 C 
ATOM     23  C   UNL     1       0.983  10.536  18.507  0.00  0.00    +0.000 C 
BRANCH  23  24
ATOM     24  C   UNL     1       1.649   9.248  18.801  0.00  0.00    +0.000 A 
ATOM     25  C   UNL     1       1.480   8.587  20.034  0.00  0.00    +0.000 A 
ATOM     26  C   UNL     1       2.026   7.325  20.265  0.00  0.00    +0.000 A 
ATOM     27  C   UNL     1       2.752   6.675  19.264  0.00  0.00    +0.000 A 
ATOM     28  C   UNL     1       2.895   7.314  18.018  0.00  0.00    +0.000 A 
ATOM     29  C   UNL     1       2.344   8.581  17.790  0.00  0.00    +0.000 A 
BRANCH  27  30
ATOM     30  C   UNL     1       3.372   5.318  19.500  0.00  0.00    +0.000 C 
ATOM     31  F   UNL     1       4.717   5.369  19.723  0.00  0.00    +0.000 F 
ATOM     32  F   UNL     1       2.839   4.677  20.574  0.00  0.00    +0.000 F 
ATOM     33  F   UNL     1       3.204   4.480  18.438  0.00  0.00    +0.000 F 
ENDBRANCH  27  30
ENDBRANCH  23  24
ENDBRANCH  20  22
ENDBRANCH   6  20
TORSDOF 8
ENDMDL
MODEL 6
REMARK VINA RESULT:      -7.7      5.817     10.230
REMARK  Name = 
REMARK  11 active torsions:
REMARK  status: ('A' for Active; 'I' for Inactive)
REMARK    1  A    between atoms: C_1  and  O_2
REMARK    2  A    between atoms: O_2  and  C_3
REMARK    3  A    between atoms: C_5  and  O_6
REMARK    4  A    between atoms: O_6  and  C_7
REMARK    5  A    between atoms: C_8  and  C_9
REMARK    6  A    between atoms: N_12  and  C_13
REMARK    7  A    between atoms: C_16  and  O_17
REMARK    8  A    between atoms: C_18  and  C_19
REMARK    9  A    between atoms: C_19  and  C_21
REMARK   10  A    between atoms: C_22  and  C_23
REMARK   11  A    between atoms: C_26  and  C_27
REMARK                            x       y       z     vdW  Elec       q    Type
REMARK                         _______ _______ _______ _____ _____    ______ ____
ROOT
ATOM      1  C   UNL     1      -0.546  10.385  19.443  0.00  0.00    +0.000 A 
ATOM      2  C   UNL     1      -1.663  11.127  19.016  0.00  0.00    +0.000 A 
ATOM      3  C   UNL     1      -2.416  11.969  19.864  0.00  0.00    +0.000 A 
ATOM      4  C   UNL     1      -2.013  12.132  21.203  0.00  0.00    +0.000 A 
ATOM      5  C   UNL     1      -0.877  11.369  21.619  0.00  0.00    +0.000 A 
ATOM      6  C   UNL     1      -0.157  10.468  20.779  0.00  0.00    +0.000 A 
ENDROOT
BRANCH   4   7
ATOM      7  C   UNL     1      -2.718  13.056  22.187  0.00  0.00    +0.000 C 
ATOM      8  C   UNL     1      -4.203  12.752  22.457  0.00  0.00    +0.000 C 
ATOM      9  C   UNL     1      -4.741  13.680  23.548  0.00  0.00    +0.000 C 
ATOM     10  N   UNL     1      -4.527  15.092  23.200  0.00  0.00    +0.000 NA
ATOM     11  C   UNL     1      -5.095  15.953  24.240  0.00  0.00    +0.000 C 
ATOM     12  C   UNL     1      -3.101  15.400  23.021  0.00  0.00    +0.000 C 
ATOM     13  C   UNL     1      -2.484  14.551  21.908  0.00  0.00    +0.000 C 
ENDBRANCH   4   7
BRANCH   1  15
ATOM     14  C   UNL     1       1.455  10.413  18.145  0.00  0.00    +0.000 C 
ATOM     15  O   UNL     1       0.186   9.837  18.424  0.00  0.00    +0.000 OA
ENDBRANCH   1  15
BRANCH   3  16
ATOM     16  O   UNL     1      -3.444  12.518  19.132  0.00  0.00    +0.000 OA
ATOM     17  C   UNL     1      -4.357  11.785  18.329  0.00  0.00    +0.000 C 
ENDBRANCH   3  16
BRANCH   5  18
ATOM     18  O   UNL     1      -0.347  11.561  22.876  0.00  0.00    +0.000 OA
ATOM     19  H   UNL     1      -0.829  12.255  23.347  0.00  0.00    +0.000 HD
ENDBRANCH   5  18
BRANCH   6  20
ATOM     20  C   UNL     1       0.827   9.569  21.462  0.00  0.00    +0.000 C 
ATOM     21  O   UNL     1       1.366   9.966  22.499  0.00  0.00    +0.000 OA
BRANCH  20  22
ATOM     22  C   UNL     1       1.105   8.154  21.111  0.00  0.00    +0.000 C 
ATOM     23  C   UNL     1       2.084   7.612  20.376  0.00  0.00    +0.000 C 
BRANCH  23  24
ATOM     24  C   UNL     1       1.972   6.231  19.853  0.00  0.00    +0.000 A 
ATOM     25  C   UNL     1       2.253   5.921  18.509  0.00  0.00    +0.000 A 
ATOM     26  C   UNL     1       2.246   4.603  18.049  0.00  0.00    +0.000 A 
ATOM     27  C   UNL     1       1.969   3.551  18.925  0.00  0.00    +0.000 A 
ATOM     28  C   UNL     1       1.723   3.852  20.277  0.00  0.00    +0.000 A 
ATOM     29  C   UNL     1       1.731   5.175  20.734  0.00  0.00    +0.000 A 
BRANCH  27  30
ATOM     30  C   UNL     1       1.934   2.120  18.444  0.00  0.00    +0.000 C 
ATOM     31  F   UNL     1       2.347   1.972  17.151  0.00  0.00    +0.000 F 
ATOM     32  F   UNL     1       2.725   1.298  19.184  0.00  0.00    +0.000 F 
ATOM     33  F   UNL     1       0.681   1.586  18.495  0.00  0.00    +0.000 F 
ENDBRANCH  27  30
ENDBRANCH  23  24
ENDBRANCH  20  22
ENDBRANCH   6  20
TORSDOF 8
ENDMDL
MODEL 7
REMARK VINA RESULT:      -7.6      5.744     10.204
REMARK  Name = 
REMARK  11 active torsions:
REMARK  status: ('A' for Active; 'I' for Inactive)
REMARK    1  A    between atoms: C_1  and  O_2
REMARK    2  A    between atoms: O_2  and  C_3
REMARK    3  A    between atoms: C_5  and  O_6
REMARK    4  A    between atoms: O_6  and  C_7
REMARK    5  A    between atoms: C_8  and  C_9
REMARK    6  A    between atoms: N_12  and  C_13
REMARK    7  A    between atoms: C_16  and  O_17
REMARK    8  A    between atoms: C_18  and  C_19
REMARK    9  A    between atoms: C_19  and  C_21
REMARK   10  A    between atoms: C_22  and  C_23
REMARK   11  A    between atoms: C_26  and  C_27
REMARK                            x       y       z     vdW  Elec       q    Type
REMARK                         _______ _______ _______ _____ _____    ______ ____
ROOT
ATOM      1  C   UNL     1      -0.700  11.420  22.326  0.00  0.00    +0.000 A 
ATOM      2  C   UNL     1      -1.695  12.062  23.086  0.00  0.00    +0.000 A 
ATOM      3  C   UNL     1      -2.800  12.737  22.524  0.00  0.00    +0.000 A 
ATOM      4  C   UNL     1      -2.964  12.736  21.125  0.00  0.00    +0.000 A 
ATOM      5  C   UNL     1      -1.943  12.081  20.369  0.00  0.00    +0.000 A 
ATOM      6  C   UNL     1      -0.792  11.457  20.935  0.00  0.00    +0.000 A 
ENDROOT
BRANCH   4   7
ATOM      7  C   UNL     1      -4.147  13.385  20.417  0.00  0.00    +0.000 C 
ATOM      8  C   UNL     1      -4.580  14.765  20.947  0.00  0.00    +0.000 C 
ATOM      9  C   UNL     1      -5.691  15.341  20.067  0.00  0.00    +0.000 C 
ATOM     10  N   UNL     1      -6.827  14.414  19.967  0.00  0.00    +0.000 NA
ATOM     11  C   UNL     1      -7.892  15.014  19.160  0.00  0.00    +0.000 C 
ATOM     12  C   UNL     1      -6.428  13.124  19.387  0.00  0.00    +0.000 C 
ATOM     13  C   UNL     1      -5.349  12.443  20.231  0.00  0.00    +0.000 C 
ENDBRANCH   4   7
BRANCH   1  15
ATOM     14  C   UNL     1      -0.313   9.306  23.358  0.00  0.00    +0.000 C 
ATOM     15  O   UNL     1       0.136  10.620  23.056  0.00  0.00    +0.000 OA
ENDBRANCH   1  15
BRANCH   3  16
ATOM     16  O   UNL     1      -3.556  13.264  23.545  0.00  0.00    +0.000 OA
ATOM     17  C   UNL     1      -4.216  12.506  24.548  0.00  0.00    +0.000 C 
ENDBRANCH   3  16
BRANCH   5  18
ATOM     18  O   UNL     1      -2.089  11.932  19.007  0.00  0.00    +0.000 OA
ATOM     19  H   UNL     1      -2.851  12.437  18.688  0.00  0.00    +0.000 HD
ENDBRANCH   5  18
BRANCH   6  20
ATOM     20  C   UNL     1       0.288  11.063  19.975  0.00  0.00    +0.000 C 
ATOM     21  O   UNL     1       1.014  11.947  19.511  0.00  0.00    +0.000 OA
BRANCH  20  22
ATOM     22  C   UNL     1       0.696   9.676  19.645  0.00  0.00    +0.000 C 
ATOM     23  C   UNL     1       1.439   8.796  20.330  0.00  0.00    +0.000 C 
BRANCH  23  24
ATOM     24  C   UNL     1       2.023   7.609  19.666  0.00  0.00    +0.000 A 
ATOM     25  C   UNL     1       1.848   6.309  20.179  0.00  0.00    +0.000 A 
ATOM     26  C   UNL     1       2.313   5.187  19.493  0.00  0.00    +0.000 A 
ATOM     27  C   UNL     1       2.959   5.328  18.263  0.00  0.00    +0.000 A 
ATOM     28  C   UNL     1       3.105   6.622  17.728  0.00  0.00    +0.000 A 
ATOM     29  C   UNL     1       2.637   7.745  18.419  0.00  0.00    +0.000 A 
BRANCH  27  30
ATOM     30  C   UNL     1       3.491   4.129  17.514  0.00  0.00    +0.000 C 
ATOM     31  F   UNL     1       4.246   4.461  16.427  0.00  0.00    +0.000 F 
ATOM     32  F   UNL     1       4.277   3.333  18.287  0.00  0.00    +0.000 F 
ATOM     33  F   UNL     1       2.493   3.330  17.042  0.00  0.00    +0.000 F 
ENDBRANCH  27  30
ENDBRANCH  23  24
ENDBRANCH  20  22
ENDBRANCH   6  20
TORSDOF 8
ENDMDL
MODEL 8
REMARK VINA RESULT:      -7.6      5.888     10.711
REMARK  Name = 
REMARK  11 active torsions:
REMARK  status: ('A' for Active; 'I' for Inactive)
REMARK    1  A    between atoms: C_1  and  O_2
REMARK    2  A    between atoms: O_2  and  C_3
REMARK    3  A    between atoms: C_5  and  O_6
REMARK    4  A    between atoms: O_6  and  C_7
REMARK    5  A    between atoms: C_8  and  C_9
REMARK    6  A    between atoms: N_12  and  C_13
REMARK    7  A    between atoms: C_16  and  O_17
REMARK    8  A    between atoms: C_18  and  C_19
REMARK    9  A    between atoms: C_19  and  C_21
REMARK   10  A    between atoms: C_22  and  C_23
REMARK   11  A    between atoms: C_26  and  C_27
REMARK                            x       y       z     vdW  Elec       q    Type
REMARK                         _______ _______ _______ _____ _____    ______ ____
ROOT
ATOM      1  C   UNL     1      -2.864  11.377  17.282  0.00  0.00    +0.000 A 
ATOM      2  C   UNL     1      -4.271  11.419  17.257  0.00  0.00    +0.000 A 
ATOM      3  C   UNL     1      -5.062  11.855  18.343  0.00  0.00    +0.000 A 
ATOM      4  C   UNL     1      -4.427  12.327  19.508  0.00  0.00    +0.000 A 
ATOM      5  C   UNL     1      -2.998  12.275  19.515  0.00  0.00    +0.000 A 
ATOM      6  C   UNL     1      -2.202  11.772  18.443  0.00  0.00    +0.000 A 
ENDROOT
BRANCH   4   7
ATOM      7  C   UNL     1      -5.182  12.871  20.714  0.00  0.00    +0.000 C 
ATOM      8  C   UNL     1      -6.393  12.045  21.184  0.00  0.00    +0.000 C 
ATOM      9  C   UNL     1      -6.972  12.643  22.468  0.00  0.00    +0.000 C 
ATOM     10  N   UNL     1      -7.315  14.061  22.288  0.00  0.00    +0.000 NA
ATOM     11  C   UNL     1      -7.910  14.590  23.518  0.00  0.00    +0.000 C 
ATOM     12  C   UNL     1      -6.140  14.863  21.917  0.00  0.00    +0.000 C 
ATOM     13  C   UNL     1      -5.519  14.368  20.609  0.00  0.00    +0.000 C 
ENDBRANCH   4   7
BRANCH   1  15
ATOM     14  C   UNL     1      -2.705  10.025  15.324  0.00  0.00    +0.000 C 
ATOM     15  O   UNL     1      -2.287  11.167  16.059  0.00  0.00    +0.000 OA
ENDBRANCH   1  15
BRANCH   3  16
ATOM     16  O   UNL     1      -6.387  11.747  17.988  0.00  0.00    +0.000 OA
ATOM     17  C   UNL     1      -7.166  12.784  17.411  0.00  0.00    +0.000 C 
ENDBRANCH   3  16
BRANCH   5  18
ATOM     18  O   UNL     1      -2.299  12.827  20.566  0.00  0.00    +0.000 OA
ATOM     19  H   UNL     1      -1.628  13.444  20.242  0.00  0.00    +0.000 HD
ENDBRANCH   5  18
BRANCH   6  20
ATOM     20  C   UNL     1      -0.751  11.553  18.742  0.00  0.00    +0.000 C 
ATOM     21  O   UNL     1      -0.074  12.516  19.114  0.00  0.00    +0.000 OA
BRANCH  20  22
ATOM     22  C   UNL     1      -0.063  10.240  18.804  0.00  0.00    +0.000 C 
ATOM     23  C   UNL     1       1.079   9.879  19.405  0.00  0.00    +0.000 C 
BRANCH  23  24
ATOM     24  C   UNL     1       1.767   8.619  19.043  0.00  0.00    +0.000 A 
ATOM     25  C   UNL     1       2.503   8.491  17.849  0.00  0.00    +0.000 A 
ATOM     26  C   UNL     1       3.235   7.338  17.565  0.00  0.00    +0.000 A 
ATOM     27  C   UNL     1       3.262   6.277  18.473  0.00  0.00    +0.000 A 
ATOM     28  C   UNL     1       2.557   6.413  19.683  0.00  0.00    +0.000 A 
ATOM     29  C   UNL     1       1.826   7.572  19.965  0.00  0.00    +0.000 A 
BRANCH  27  30
ATOM     30  C   UNL     1       4.028   5.010  18.175  0.00  0.00    +0.000 C 
ATOM     31  F   UNL     1       3.999   4.106  19.197  0.00  0.00    +0.000 F 
ATOM     32  F   UNL     1       3.554   4.353  17.083  0.00  0.00    +0.000 F 
ATOM     33  F   UNL     1       5.347   5.248  17.929  0.00  0.00    +0.000 F 
ENDBRANCH  27  30
ENDBRANCH  23  24
ENDBRANCH  20  22
ENDBRANCH   6  20
TORSDOF 8
ENDMDL
MODEL 9
REMARK VINA RESULT:      -7.5      2.993      4.379
REMARK  Name = 
REMARK  11 active torsions:
REMARK  status: ('A' for Active; 'I' for Inactive)
REMARK    1  A    between atoms: C_1  and  O_2
REMARK    2  A    between atoms: O_2  and  C_3
REMARK    3  A    between atoms: C_5  and  O_6
REMARK    4  A    between atoms: O_6  and  C_7
REMARK    5  A    between atoms: C_8  and  C_9
REMARK    6  A    between atoms: N_12  and  C_13
REMARK    7  A    between atoms: C_16  and  O_17
REMARK    8  A    between atoms: C_18  and  C_19
REMARK    9  A    between atoms: C_19  and  C_21
REMARK   10  A    between atoms: C_22  and  C_23
REMARK   11  A    between atoms: C_26  and  C_27
REMARK                            x       y       z     vdW  Elec       q    Type
REMARK                         _______ _______ _______ _____ _____    ______ ____
ROOT
ATOM      1  C   UNL     1       1.683   9.747  18.869  0.00  0.00    +0.000 A 
ATOM      2  C   UNL     1       2.394   9.087  17.850  0.00  0.00    +0.000 A 
ATOM      3  C   UNL     1       2.756   7.723  17.902  0.00  0.00    +0.000 A 
ATOM      4  C   UNL     1       2.347   6.947  19.003  0.00  0.00    +0.000 A 
ATOM      5  C   UNL     1       1.627   7.634  20.029  0.00  0.00    +0.000 A 
ATOM      6  C   UNL     1       1.320   9.028  20.006  0.00  0.00    +0.000 A 
ENDROOT
BRANCH   4   7
ATOM      7  C   UNL     1       2.634   5.456  19.134  0.00  0.00    +0.000 C 
ATOM      8  C   UNL     1       4.106   5.069  19.365  0.00  0.00    +0.000 C 
ATOM      9  C   UNL     1       4.223   3.561  19.597  0.00  0.00    +0.000 C 
ATOM     10  N   UNL     1       3.625   2.803  18.488  0.00  0.00    +0.000 NA
ATOM     11  C   UNL     1       3.796   1.366  18.717  0.00  0.00    +0.000 C 
ATOM     12  C   UNL     1       2.199   3.115  18.320  0.00  0.00    +0.000 C 
ATOM     13  C   UNL     1       1.985   4.602  18.032  0.00  0.00    +0.000 C 
ENDBRANCH   4   7
BRANCH   1  15
ATOM     14  C   UNL     1       2.144  12.063  18.537  0.00  0.00    +0.000 C 
ATOM     15  O   UNL     1       1.217  10.986  18.518  0.00  0.00    +0.000 OA
ENDBRANCH   1  15
BRANCH   3  16
ATOM     16  O   UNL     1       3.458   7.414  16.759  0.00  0.00    +0.000 OA
ATOM     17  C   UNL     1       4.820   7.015  16.721  0.00  0.00    +0.000 C 
ENDBRANCH   3  16
BRANCH   5  18
ATOM     18  O   UNL     1       1.088   6.925  21.080  0.00  0.00    +0.000 OA
ATOM     19  H   UNL     1       0.434   6.288  20.762  0.00  0.00    +0.000 HD
ENDBRANCH   5  18
BRANCH   6  20
ATOM     20  C   UNL     1       0.798   9.612  21.283  0.00  0.00    +0.000 C 
ATOM     21  O   UNL     1       1.541   9.628  22.270  0.00  0.00    +0.000 OA
BRANCH  20  22
ATOM     22  C   UNL     1      -0.482  10.343  21.448  0.00  0.00    +0.000 C 
ATOM     23  C   UNL     1      -0.749  11.655  21.430  0.00  0.00    +0.000 C 
BRANCH  23  24
ATOM     24  C   UNL     1      -2.020  12.185  21.971  0.00  0.00    +0.000 A 
ATOM     25  C   UNL     1      -2.983  12.795  21.144  0.00  0.00    +0.000 A 
ATOM     26  C   UNL     1      -4.222  13.197  21.644  0.00  0.00    +0.000 A 
ATOM     27  C   UNL     1      -4.543  12.990  22.987  0.00  0.00    +0.000 A 
ATOM     28  C   UNL     1      -3.599  12.348  23.810  0.00  0.00    +0.000 A 
ATOM     29  C   UNL     1      -2.358  11.946  23.305  0.00  0.00    +0.000 A 
BRANCH  27  30
ATOM     30  C   UNL     1      -5.870  13.438  23.554  0.00  0.00    +0.000 C 
ATOM     31  F   UNL     1      -6.885  13.411  22.643  0.00  0.00    +0.000 F 
ATOM     32  F   UNL     1      -6.282  12.667  24.596  0.00  0.00    +0.000 F 
ATOM     33  F   UNL     1      -5.827  14.717  24.024  0.00  0.00    +0.000 F 
ENDBRANCH  27  30
ENDBRANCH  23  24
ENDBRANCH  20  22
ENDBRANCH   6  20
TORSDOF 8
ENDMDL
