MODEL 1
REMARK VINA RESULT:      -8.4      0.000      0.000
REMARK  Name = 
REMARK  5 active torsions:
REMARK  status: ('A' for Active; 'I' for Inactive)
REMARK    1  A    between atoms: C_1  and  N_2
REMARK    2  A    between atoms: N_2  and  C_3
REMARK    3  A    between atoms: N_2  and  C_4
REMARK    4  A    between atoms: C_9  and  S_10
REMARK    5  A    between atoms: S_10  and  N_13
REMARK                            x       y       z     vdW  Elec       q    Type
REMARK                         _______ _______ _______ _____ _____    ______ ____
ROOT
ATOM      1  C   UNL     1       2.727   3.712  19.202  0.00  0.00    +0.000 A 
ATOM      2  C   UNL     1       3.532   2.681  19.721  0.00  0.00    +0.000 A 
ATOM      3  C   UNL     1       4.914   2.790  19.773  0.00  0.00    +0.000 A 
ATOM      4  C   UNL     1       5.540   3.915  19.257  0.00  0.00    +0.000 A 
ATOM      5  C   UNL     1       4.820   4.955  18.629  0.00  0.00    +0.000 A 
ATOM      6  C   UNL     1       5.420   6.098  18.010  0.00  0.00    +0.000 A 
ATOM      7  C   UNL     1       4.635   7.105  17.426  0.00  0.00    +0.000 A 
ATOM      8  C   UNL     1       3.259   7.038  17.490  0.00  0.00    +0.000 A 
ATOM      9  C   UNL     1       2.655   5.948  18.112  0.00  0.00    +0.000 A 
ATOM     10  C   UNL     1       3.389   4.860  18.643  0.00  0.00    +0.000 A 
ENDROOT
BRANCH   1  12
ATOM     11  C   UNL     1       0.683   4.136  20.497  0.00  0.00    +0.000 C 
ATOM     12  N   UNL     1       1.314   3.615  19.283  0.00  0.00    +0.000 N 
ATOM     13  C   UNL     1       0.709   2.391  18.746  0.00  0.00    +0.000 C 
ENDBRANCH   1  12
BRANCH   6  14
ATOM     14  S   UNL     1       7.201   6.315  17.805  0.00  0.00    +0.000 S 
ATOM     15  O   UNL     1       7.471   7.454  16.963  0.00  0.00    +0.000 OA
ATOM     16  O   UNL     1       7.767   6.279  19.146  0.00  0.00    +0.000 OA
BRANCH  14  17
ATOM     17  N   UNL     1       7.709   4.892  17.085  0.00  0.00    +0.000 N 
ATOM     18  C   UNL     1       7.139   4.613  15.849  0.00  0.00    +0.000 A 
ATOM     19  N   UNL     1       7.620   5.223  14.766  0.00  0.00    +0.000 NA
ATOM     20  C   UNL     1       7.072   4.840  13.590  0.00  0.00    +0.000 A 
ATOM     21  C   UNL     1       6.067   3.903  13.496  0.00  0.00    +0.000 A 
ATOM     22 BR   UNL     1       5.322   3.396  11.850  0.00  0.00    +0.000 Br
ATOM     23  C   UNL     1       5.651   3.355  14.689  0.00  0.00    +0.000 A 
ATOM     24  N   UNL     1       6.181   3.680  15.887  0.00  0.00    +0.000 NA
ATOM     25  H   UNL     1       7.553   4.110  17.709  0.00  0.00    +0.000 HD
ENDBRANCH  14  17
ENDBRANCH   6  14
TORSDOF 3
ENDMDL
MODEL 2
REMARK VINA RESULT:      -7.5      6.660      8.782
REMARK  Name = 
REMARK  5 active torsions:
REMARK  status: ('A' for Active; 'I' for Inactive)
REMARK    1  A    between atoms: C_1  and  N_2
REMARK    2  A    between atoms: N_2  and  C_3
REMARK    3  A    between atoms: N_2  and  C_4
REMARK    4  A    between atoms: C_9  and  S_10
REMARK    5  A    between atoms: S_10  and  N_13
REMARK                            x       y       z     vdW  Elec       q    Type
REMARK                         _______ _______ _______ _____ _____    ______ ____
ROOT
ATOM      1  C   UNL     1       3.185   5.003  18.841  0.00  0.00    +0.000 A 
ATOM      2  C   UNL     1       2.937   4.200  19.969  0.00  0.00    +0.000 A 
ATOM      3  C   UNL     1       2.176   4.655  21.036  0.00  0.00    +0.000 A 
ATOM      4  C   UNL     1       1.683   5.951  21.031  0.00  0.00    +0.000 A 
ATOM      5  C   UNL     1       1.963   6.860  19.988  0.00  0.00    +0.000 A 
ATOM      6  C   UNL     1       1.548   8.230  19.971  0.00  0.00    +0.000 A 
ATOM      7  C   UNL     1       1.846   9.067  18.884  0.00  0.00    +0.000 A 
ATOM      8  C   UNL     1       2.499   8.564  17.778  0.00  0.00    +0.000 A 
ATOM      9  C   UNL     1       2.888   7.226  17.763  0.00  0.00    +0.000 A 
ATOM     10  C   UNL     1       2.694   6.355  18.861  0.00  0.00    +0.000 A 
ENDROOT
BRANCH   1  12
ATOM     11  C   UNL     1       3.220   3.325  17.047  0.00  0.00    +0.000 C 
ATOM     12  N   UNL     1       3.860   4.458  17.718  0.00  0.00    +0.000 N 
ATOM     13  C   UNL     1       5.322   4.381  17.805  0.00  0.00    +0.000 C 
ENDBRANCH   1  12
BRANCH   6  14
ATOM     14  S   UNL     1       0.724   9.051  21.353  0.00  0.00    +0.000 S 
ATOM     15  O   UNL     1      -0.608   8.525  21.523  0.00  0.00    +0.000 OA
ATOM     16  O   UNL     1       1.656   8.988  22.469  0.00  0.00    +0.000 OA
BRANCH  14  17
ATOM     17  N   UNL     1       0.690  10.664  20.911  0.00  0.00    +0.000 N 
ATOM     18  C   UNL     1      -0.384  11.395  21.404  0.00  0.00    +0.000 A 
ATOM     19  N   UNL     1      -0.339  11.837  22.661  0.00  0.00    +0.000 NA
ATOM     20  C   UNL     1      -1.380  12.609  23.045  0.00  0.00    +0.000 A 
ATOM     21  C   UNL     1      -2.439  12.913  22.218  0.00  0.00    +0.000 A 
ATOM     22 BR   UNL     1      -3.874  13.983  22.782  0.00  0.00    +0.000 Br
ATOM     23  C   UNL     1      -2.372  12.387  20.948  0.00  0.00    +0.000 A 
ATOM     24  N   UNL     1      -1.344  11.633  20.504  0.00  0.00    +0.000 NA
ATOM     25  H   UNL     1       0.718  10.752  19.902  0.00  0.00    +0.000 HD
ENDBRANCH  14  17
ENDBRANCH   6  14
TORSDOF 3
ENDMDL
MODEL 3
REMARK VINA RESULT:      -7.2      4.821      6.012
REMARK  Name = 
REMARK  5 active torsions:
REMARK  status: ('A' for Active; 'I' for Inactive)
REMARK    1  A    between atoms: C_1  and  N_2
REMARK    2  A    between atoms: N_2  and  C_3
REMARK    3  A    between atoms: N_2  and  C_4
REMARK    4  A    between atoms: C_9  and  S_10
REMARK    5  A    between atoms: S_10  and  N_13
REMARK                            x       y       z     vdW  Elec       q    Type
REMARK                         _______ _______ _______ _____ _____    ______ ____
ROOT
ATOM      1  C   UNL     1       0.122  10.888  20.950  0.00  0.00    +0.000 A 
ATOM      2  C   UNL     1      -0.158  10.355  22.221  0.00  0.00    +0.000 A 
ATOM      3  C   UNL     1       0.283   9.093  22.596  0.00  0.00    +0.000 A 
ATOM      4  C   UNL     1       0.972   8.303  21.689  0.00  0.00    +0.000 A 
ATOM      5  C   UNL     1       1.213   8.716  20.360  0.00  0.00    +0.000 A 
ATOM      6  C   UNL     1       1.848   7.911  19.362  0.00  0.00    +0.000 A 
ATOM      7  C   UNL     1       2.073   8.402  18.066  0.00  0.00    +0.000 A 
ATOM      8  C   UNL     1       1.737   9.701  17.747  0.00  0.00    +0.000 A 
ATOM      9  C   UNL     1       1.143  10.511  18.712  0.00  0.00    +0.000 A 
ATOM     10  C   UNL     1       0.811  10.048  20.008  0.00  0.00    +0.000 A 
ENDROOT
BRANCH   1  12
ATOM     11  C   UNL     1       0.693  13.274  21.081  0.00  0.00    +0.000 C 
ATOM     12  N   UNL     1      -0.236  12.229  20.651  0.00  0.00    +0.000 N 
ATOM     13  C   UNL     1      -1.657  12.572  20.778  0.00  0.00    +0.000 C 
ENDBRANCH   1  12
BRANCH   6  14
ATOM     14  S   UNL     1       2.309   6.182  19.605  0.00  0.00    +0.000 S 
ATOM     15  O   UNL     1       1.839   5.716  20.887  0.00  0.00    +0.000 OA
ATOM     16  O   UNL     1       1.887   5.481  18.401  0.00  0.00    +0.000 OA
BRANCH  14  17
ATOM     17  N   UNL     1       3.981   6.188  19.536  0.00  0.00    +0.000 N 
ATOM     18  C   UNL     1       4.529   5.798  18.320  0.00  0.00    +0.000 A 
ATOM     19  N   UNL     1       4.577   6.681  17.322  0.00  0.00    +0.000 NA
ATOM     20  C   UNL     1       5.198   6.257  16.198  0.00  0.00    +0.000 A 
ATOM     21  C   UNL     1       5.730   4.994  16.061  0.00  0.00    +0.000 A 
ATOM     22 BR   UNL     1       6.580   4.432  14.485  0.00  0.00    +0.000 Br
ATOM     23  C   UNL     1       5.605   4.173  17.160  0.00  0.00    +0.000 A 
ATOM     24  N   UNL     1       5.021   4.554  18.315  0.00  0.00    +0.000 NA
ATOM     25  H   UNL     1       4.364   5.612  20.275  0.00  0.00    +0.000 HD
ENDBRANCH  14  17
ENDBRANCH   6  14
TORSDOF 3
ENDMDL
MODEL 4
REMARK VINA RESULT:      -7.0      1.077      1.411
REMARK  Name = 
REMARK  5 active torsions:
REMARK  status: ('A' for Active; 'I' for Inactive)
REMARK    1  A    between atoms: C_1  and  N_2
REMARK    2  A    between atoms: N_2  and  C_3
REMARK    3  A    between atoms: N_2  and  C_4
REMARK    4  A    between atoms: C_9  and  S_10
REMARK    5  A    between atoms: S_10  and  N_13
REMARK                            x       y       z     vdW  Elec       q    Type
REMARK                         _______ _______ _______ _____ _____    ______ ____
ROOT
ATOM      1  C   UNL     1       2.709   3.313  19.794  0.00  0.00    +0.000 A 
ATOM      2  C   UNL     1       3.583   2.253  20.094  0.00  0.00    +0.000 A 
ATOM      3  C   UNL     1       4.946   2.340  19.855  0.00  0.00    +0.000 A 
ATOM      4  C   UNL     1       5.472   3.475  19.256  0.00  0.00    +0.000 A 
ATOM      5  C   UNL     1       4.659   4.548  18.831  0.00  0.00    +0.000 A 
ATOM      6  C   UNL     1       5.139   5.705  18.137  0.00  0.00    +0.000 A 
ATOM      7  C   UNL     1       4.270   6.743  17.768  0.00  0.00    +0.000 A 
ATOM      8  C   UNL     1       2.937   6.694  18.121  0.00  0.00    +0.000 A 
ATOM      9  C   UNL     1       2.456   5.590  18.821  0.00  0.00    +0.000 A 
ATOM     10  C   UNL     1       3.261   4.472  19.146  0.00  0.00    +0.000 A 
ENDROOT
BRANCH   1  12
ATOM     11  C   UNL     1       1.059   2.926  21.573  0.00  0.00    +0.000 C 
ATOM     12  N   UNL     1       1.343   3.234  20.171  0.00  0.00    +0.000 N 
ATOM     13  C   UNL     1       0.431   2.613  19.203  0.00  0.00    +0.000 C 
ENDBRANCH   1  12
BRANCH   6  14
ATOM     14  S   UNL     1       6.840   5.904  17.566  0.00  0.00    +0.000 S 
ATOM     15  O   UNL     1       7.539   6.849  18.401  0.00  0.00    +0.000 OA
ATOM     16  O   UNL     1       7.375   4.558  17.422  0.00  0.00    +0.000 OA
BRANCH  14  17
ATOM     17  N   UNL     1       6.684   6.475  16.000  0.00  0.00    +0.000 N 
ATOM     18  C   UNL     1       6.511   5.501  15.024  0.00  0.00    +0.000 A 
ATOM     19  N   UNL     1       5.301   4.969  14.852  0.00  0.00    +0.000 NA
ATOM     20  C   UNL     1       5.191   4.090  13.831  0.00  0.00    +0.000 A 
ATOM     21  C   UNL     1       6.250   3.733  13.026  0.00  0.00    +0.000 A 
ATOM     22 BR   UNL     1       6.067   2.503  11.620  0.00  0.00    +0.000 Br
ATOM     23  C   UNL     1       7.449   4.344  13.314  0.00  0.00    +0.000 A 
ATOM     24  N   UNL     1       7.609   5.249  14.303  0.00  0.00    +0.000 NA
ATOM     25  H   UNL     1       7.479   7.053  15.758  0.00  0.00    +0.000 HD
ENDBRANCH  14  17
ENDBRANCH   6  14
TORSDOF 3
ENDMDL
MODEL 5
REMARK VINA RESULT:      -7.0      6.699      8.813
REMARK  Name = 
REMARK  5 active torsions:
REMARK  status: ('A' for Active; 'I' for Inactive)
REMARK    1  A    between atoms: C_1  and  N_2
REMARK    2  A    between atoms: N_2  and  C_3
REMARK    3  A    between atoms: N_2  and  C_4
REMARK    4  A    between atoms: C_9  and  S_10
REMARK    5  A    between atoms: S_10  and  N_13
REMARK                            x       y       z     vdW  Elec       q    Type
REMARK                         _______ _______ _______ _____ _____    ______ ____
ROOT
ATOM      1  C   UNL     1       3.382   5.596  18.790  0.00  0.00    +0.000 A 
ATOM      2  C   UNL     1       3.191   4.719  19.873  0.00  0.00    +0.000 A 
ATOM      3  C   UNL     1       2.318   5.018  20.909  0.00  0.00    +0.000 A 
ATOM      4  C   UNL     1       1.648   6.232  20.921  0.00  0.00    +0.000 A 
ATOM      5  C   UNL     1       1.851   7.215  19.928  0.00  0.00    +0.000 A 
ATOM      6  C   UNL     1       1.248   8.512  19.935  0.00  0.00    +0.000 A 
ATOM      7  C   UNL     1       1.481   9.428  18.897  0.00  0.00    +0.000 A 
ATOM      8  C   UNL     1       2.257   9.069  17.813  0.00  0.00    +0.000 A 
ATOM      9  C   UNL     1       2.831   7.801  17.775  0.00  0.00    +0.000 A 
ATOM     10  C   UNL     1       2.705   6.865  18.828  0.00  0.00    +0.000 A 
ENDROOT
BRANCH   1  12
ATOM     11  C   UNL     1       3.841   3.931  17.043  0.00  0.00    +0.000 C 
ATOM     12  N   UNL     1       4.185   5.198  17.689  0.00  0.00    +0.000 N 
ATOM     13  C   UNL     1       5.623   5.470  17.795  0.00  0.00    +0.000 C 
ENDBRANCH   1  12
BRANCH   6  14
ATOM     14  S   UNL     1       0.245   9.151  21.294  0.00  0.00    +0.000 S 
ATOM     15  O   UNL     1      -0.636   8.122  21.789  0.00  0.00    +0.000 OA
ATOM     16  O   UNL     1       1.176   9.787  22.214  0.00  0.00    +0.000 OA
BRANCH  14  17
ATOM     17  N   UNL     1      -0.616  10.413  20.612  0.00  0.00    +0.000 N 
ATOM     18  C   UNL     1      -0.388  11.664  21.174  0.00  0.00    +0.000 A 
ATOM     19  N   UNL     1       0.705  12.340  20.817  0.00  0.00    +0.000 NA
ATOM     20  C   UNL     1       0.818  13.581  21.341  0.00  0.00    +0.000 A 
ATOM     21  C   UNL     1      -0.107  14.123  22.205  0.00  0.00    +0.000 A 
ATOM     22 BR   UNL     1       0.081  15.848  22.920  0.00  0.00    +0.000 Br
ATOM     23  C   UNL     1      -1.185  13.319  22.503  0.00  0.00    +0.000 A 
ATOM     24  N   UNL     1      -1.362  12.084  21.988  0.00  0.00    +0.000 NA
ATOM     25  H   UNL     1      -1.609  10.213  20.636  0.00  0.00    +0.000 HD
ENDBRANCH  14  17
ENDBRANCH   6  14
TORSDOF 3
ENDMDL
MODEL 6
REMARK VINA RESULT:      -6.8      6.270      8.336
REMARK  Name = 
REMARK  5 active torsions:
REMARK  status: ('A' for Active; 'I' for Inactive)
REMARK    1  A    between atoms: C_1  and  N_2
REMARK    2  A    between atoms: N_2  and  C_3
REMARK    3  A    between atoms: N_2  and  C_4
REMARK    4  A    between atoms: C_9  and  S_10
REMARK    5  A    between atoms: S_10  and  N_13
REMARK                            x       y       z     vdW  Elec       q    Type
REMARK                         _______ _______ _______ _____ _____    ______ ____
ROOT
ATOM      1  C   UNL     1       3.401   4.618  19.109  0.00  0.00    +0.000 A 
ATOM      2  C   UNL     1       3.008   3.904  20.255  0.00  0.00    +0.000 A 
ATOM      3  C   UNL     1       2.150   4.450  21.198  0.00  0.00    +0.000 A 
ATOM      4  C   UNL     1       1.699   5.753  21.050  0.00  0.00    +0.000 A 
ATOM      5  C   UNL     1       2.117   6.579  19.984  0.00  0.00    +0.000 A 
ATOM      6  C   UNL     1       1.746   7.952  19.827  0.00  0.00    +0.000 A 
ATOM      7  C   UNL     1       2.185   8.703  18.725  0.00  0.00    +0.000 A 
ATOM      8  C   UNL     1       2.939   8.108  17.734  0.00  0.00    +0.000 A 
ATOM      9  C   UNL     1       3.288   6.765  17.854  0.00  0.00    +0.000 A 
ATOM     10  C   UNL     1       2.951   5.979  18.982  0.00  0.00    +0.000 A 
ENDROOT
BRANCH   1  12
ATOM     11  C   UNL     1       5.551   4.452  17.931  0.00  0.00    +0.000 C 
ATOM     12  N   UNL     1       4.177   3.979  18.107  0.00  0.00    +0.000 N 
ATOM     13  C   UNL     1       3.480   3.624  16.865  0.00  0.00    +0.000 C 
ENDBRANCH   1  12
BRANCH   6  14
ATOM     14  S   UNL     1       0.803   8.888  21.050  0.00  0.00    +0.000 S 
ATOM     15  O   UNL     1      -0.540   8.371  21.145  0.00  0.00    +0.000 OA
ATOM     16  O   UNL     1       1.629   8.930  22.247  0.00  0.00    +0.000 OA
BRANCH  14  17
ATOM     17  N   UNL     1       0.812  10.456  20.465  0.00  0.00    +0.000 N 
ATOM     18  C   UNL     1      -0.387  11.147  20.594  0.00  0.00    +0.000 A 
ATOM     19  N   UNL     1      -0.693  11.689  21.774  0.00  0.00    +0.000 NA
ATOM     20  C   UNL     1      -1.833  12.416  21.802  0.00  0.00    +0.000 A 
ATOM     21  C   UNL     1      -2.650  12.580  20.706  0.00  0.00    +0.000 A 
ATOM     22 BR   UNL     1      -4.230  13.590  20.778  0.00  0.00    +0.000 Br
ATOM     23  C   UNL     1      -2.228  11.961  19.551  0.00  0.00    +0.000 A 
ATOM     24  N   UNL     1      -1.087  11.247  19.459  0.00  0.00    +0.000 NA
ATOM     25  H   UNL     1       1.099  10.465  19.494  0.00  0.00    +0.000 HD
ENDBRANCH  14  17
ENDBRANCH   6  14
TORSDOF 3
ENDMDL
MODEL 7
REMARK VINA RESULT:      -6.8      6.029      8.032
REMARK  Name = 
REMARK  5 active torsions:
REMARK  status: ('A' for Active; 'I' for Inactive)
REMARK    1  A    between atoms: C_1  and  N_2
REMARK    2  A    between atoms: N_2  and  C_3
REMARK    3  A    between atoms: N_2  and  C_4
REMARK    4  A    between atoms: C_9  and  S_10
REMARK    5  A    between atoms: S_10  and  N_13
REMARK                            x       y       z     vdW  Elec       q    Type
REMARK                         _______ _______ _______ _____ _____    ______ ____
ROOT
ATOM      1  C   UNL     1       3.260   5.142  19.171  0.00  0.00    +0.000 A 
ATOM      2  C   UNL     1       2.765   4.541  20.343  0.00  0.00    +0.000 A 
ATOM      3  C   UNL     1       1.844   5.182  21.159  0.00  0.00    +0.000 A 
ATOM      4  C   UNL     1       1.429   6.470  20.855  0.00  0.00    +0.000 A 
ATOM      5  C   UNL     1       1.946   7.189  19.755  0.00  0.00    +0.000 A 
ATOM      6  C   UNL     1       1.613   8.545  19.443  0.00  0.00    +0.000 A 
ATOM      7  C   UNL     1       2.152   9.185  18.315  0.00  0.00    +0.000 A 
ATOM      8  C   UNL     1       2.973   8.492  17.448  0.00  0.00    +0.000 A 
ATOM      9  C   UNL     1       3.286   7.163  17.719  0.00  0.00    +0.000 A 
ATOM     10  C   UNL     1       2.846   6.489  18.883  0.00  0.00    +0.000 A 
ENDROOT
BRANCH   1  12
ATOM     11  C   UNL     1       3.485   3.308  17.552  0.00  0.00    +0.000 C 
ATOM     12  N   UNL     1       4.103   4.404  18.299  0.00  0.00    +0.000 N 
ATOM     13  C   UNL     1       5.467   4.141  18.772  0.00  0.00    +0.000 C 
ENDBRANCH   1  12
BRANCH   6  14
ATOM     14  S   UNL     1       0.592   9.600  20.493  0.00  0.00    +0.000 S 
ATOM     15  O   UNL     1      -0.646   8.934  20.815  0.00  0.00    +0.000 OA
ATOM     16  O   UNL     1       1.457  10.045  21.576  0.00  0.00    +0.000 OA
BRANCH  14  17
ATOM     17  N   UNL     1       0.324  10.968  19.566  0.00  0.00    +0.000 N 
ATOM     18  C   UNL     1      -0.981  11.141  19.122  0.00  0.00    +0.000 A 
ATOM     19  N   UNL     1      -1.885  11.648  19.962  0.00  0.00    +0.000 NA
ATOM     20  C   UNL     1      -3.112  11.865  19.436  0.00  0.00    +0.000 A 
ATOM     21  C   UNL     1      -3.436  11.568  18.131  0.00  0.00    +0.000 A 
ATOM     22 BR   UNL     1      -5.150  11.875  17.431  0.00  0.00    +0.000 Br
ATOM     23  C   UNL     1      -2.417  11.040  17.370  0.00  0.00    +0.000 A 
ATOM     24  N   UNL     1      -1.168  10.828  17.836  0.00  0.00    +0.000 NA
ATOM     25  H   UNL     1       0.951  10.980  18.771  0.00  0.00    +0.000 HD
ENDBRANCH  14  17
ENDBRANCH   6  14
TORSDOF 3
ENDMDL
MODEL 8
REMARK VINA RESULT:      -6.5      6.237      8.259
REMARK  Name = 
REMARK  5 active torsions:
REMARK  status: ('A' for Active; 'I' for Inactive)
REMARK    1  A    between atoms: C_1  and  N_2
REMARK    2  A    between atoms: N_2  and  C_3
REMARK    3  A    between atoms: N_2  and  C_4
REMARK    4  A    between atoms: C_9  and  S_10
REMARK    5  A    between atoms: S_10  and  N_13
REMARK                            x       y       z     vdW  Elec       q    Type
REMARK                         _______ _______ _______ _____ _____    ______ ____
ROOT
ATOM      1  C   UNL     1       3.408   5.113  19.063  0.00  0.00    +0.000 A 
ATOM      2  C   UNL     1       2.967   4.399  20.192  0.00  0.00    +0.000 A 
ATOM      3  C   UNL     1       2.007   4.913  21.051  0.00  0.00    +0.000 A 
ATOM      4  C   UNL     1       1.496   6.184  20.837  0.00  0.00    +0.000 A 
ATOM      5  C   UNL     1       1.950   7.012  19.787  0.00  0.00    +0.000 A 
ATOM      6  C   UNL     1       1.515   8.358  19.569  0.00  0.00    +0.000 A 
ATOM      7  C   UNL     1       1.996   9.111  18.487  0.00  0.00    +0.000 A 
ATOM      8  C   UNL     1       2.860   8.542  17.573  0.00  0.00    +0.000 A 
ATOM      9  C   UNL     1       3.273   7.225  17.752  0.00  0.00    +0.000 A 
ATOM     10  C   UNL     1       2.893   6.442  18.868  0.00  0.00    +0.000 A 
ENDROOT
BRANCH   1  12
ATOM     11  C   UNL     1       3.840   3.266  17.501  0.00  0.00    +0.000 C 
ATOM     12  N   UNL     1       4.296   4.502  18.140  0.00  0.00    +0.000 N 
ATOM     13  C   UNL     1       5.722   4.531  18.485  0.00  0.00    +0.000 C 
ENDBRANCH   1  12
BRANCH   6  14
ATOM     14  S   UNL     1       0.426   9.260  20.692  0.00  0.00    +0.000 S 
ATOM     15  O   UNL     1      -0.242   8.343  21.583  0.00  0.00    +0.000 OA
ATOM     16  O   UNL     1       1.231  10.333  21.256  0.00  0.00    +0.000 OA
BRANCH  14  17
ATOM     17  N   UNL     1      -0.664  10.027  19.679  0.00  0.00    +0.000 N 
ATOM     18  C   UNL     1      -0.615  11.416  19.693  0.00  0.00    +0.000 A 
ATOM     19  N   UNL     1       0.333  12.033  18.986  0.00  0.00    +0.000 NA
ATOM     20  C   UNL     1       0.268  13.384  18.980  0.00  0.00    +0.000 A 
ATOM     21  C   UNL     1      -0.689  14.096  19.669  0.00  0.00    +0.000 A 
ATOM     22 BR   UNL     1      -0.749  15.972  19.646  0.00  0.00    +0.000 Br
ATOM     23  C   UNL     1      -1.603  13.342  20.369  0.00  0.00    +0.000 A 
ATOM     24  N   UNL     1      -1.602  11.992  20.387  0.00  0.00    +0.000 NA
ATOM     25  H   UNL     1      -1.608   9.725  19.888  0.00  0.00    +0.000 HD
ENDBRANCH  14  17
ENDBRANCH   6  14
TORSDOF 3
ENDMDL
MODEL 9
REMARK VINA RESULT:      -6.5      4.386      7.089
REMARK  Name = 
REMARK  5 active torsions:
REMARK  status: ('A' for Active; 'I' for Inactive)
REMARK    1  A    between atoms: C_1  and  N_2
REMARK    2  A    between atoms: N_2  and  C_3
REMARK    3  A    between atoms: N_2  and  C_4
REMARK    4  A    between atoms: C_9  and  S_10
REMARK    5  A    between atoms: S_10  and  N_13
REMARK                            x       y       z     vdW  Elec       q    Type
REMARK                         _______ _______ _______ _____ _____    ______ ____
ROOT
ATOM      1  C   UNL     1       5.160   4.986  15.904  0.00  0.00    +0.000 A 
ATOM      2  C   UNL     1       5.179   6.393  15.904  0.00  0.00    +0.000 A 
ATOM      3  C   UNL     1       4.593   7.131  16.922  0.00  0.00    +0.000 A 
ATOM      4  C   UNL     1       3.920   6.484  17.947  0.00  0.00    +0.000 A 
ATOM      5  C   UNL     1       3.765   5.080  17.978  0.00  0.00    +0.000 A 
ATOM      6  C   UNL     1       3.015   4.369  18.967  0.00  0.00    +0.000 A 
ATOM      7  C   UNL     1       2.927   2.968  18.944  0.00  0.00    +0.000 A 
ATOM      8  C   UNL     1       3.616   2.243  17.994  0.00  0.00    +0.000 A 
ATOM      9  C   UNL     1       4.375   2.916  17.039  0.00  0.00    +0.000 A 
ATOM     10  C   UNL     1       4.434   4.327  16.956  0.00  0.00    +0.000 A 
ENDROOT
BRANCH   1  12
ATOM     11  C   UNL     1       7.287   4.625  14.729  0.00  0.00    +0.000 C 
ATOM     12  N   UNL     1       5.879   4.268  14.914  0.00  0.00    +0.000 N 
ATOM     13  C   UNL     1       5.154   3.948  13.679  0.00  0.00    +0.000 C 
ENDBRANCH   1  12
BRANCH   6  14
ATOM     14  S   UNL     1       2.023   5.166  20.249  0.00  0.00    +0.000 S 
ATOM     15  O   UNL     1       0.640   5.223  19.845  0.00  0.00    +0.000 OA
ATOM     16  O   UNL     1       2.368   4.500  21.496  0.00  0.00    +0.000 OA
BRANCH  14  17
ATOM     17  N   UNL     1       2.682   6.699  20.383  0.00  0.00    +0.000 N 
ATOM     18  C   UNL     1       1.765   7.744  20.384  0.00  0.00    +0.000 A 
ATOM     19  N   UNL     1       1.113   8.027  21.512  0.00  0.00    +0.000 NA
ATOM     20  C   UNL     1       0.301   9.107  21.460  0.00  0.00    +0.000 A 
ATOM     21  C   UNL     1       0.125   9.864  20.323  0.00  0.00    +0.000 A 
ATOM     22 BR   UNL     1      -1.015  11.354  20.280  0.00  0.00    +0.000 Br
ATOM     23  C   UNL     1       0.846   9.461  19.222  0.00  0.00    +0.000 A 
ATOM     24  N   UNL     1       1.692   8.409  19.226  0.00  0.00    +0.000 NA
ATOM     25  H   UNL     1       3.363   6.853  19.649  0.00  0.00    +0.000 HD
ENDBRANCH  14  17
ENDBRANCH   6  14
TORSDOF 3
ENDMDL
