MODEL 1
REMARK VINA RESULT:      -9.3      0.000      0.000
REMARK  Name = 
REMARK  6 active torsions:
REMARK  status: ('A' for Active; 'I' for Inactive)
REMARK    1  A    between atoms: C_1  and  C_2
REMARK    2  A    between atoms: C_6  and  O_7
REMARK    3  A    between atoms: O_7  and  C_8
REMARK    4  A    between atoms: C_12  and  C_13
REMARK    5  A    between atoms: C_17  and  C_18
REMARK    6  A    between atoms: N_20  and  C_21
REMARK                            x       y       z     vdW  Elec       q    Type
REMARK                         _______ _______ _______ _____ _____    ______ ____
ROOT
ATOM      1  C   UNL     1       4.570   4.227  19.371  0.00  0.00    +0.000 A 
ATOM      2  N   UNL     1       5.275   3.115  19.705  0.00  0.00    +0.000 NA
ATOM      3  C   UNL     1       4.618   2.112  20.306  0.00  0.00    +0.000 A 
ATOM      4  C   UNL     1       3.268   2.165  20.582  0.00  0.00    +0.000 A 
ATOM      5  C   UNL     1       2.522   3.293  20.186  0.00  0.00    +0.000 A 
ATOM      6  C   UNL     1       3.186   4.346  19.519  0.00  0.00    +0.000 A 
ENDROOT
BRANCH   5   7
ATOM      7  C   UNL     1       1.043   3.306  20.499  0.00  0.00    +0.000 C 
ATOM      8  F   UNL     1       0.589   4.578  20.732  0.00  0.00    +0.000 F 
ATOM      9  F   UNL     1       0.261   2.854  19.485  0.00  0.00    +0.000 F 
ATOM     10  F   UNL     1       0.722   2.616  21.623  0.00  0.00    +0.000 F 
ENDBRANCH   5   7
BRANCH   6  11
ATOM     11  C   UNL     1       2.435   5.537  19.014  0.00  0.00    +0.000 C 
ATOM     12  O   UNL     1       1.792   5.415  17.981  0.00  0.00    +0.000 OA
ATOM     13  N   UNL     1       2.558   6.711  19.737  0.00  0.00    +0.000 N 
ATOM     14  H   UNL     1       3.084   6.689  20.609  0.00  0.00    +0.000 HD
BRANCH  13  15
ATOM     15  C   UNL     1       2.017   7.983  19.424  0.00  0.00    +0.000 A 
ATOM     16  C   UNL     1       2.193   8.642  18.205  0.00  0.00    +0.000 A 
ATOM     17  C   UNL     1       1.635   9.908  18.000  0.00  0.00    +0.000 A 
ATOM     18  C   UNL     1       0.896  10.517  19.012  0.00  0.00    +0.000 A 
ATOM     19  F   UNL     1       0.371  11.730  18.810  0.00  0.00    +0.000 F 
ATOM     20  C   UNL     1       0.701   9.881  20.228  0.00  0.00    +0.000 A 
ATOM     21  C   UNL     1       1.264   8.623  20.422  0.00  0.00    +0.000 A 
ATOM     22  F   UNL     1       1.075   8.007  21.601  0.00  0.00    +0.000 F 
ENDBRANCH  13  15
ENDBRANCH   6  11
BRANCH   1  23
ATOM     23  O   UNL     1       5.286   5.289  18.836  0.00  0.00    +0.000 OA
BRANCH  23  29
ATOM     24  C   UNL     1       6.189   3.593  14.254  0.00  0.00    +0.000 C 
ATOM     25  C   UNL     1       5.759   4.681  15.192  0.00  0.00    +0.000 A 
ATOM     26  C   UNL     1       5.403   5.947  14.715  0.00  0.00    +0.000 A 
ATOM     27  C   UNL     1       5.022   6.955  15.604  0.00  0.00    +0.000 A 
ATOM     28  C   UNL     1       4.985   6.702  16.977  0.00  0.00    +0.000 A 
ATOM     29  C   UNL     1       5.315   5.438  17.465  0.00  0.00    +0.000 A 
ATOM     30  C   UNL     1       5.726   4.438  16.574  0.00  0.00    +0.000 A 
ENDBRANCH  23  29
ENDBRANCH   1  23
TORSDOF 5
ENDMDL
MODEL 2
REMARK VINA RESULT:      -9.2      0.710      1.177
REMARK  Name = 
REMARK  6 active torsions:
REMARK  status: ('A' for Active; 'I' for Inactive)
REMARK    1  A    between atoms: C_1  and  C_2
REMARK    2  A    between atoms: C_6  and  O_7
REMARK    3  A    between atoms: O_7  and  C_8
REMARK    4  A    between atoms: C_12  and  C_13
REMARK    5  A    between atoms: C_17  and  C_18
REMARK    6  A    between atoms: N_20  and  C_21
REMARK                            x       y       z     vdW  Elec       q    Type
REMARK                         _______ _______ _______ _____ _____    ______ ____
ROOT
ATOM      1  C   UNL     1       4.563   4.229  19.225  0.00  0.00    +0.000 A 
ATOM      2  N   UNL     1       5.272   3.118  19.555  0.00  0.00    +0.000 NA
ATOM      3  C   UNL     1       4.630   2.134  20.203  0.00  0.00    +0.000 A 
ATOM      4  C   UNL     1       3.293   2.205  20.530  0.00  0.00    +0.000 A 
ATOM      5  C   UNL     1       2.541   3.331  20.140  0.00  0.00    +0.000 A 
ATOM      6  C   UNL     1       3.187   4.364  19.425  0.00  0.00    +0.000 A 
ENDROOT
BRANCH   5   7
ATOM      7  C   UNL     1       1.076   3.364  20.510  0.00  0.00    +0.000 C 
ATOM      8  F   UNL     1       0.829   2.653  21.655  0.00  0.00    +0.000 F 
ATOM      9  F   UNL     1       0.604   4.608  20.783  0.00  0.00    +0.000 F 
ATOM     10  F   UNL     1       0.270   2.800  19.575  0.00  0.00    +0.000 F 
ENDBRANCH   5   7
BRANCH   6  11
ATOM     11  C   UNL     1       2.426   5.551  18.924  0.00  0.00    +0.000 C 
ATOM     12  O   UNL     1       1.752   5.415  17.912  0.00  0.00    +0.000 OA
ATOM     13  N   UNL     1       2.576   6.735  19.625  0.00  0.00    +0.000 N 
ATOM     14  H   UNL     1       3.128   6.723  20.481  0.00  0.00    +0.000 HD
BRANCH  13  15
ATOM     15  C   UNL     1       2.031   8.004  19.309  0.00  0.00    +0.000 A 
ATOM     16  C   UNL     1       2.236   8.677  18.102  0.00  0.00    +0.000 A 
ATOM     17  C   UNL     1       1.670   9.940  17.893  0.00  0.00    +0.000 A 
ATOM     18  C   UNL     1       0.897  10.531  18.889  0.00  0.00    +0.000 A 
ATOM     19  F   UNL     1       0.365  11.741  18.683  0.00  0.00    +0.000 F 
ATOM     20  C   UNL     1       0.673   9.881  20.093  0.00  0.00    +0.000 A 
ATOM     21  C   UNL     1       1.243   8.627  20.291  0.00  0.00    +0.000 A 
ATOM     22  F   UNL     1       1.027   7.997  21.457  0.00  0.00    +0.000 F 
ENDBRANCH  13  15
ENDBRANCH   6  11
BRANCH   1  23
ATOM     23  O   UNL     1       5.266   5.273  18.640  0.00  0.00    +0.000 OA
BRANCH  23  29
ATOM     24  C   UNL     1       4.884   3.979  13.858  0.00  0.00    +0.000 C 
ATOM     25  C   UNL     1       5.692   4.440  15.035  0.00  0.00    +0.000 A 
ATOM     26  C   UNL     1       7.069   4.657  14.925  0.00  0.00    +0.000 A 
ATOM     27  C   UNL     1       7.809   5.068  16.036  0.00  0.00    +0.000 A 
ATOM     28  C   UNL     1       7.177   5.274  17.264  0.00  0.00    +0.000 A 
ATOM     29  C   UNL     1       5.801   5.083  17.382  0.00  0.00    +0.000 A 
ATOM     30  C   UNL     1       5.066   4.641  16.275  0.00  0.00    +0.000 A 
ENDBRANCH  23  29
ENDBRANCH   1  23
TORSDOF 5
ENDMDL
MODEL 3
REMARK VINA RESULT:      -9.0      1.369      1.809
REMARK  Name = 
REMARK  6 active torsions:
REMARK  status: ('A' for Active; 'I' for Inactive)
REMARK    1  A    between atoms: C_1  and  C_2
REMARK    2  A    between atoms: C_6  and  O_7
REMARK    3  A    between atoms: O_7  and  C_8
REMARK    4  A    between atoms: C_12  and  C_13
REMARK    5  A    between atoms: C_17  and  C_18
REMARK    6  A    between atoms: N_20  and  C_21
REMARK                            x       y       z     vdW  Elec       q    Type
REMARK                         _______ _______ _______ _____ _____    ______ ____
ROOT
ATOM      1  C   UNL     1       3.639   3.276  17.765  0.00  0.00    +0.000 A 
ATOM      2  N   UNL     1       4.145   2.020  17.888  0.00  0.00    +0.000 NA
ATOM      3  C   UNL     1       3.765   1.293  18.949  0.00  0.00    +0.000 A 
ATOM      4  C   UNL     1       2.883   1.762  19.899  0.00  0.00    +0.000 A 
ATOM      5  C   UNL     1       2.313   3.042  19.745  0.00  0.00    +0.000 A 
ATOM      6  C   UNL     1       2.670   3.813  18.616  0.00  0.00    +0.000 A 
ENDROOT
BRANCH   5   7
ATOM      7  C   UNL     1       1.343   3.515  20.803  0.00  0.00    +0.000 C 
ATOM      8  F   UNL     1       1.904   4.471  21.610  0.00  0.00    +0.000 F 
ATOM      9  F   UNL     1       0.230   4.112  20.304  0.00  0.00    +0.000 F 
ATOM     10  F   UNL     1       0.952   2.533  21.655  0.00  0.00    +0.000 F 
ENDBRANCH   5   7
BRANCH   6  11
ATOM     11  C   UNL     1       2.046   5.149  18.363  0.00  0.00    +0.000 C 
ATOM     12  O   UNL     1       1.164   5.219  17.518  0.00  0.00    +0.000 OA
ATOM     13  N   UNL     1       2.547   6.223  19.079  0.00  0.00    +0.000 N 
ATOM     14  H   UNL     1       3.253   6.042  19.790  0.00  0.00    +0.000 HD
BRANCH  13  15
ATOM     15  C   UNL     1       2.183   7.587  18.963  0.00  0.00    +0.000 A 
ATOM     16  C   UNL     1       2.476   8.395  17.861  0.00  0.00    +0.000 A 
ATOM     17  C   UNL     1       2.091   9.740  17.850  0.00  0.00    +0.000 A 
ATOM     18  C   UNL     1       1.412  10.280  18.939  0.00  0.00    +0.000 A 
ATOM     19  F   UNL     1       1.053  11.568  18.923  0.00  0.00    +0.000 F 
ATOM     20  C   UNL     1       1.104   9.498  20.041  0.00  0.00    +0.000 A 
ATOM     21  C   UNL     1       1.494   8.162  20.043  0.00  0.00    +0.000 A 
ATOM     22  F   UNL     1       1.196   7.404  21.111  0.00  0.00    +0.000 F 
ENDBRANCH  13  15
ENDBRANCH   6  11
BRANCH   1  23
ATOM     23  O   UNL     1       4.117   4.046  16.714  0.00  0.00    +0.000 OA
BRANCH  23  29
ATOM     24  C   UNL     1       8.032   5.694  19.290  0.00  0.00    +0.000 C 
ATOM     25  C   UNL     1       7.004   5.861  18.212  0.00  0.00    +0.000 A 
ATOM     26  C   UNL     1       6.956   7.021  17.432  0.00  0.00    +0.000 A 
ATOM     27  C   UNL     1       5.979   7.168  16.445  0.00  0.00    +0.000 A 
ATOM     28  C   UNL     1       5.048   6.152  16.222  0.00  0.00    +0.000 A 
ATOM     29  C   UNL     1       5.098   4.980  16.976  0.00  0.00    +0.000 A 
ATOM     30  C   UNL     1       6.059   4.848  17.986  0.00  0.00    +0.000 A 
ENDBRANCH  23  29
ENDBRANCH   1  23
TORSDOF 5
ENDMDL
MODEL 4
REMARK VINA RESULT:      -9.0      1.114      1.704
REMARK  Name = 
REMARK  6 active torsions:
REMARK  status: ('A' for Active; 'I' for Inactive)
REMARK    1  A    between atoms: C_1  and  C_2
REMARK    2  A    between atoms: C_6  and  O_7
REMARK    3  A    between atoms: O_7  and  C_8
REMARK    4  A    between atoms: C_12  and  C_13
REMARK    5  A    between atoms: C_17  and  C_18
REMARK    6  A    between atoms: N_20  and  C_21
REMARK                            x       y       z     vdW  Elec       q    Type
REMARK                         _______ _______ _______ _____ _____    ______ ____
ROOT
ATOM      1  C   UNL     1       4.530   4.256  19.208  0.00  0.00    +0.000 A 
ATOM      2  N   UNL     1       5.254   3.141  19.490  0.00  0.00    +0.000 NA
ATOM      3  C   UNL     1       4.637   2.136  20.128  0.00  0.00    +0.000 A 
ATOM      4  C   UNL     1       3.308   2.189  20.494  0.00  0.00    +0.000 A 
ATOM      5  C   UNL     1       2.539   3.320  20.155  0.00  0.00    +0.000 A 
ATOM      6  C   UNL     1       3.159   4.376  19.450  0.00  0.00    +0.000 A 
ENDROOT
BRANCH   5   7
ATOM      7  C   UNL     1       1.085   3.333  20.565  0.00  0.00    +0.000 C 
ATOM      8  F   UNL     1       0.879   2.619  21.717  0.00  0.00    +0.000 F 
ATOM      9  F   UNL     1       0.604   4.571  20.852  0.00  0.00    +0.000 F 
ATOM     10  F   UNL     1       0.260   2.759  19.653  0.00  0.00    +0.000 F 
ENDBRANCH   5   7
BRANCH   6  11
ATOM     11  C   UNL     1       2.377   5.570  19.002  0.00  0.00    +0.000 C 
ATOM     12  O   UNL     1       1.668   5.454  18.011  0.00  0.00    +0.000 OA
ATOM     13  N   UNL     1       2.548   6.740  19.722  0.00  0.00    +0.000 N 
ATOM     14  H   UNL     1       3.130   6.712  20.557  0.00  0.00    +0.000 HD
BRANCH  13  15
ATOM     15  C   UNL     1       1.989   8.014  19.452  0.00  0.00    +0.000 A 
ATOM     16  C   UNL     1       1.095   8.681  20.294  0.00  0.00    +0.000 A 
ATOM     17  C   UNL     1       0.580   9.930  19.928  0.00  0.00    +0.000 A 
ATOM     18  C   UNL     1       0.959  10.514  18.722  0.00  0.00    +0.000 A 
ATOM     19  F   UNL     1       0.458  11.705  18.377  0.00  0.00    +0.000 F 
ATOM     20  C   UNL     1       1.850   9.875  17.873  0.00  0.00    +0.000 A 
ATOM     21  C   UNL     1       2.354   8.632  18.246  0.00  0.00    +0.000 A 
ATOM     22  F   UNL     1       3.216   8.013  17.423  0.00  0.00    +0.000 F 
ENDBRANCH  13  15
ENDBRANCH   6  11
BRANCH   1  23
ATOM     23  O   UNL     1       5.210   5.319  18.632  0.00  0.00    +0.000 OA
BRANCH  23  29
ATOM     24  C   UNL     1       4.936   3.988  13.853  0.00  0.00    +0.000 C 
ATOM     25  C   UNL     1       5.711   4.485  15.037  0.00  0.00    +0.000 A 
ATOM     26  C   UNL     1       7.080   4.756  14.942  0.00  0.00    +0.000 A 
ATOM     27  C   UNL     1       7.790   5.201  16.059  0.00  0.00    +0.000 A 
ATOM     28  C   UNL     1       7.136   5.388  17.278  0.00  0.00    +0.000 A 
ATOM     29  C   UNL     1       5.767   5.144  17.382  0.00  0.00    +0.000 A 
ATOM     30  C   UNL     1       5.063   4.668  16.268  0.00  0.00    +0.000 A 
ENDBRANCH  23  29
ENDBRANCH   1  23
TORSDOF 5
ENDMDL
MODEL 5
REMARK VINA RESULT:      -8.9      1.341      1.933
REMARK  Name = 
REMARK  6 active torsions:
REMARK  status: ('A' for Active; 'I' for Inactive)
REMARK    1  A    between atoms: C_1  and  C_2
REMARK    2  A    between atoms: C_6  and  O_7
REMARK    3  A    between atoms: O_7  and  C_8
REMARK    4  A    between atoms: C_12  and  C_13
REMARK    5  A    between atoms: C_17  and  C_18
REMARK    6  A    between atoms: N_20  and  C_21
REMARK                            x       y       z     vdW  Elec       q    Type
REMARK                         _______ _______ _______ _____ _____    ______ ____
ROOT
ATOM      1  C   UNL     1       3.444   3.228  17.648  0.00  0.00    +0.000 A 
ATOM      2  N   UNL     1       3.962   1.977  17.762  0.00  0.00    +0.000 NA
ATOM      3  C   UNL     1       3.781   1.327  18.921  0.00  0.00    +0.000 A 
ATOM      4  C   UNL     1       3.089   1.871  19.982  0.00  0.00    +0.000 A 
ATOM      5  C   UNL     1       2.502   3.146  19.848  0.00  0.00    +0.000 A 
ATOM      6  C   UNL     1       2.648   3.835  18.623  0.00  0.00    +0.000 A 
ENDROOT
BRANCH   5   7
ATOM      7  C   UNL     1       1.744   3.702  21.031  0.00  0.00    +0.000 C 
ATOM      8  F   UNL     1       0.543   4.243  20.651  0.00  0.00    +0.000 F 
ATOM      9  F   UNL     1       1.409   2.768  21.959  0.00  0.00    +0.000 F 
ATOM     10  F   UNL     1       2.393   4.714  21.662  0.00  0.00    +0.000 F 
ENDBRANCH   5   7
BRANCH   6  11
ATOM     11  C   UNL     1       1.991   5.159  18.398  0.00  0.00    +0.000 C 
ATOM     12  O   UNL     1       1.043   5.206  17.626  0.00  0.00    +0.000 OA
ATOM     13  N   UNL     1       2.534   6.251  19.053  0.00  0.00    +0.000 N 
ATOM     14  H   UNL     1       3.296   6.090  19.709  0.00  0.00    +0.000 HD
BRANCH  13  15
ATOM     15  C   UNL     1       2.146   7.609  18.943  0.00  0.00    +0.000 A 
ATOM     16  C   UNL     1       2.398   8.418  17.832  0.00  0.00    +0.000 A 
ATOM     17  C   UNL     1       1.993   9.757  17.828  0.00  0.00    +0.000 A 
ATOM     18  C   UNL     1       1.332  10.290  18.933  0.00  0.00    +0.000 A 
ATOM     19  F   UNL     1       0.954  11.572  18.923  0.00  0.00    +0.000 F 
ATOM     20  C   UNL     1       1.065   9.506  20.045  0.00  0.00    +0.000 A 
ATOM     21  C   UNL     1       1.475   8.176  20.039  0.00  0.00    +0.000 A 
ATOM     22  F   UNL     1       1.216   7.417  21.116  0.00  0.00    +0.000 F 
ENDBRANCH  13  15
ENDBRANCH   6  11
BRANCH   1  23
ATOM     23  O   UNL     1       3.722   3.920  16.477  0.00  0.00    +0.000 OA
BRANCH  23  29
ATOM     24  C   UNL     1       7.521   6.784  17.908  0.00  0.00    +0.000 C 
ATOM     25  C   UNL     1       6.879   5.842  16.934  0.00  0.00    +0.000 A 
ATOM     26  C   UNL     1       7.529   5.472  15.751  0.00  0.00    +0.000 A 
ATOM     27  C   UNL     1       6.909   4.608  14.846  0.00  0.00    +0.000 A 
ATOM     28  C   UNL     1       5.638   4.098  15.120  0.00  0.00    +0.000 A 
ATOM     29  C   UNL     1       4.989   4.440  16.306  0.00  0.00    +0.000 A 
ATOM     30  C   UNL     1       5.599   5.331  17.198  0.00  0.00    +0.000 A 
ENDBRANCH  23  29
ENDBRANCH   1  23
TORSDOF 5
ENDMDL
MODEL 6
REMARK VINA RESULT:      -8.8      1.726      2.519
REMARK  Name = 
REMARK  6 active torsions:
REMARK  status: ('A' for Active; 'I' for Inactive)
REMARK    1  A    between atoms: C_1  and  C_2
REMARK    2  A    between atoms: C_6  and  O_7
REMARK    3  A    between atoms: O_7  and  C_8
REMARK    4  A    between atoms: C_12  and  C_13
REMARK    5  A    between atoms: C_17  and  C_18
REMARK    6  A    between atoms: N_20  and  C_21
REMARK                            x       y       z     vdW  Elec       q    Type
REMARK                         _______ _______ _______ _____ _____    ______ ____
ROOT
ATOM      1  C   UNL     1       3.672   4.256  17.573  0.00  0.00    +0.000 A 
ATOM      2  N   UNL     1       3.625   2.982  17.104  0.00  0.00    +0.000 NA
ATOM      3  C   UNL     1       2.956   2.072  17.827  0.00  0.00    +0.000 A 
ATOM      4  C   UNL     1       2.313   2.382  19.007  0.00  0.00    +0.000 A 
ATOM      5  C   UNL     1       2.312   3.715  19.467  0.00  0.00    +0.000 A 
ATOM      6  C   UNL     1       2.980   4.697  18.704  0.00  0.00    +0.000 A 
ENDROOT
BRANCH   5   7
ATOM      7  C   UNL     1       1.587   4.014  20.759  0.00  0.00    +0.000 C 
ATOM      8  F   UNL     1       1.055   2.879  21.313  0.00  0.00    +0.000 F 
ATOM      9  F   UNL     1       2.385   4.519  21.735  0.00  0.00    +0.000 F 
ATOM     10  F   UNL     1       0.528   4.849  20.603  0.00  0.00    +0.000 F 
ENDBRANCH   5   7
BRANCH   6  11
ATOM     11  C   UNL     1       2.955   6.138  19.105  0.00  0.00    +0.000 C 
ATOM     12  O   UNL     1       3.740   6.508  19.967  0.00  0.00    +0.000 OA
ATOM     13  N   UNL     1       2.008   6.944  18.496  0.00  0.00    +0.000 N 
ATOM     14  H   UNL     1       1.434   6.541  17.759  0.00  0.00    +0.000 HD
BRANCH  13  15
ATOM     15  C   UNL     1       1.732   8.309  18.760  0.00  0.00    +0.000 A 
ATOM     16  C   UNL     1       1.961   9.353  17.860  0.00  0.00    +0.000 A 
ATOM     17  C   UNL     1       1.675  10.673  18.223  0.00  0.00    +0.000 A 
ATOM     18  C   UNL     1       1.158  10.953  19.486  0.00  0.00    +0.000 A 
ATOM     19  F   UNL     1       0.893  12.218  19.827  0.00  0.00    +0.000 F 
ATOM     20  C   UNL     1       0.915   9.934  20.394  0.00  0.00    +0.000 A 
ATOM     21  C   UNL     1       1.206   8.624  20.023  0.00  0.00    +0.000 A 
ATOM     22  F   UNL     1       0.972   7.638  20.904  0.00  0.00    +0.000 F 
ENDBRANCH  13  15
ENDBRANCH   6  11
BRANCH   1  23
ATOM     23  O   UNL     1       4.448   5.160  16.861  0.00  0.00    +0.000 OA
BRANCH  23  29
ATOM     24  C   UNL     1       7.864   8.686  17.630  0.00  0.00    +0.000 C 
ATOM     25  C   UNL     1       7.338   7.297  17.839  0.00  0.00    +0.000 A 
ATOM     26  C   UNL     1       8.043   6.365  18.607  0.00  0.00    +0.000 A 
ATOM     27  C   UNL     1       7.549   5.070  18.776  0.00  0.00    +0.000 A 
ATOM     28  C   UNL     1       6.339   4.699  18.187  0.00  0.00    +0.000 A 
ATOM     29  C   UNL     1       5.613   5.624  17.437  0.00  0.00    +0.000 A 
ATOM     30  C   UNL     1       6.127   6.913  17.243  0.00  0.00    +0.000 A 
ENDBRANCH  23  29
ENDBRANCH   1  23
TORSDOF 5
ENDMDL
MODEL 7
REMARK VINA RESULT:      -8.7      1.649      2.379
REMARK  Name = 
REMARK  6 active torsions:
REMARK  status: ('A' for Active; 'I' for Inactive)
REMARK    1  A    between atoms: C_1  and  C_2
REMARK    2  A    between atoms: C_6  and  O_7
REMARK    3  A    between atoms: O_7  and  C_8
REMARK    4  A    between atoms: C_12  and  C_13
REMARK    5  A    between atoms: C_17  and  C_18
REMARK    6  A    between atoms: N_20  and  C_21
REMARK                            x       y       z     vdW  Elec       q    Type
REMARK                         _______ _______ _______ _____ _____    ______ ____
ROOT
ATOM      1  C   UNL     1       3.407   3.231  17.618  0.00  0.00    +0.000 A 
ATOM      2  N   UNL     1       3.907   1.971  17.709  0.00  0.00    +0.000 NA
ATOM      3  C   UNL     1       3.722   1.304  18.857  0.00  0.00    +0.000 A 
ATOM      4  C   UNL     1       3.043   1.840  19.931  0.00  0.00    +0.000 A 
ATOM      5  C   UNL     1       2.474   3.125  19.821  0.00  0.00    +0.000 A 
ATOM      6  C   UNL     1       2.624   3.833  18.608  0.00  0.00    +0.000 A 
ENDROOT
BRANCH   5   7
ATOM      7  C   UNL     1       1.729   3.671  21.017  0.00  0.00    +0.000 C 
ATOM      8  F   UNL     1       1.475   2.693  21.943  0.00  0.00    +0.000 F 
ATOM      9  F   UNL     1       2.416   4.615  21.711  0.00  0.00    +0.000 F 
ATOM     10  F   UNL     1       0.508   4.177  20.708  0.00  0.00    +0.000 F 
ENDBRANCH   5   7
BRANCH   6  11
ATOM     11  C   UNL     1       1.985   5.170  18.408  0.00  0.00    +0.000 C 
ATOM     12  O   UNL     1       1.075   5.256  17.595  0.00  0.00    +0.000 OA
ATOM     13  N   UNL     1       2.503   6.229  19.134  0.00  0.00    +0.000 N 
ATOM     14  H   UNL     1       3.233   6.036  19.816  0.00  0.00    +0.000 HD
BRANCH  13  15
ATOM     15  C   UNL     1       2.128   7.594  19.063  0.00  0.00    +0.000 A 
ATOM     16  C   UNL     1       1.350   8.253  20.018  0.00  0.00    +0.000 A 
ATOM     17  C   UNL     1       1.015   9.601  19.847  0.00  0.00    +0.000 A 
ATOM     18  C   UNL     1       1.458  10.293  18.722  0.00  0.00    +0.000 A 
ATOM     19  F   UNL     1       1.128  11.579  18.563  0.00  0.00    +0.000 F 
ATOM     20  C   UNL     1       2.237   9.663  17.764  0.00  0.00    +0.000 A 
ATOM     21  C   UNL     1       2.563   8.321  17.943  0.00  0.00    +0.000 A 
ATOM     22  F   UNL     1       3.317   7.711  17.014  0.00  0.00    +0.000 F 
ENDBRANCH  13  15
ENDBRANCH   6  11
BRANCH   1  23
ATOM     23  O   UNL     1       3.689   3.939  16.458  0.00  0.00    +0.000 OA
BRANCH  23  29
ATOM     24  C   UNL     1       7.560   6.611  18.059  0.00  0.00    +0.000 C 
ATOM     25  C   UNL     1       6.879   5.781  17.012  0.00  0.00    +0.000 A 
ATOM     26  C   UNL     1       7.487   5.534  15.777  0.00  0.00    +0.000 A 
ATOM     27  C   UNL     1       6.830   4.775  14.806  0.00  0.00    +0.000 A 
ATOM     28  C   UNL     1       5.564   4.247  15.066  0.00  0.00    +0.000 A 
ATOM     29  C   UNL     1       4.955   4.466  16.302  0.00  0.00    +0.000 A 
ATOM     30  C   UNL     1       5.603   5.253  17.262  0.00  0.00    +0.000 A 
ENDBRANCH  23  29
ENDBRANCH   1  23
TORSDOF 5
ENDMDL
MODEL 8
REMARK VINA RESULT:      -8.6      1.585      2.356
REMARK  Name = 
REMARK  6 active torsions:
REMARK  status: ('A' for Active; 'I' for Inactive)
REMARK    1  A    between atoms: C_1  and  C_2
REMARK    2  A    between atoms: C_6  and  O_7
REMARK    3  A    between atoms: O_7  and  C_8
REMARK    4  A    between atoms: C_12  and  C_13
REMARK    5  A    between atoms: C_17  and  C_18
REMARK    6  A    between atoms: N_20  and  C_21
REMARK                            x       y       z     vdW  Elec       q    Type
REMARK                         _______ _______ _______ _____ _____    ______ ____
ROOT
ATOM      1  C   UNL     1       4.026   3.923  17.542  0.00  0.00    +0.000 A 
ATOM      2  N   UNL     1       4.668   2.728  17.462  0.00  0.00    +0.000 NA
ATOM      3  C   UNL     1       4.160   1.696  18.151  0.00  0.00    +0.000 A 
ATOM      4  C   UNL     1       3.019   1.800  18.918  0.00  0.00    +0.000 A 
ATOM      5  C   UNL     1       2.318   3.022  18.958  0.00  0.00    +0.000 A 
ATOM      6  C   UNL     1       2.815   4.114  18.212  0.00  0.00    +0.000 A 
ENDROOT
BRANCH   5   7
ATOM      7  C   UNL     1       1.067   3.091  19.802  0.00  0.00    +0.000 C 
ATOM      8  F   UNL     1       1.151   2.269  20.896  0.00  0.00    +0.000 F 
ATOM      9  F   UNL     1       0.822   4.319  20.327  0.00  0.00    +0.000 F 
ATOM     10  F   UNL     1      -0.049   2.679  19.149  0.00  0.00    +0.000 F 
ENDBRANCH   5   7
BRANCH   6  11
ATOM     11  C   UNL     1       2.078   5.415  18.161  0.00  0.00    +0.000 C 
ATOM     12  O   UNL     1       1.083   5.484  17.451  0.00  0.00    +0.000 OA
ATOM     13  N   UNL     1       2.604   6.465  18.894  0.00  0.00    +0.000 N 
ATOM     14  H   UNL     1       3.412   6.283  19.485  0.00  0.00    +0.000 HD
BRANCH  13  15
ATOM     15  C   UNL     1       2.142   7.803  18.946  0.00  0.00    +0.000 A 
ATOM     16  C   UNL     1       2.290   8.734  17.915  0.00  0.00    +0.000 A 
ATOM     17  C   UNL     1       1.817  10.042  18.070  0.00  0.00    +0.000 A 
ATOM     18  C   UNL     1       1.192  10.420  19.256  0.00  0.00    +0.000 A 
ATOM     19  F   UNL     1       0.748  11.674  19.399  0.00  0.00    +0.000 F 
ATOM     20  C   UNL     1       1.027   9.513  20.291  0.00  0.00    +0.000 A 
ATOM     21  C   UNL     1       1.504   8.216  20.126  0.00  0.00    +0.000 A 
ATOM     22  F   UNL     1       1.343   7.338  21.129  0.00  0.00    +0.000 F 
ENDBRANCH  13  15
ENDBRANCH   6  11
BRANCH   1  23
ATOM     23  O   UNL     1       4.619   5.000  16.899  0.00  0.00    +0.000 OA
BRANCH  23  29
ATOM     24  C   UNL     1       7.784   8.786  17.488  0.00  0.00    +0.000 C 
ATOM     25  C   UNL     1       7.328   7.392  17.803  0.00  0.00    +0.000 A 
ATOM     26  C   UNL     1       8.047   6.579  18.686  0.00  0.00    +0.000 A 
ATOM     27  C   UNL     1       7.619   5.277  18.953  0.00  0.00    +0.000 A 
ATOM     28  C   UNL     1       6.464   4.779  18.347  0.00  0.00    +0.000 A 
ATOM     29  C   UNL     1       5.725   5.586  17.482  0.00  0.00    +0.000 A 
ATOM     30  C   UNL     1       6.173   6.881  17.191  0.00  0.00    +0.000 A 
ENDBRANCH  23  29
ENDBRANCH   1  23
TORSDOF 5
ENDMDL
MODEL 9
REMARK VINA RESULT:      -8.5      1.864      2.792
REMARK  Name = 
REMARK  6 active torsions:
REMARK  status: ('A' for Active; 'I' for Inactive)
REMARK    1  A    between atoms: C_1  and  C_2
REMARK    2  A    between atoms: C_6  and  O_7
REMARK    3  A    between atoms: O_7  and  C_8
REMARK    4  A    between atoms: C_12  and  C_13
REMARK    5  A    between atoms: C_17  and  C_18
REMARK    6  A    between atoms: N_20  and  C_21
REMARK                            x       y       z     vdW  Elec       q    Type
REMARK                         _______ _______ _______ _____ _____    ______ ____
ROOT
ATOM      1  C   UNL     1       3.444   4.322  17.503  0.00  0.00    +0.000 A 
ATOM      2  N   UNL     1       3.370   3.097  16.921  0.00  0.00    +0.000 NA
ATOM      3  C   UNL     1       2.732   2.123  17.587  0.00  0.00    +0.000 A 
ATOM      4  C   UNL     1       2.147   2.321  18.819  0.00  0.00    +0.000 A 
ATOM      5  C   UNL     1       2.173   3.604  19.402  0.00  0.00    +0.000 A 
ATOM      6  C   UNL     1       2.808   4.655  18.702  0.00  0.00    +0.000 A 
ENDROOT
BRANCH   5   7
ATOM      7  C   UNL     1       1.512   3.781  20.749  0.00  0.00    +0.000 C 
ATOM      8  F   UNL     1       0.886   2.632  21.158  0.00  0.00    +0.000 F 
ATOM      9  F   UNL     1       2.378   4.065  21.756  0.00  0.00    +0.000 F 
ATOM     10  F   UNL     1       0.535   4.724  20.752  0.00  0.00    +0.000 F 
ENDBRANCH   5   7
BRANCH   6  11
ATOM     11  C   UNL     1       2.807   6.052  19.237  0.00  0.00    +0.000 C 
ATOM     12  O   UNL     1       3.639   6.341  20.087  0.00  0.00    +0.000 OA
ATOM     13  N   UNL     1       1.831   6.908  18.758  0.00  0.00    +0.000 N 
ATOM     14  H   UNL     1       1.218   6.575  18.017  0.00  0.00    +0.000 HD
BRANCH  13  15
ATOM     15  C   UNL     1       1.574   8.242  19.162  0.00  0.00    +0.000 A 
ATOM     16  C   UNL     1       1.089   8.609  20.420  0.00  0.00    +0.000 A 
ATOM     17  C   UNL     1       0.846   9.955  20.717  0.00  0.00    +0.000 A 
ATOM     18  C   UNL     1       1.089  10.935  19.759  0.00  0.00    +0.000 A 
ATOM     19  F   UNL     1       0.847  12.218  20.049  0.00  0.00    +0.000 F 
ATOM     20  C   UNL     1       1.576  10.597  18.505  0.00  0.00    +0.000 A 
ATOM     21  C   UNL     1       1.812   9.255  18.220  0.00  0.00    +0.000 A 
ATOM     22  F   UNL     1       2.283   8.928  17.006  0.00  0.00    +0.000 F 
ENDBRANCH  13  15
ENDBRANCH   6  11
BRANCH   1  23
ATOM     23  O   UNL     1       4.188   5.289  16.842  0.00  0.00    +0.000 OA
BRANCH  23  29
ATOM     24  C   UNL     1       7.854   8.548  17.633  0.00  0.00    +0.000 C 
ATOM     25  C   UNL     1       7.266   7.175  17.762  0.00  0.00    +0.000 A 
ATOM     26  C   UNL     1       7.974   6.140  18.382  0.00  0.00    +0.000 A 
ATOM     27  C   UNL     1       7.420   4.862  18.476  0.00  0.00    +0.000 A 
ATOM     28  C   UNL     1       6.147   4.609  17.959  0.00  0.00    +0.000 A 
ATOM     29  C   UNL     1       5.420   5.637  17.358  0.00  0.00    +0.000 A 
ATOM     30  C   UNL     1       5.991   6.910  17.238  0.00  0.00    +0.000 A 
ENDBRANCH  23  29
ENDBRANCH   1  23
TORSDOF 5
ENDMDL
