MODEL 1
REMARK VINA RESULT:      -7.2      0.000      0.000
REMARK  Name = 
REMARK  9 active torsions:
REMARK  status: ('A' for Active; 'I' for Inactive)
REMARK    1  A    between atoms: C_1  and  C_2
REMARK    2  A    between atoms: C_2  and  C_3
REMARK    3  A    between atoms: C_2  and  N_4
REMARK    4  A    between atoms: N_4  and  C_5
REMARK    5  A    between atoms: C_5  and  C_6
REMARK    6  A    between atoms: C_6  and  O_7
REMARK    7  A    between atoms: C_6  and  C_8
REMARK    8  A    between atoms: C_8  and  O_9
REMARK    9  A    between atoms: O_9  and  C_10
REMARK                            x       y       z     vdW  Elec       q    Type
REMARK                         _______ _______ _______ _____ _____    ______ ____
ROOT
ATOM      1  O   UNL     1       5.184   4.442  16.295  0.00  0.00    +0.000 OA
ENDROOT
BRANCH   1   2
ATOM      2  C   UNL     1       4.293   5.102  17.103  0.00  0.00    +0.000 A 
ATOM      3  C   UNL     1       4.263   6.491  17.266  0.00  0.00    +0.000 A 
ATOM      4  C   UNL     1       3.306   7.086  18.083  0.00  0.00    +0.000 A 
ATOM      5  C   UNL     1       2.360   6.303  18.736  0.00  0.00    +0.000 A 
ATOM      6  C   UNL     1       2.366   4.911  18.583  0.00  0.00    +0.000 A 
ATOM      7  C   UNL     1       3.359   4.296  17.788  0.00  0.00    +0.000 A 
ATOM      8  C   UNL     1       3.375   2.791  17.602  0.00  0.00    +0.000 C 
ATOM      9  C   UNL     1       2.610   2.024  18.669  0.00  0.00    +0.000 C 
ATOM     10  C   UNL     1       1.266   2.669  18.864  0.00  0.00    +0.000 C 
ATOM     11  O   UNL     1       0.218   2.029  18.786  0.00  0.00    +0.000 OA
ATOM     12  C   UNL     1       1.296   4.115  19.291  0.00  0.00    +0.000 C 
ENDBRANCH   1   2
BRANCH   1  13
ATOM     13  C   UNL     1       5.505   5.052  15.036  0.00  0.00    +0.000 C 
BRANCH  13  14
ATOM     14  C   UNL     1       6.859   4.516  14.549  0.00  0.00    +0.000 C 
BRANCH  14  15
ATOM     15  O   UNL     1       7.819   5.581  14.496  0.00  0.00    +0.000 OA
ATOM     16  H   UNL     1       8.510   5.356  15.146  0.00  0.00    +0.000 HD
ENDBRANCH  14  15
BRANCH  14  17
ATOM     17  C   UNL     1       6.719   3.875  13.157  0.00  0.00    +0.000 C 
BRANCH  17  18
ATOM     18  N   UNL     1       5.306   3.711  12.797  0.00  0.00    +0.000 NA
ATOM     19  H   UNL     1       4.869   3.098  13.494  0.00  0.00    +0.000 HD
BRANCH  18  21
ATOM     20  C   UNL     1       5.712   1.754  11.405  0.00  0.00    +0.000 C 
ATOM     21  C   UNL     1       5.119   3.163  11.448  0.00  0.00    +0.000 C 
ATOM     22  C   UNL     1       3.640   3.106  11.058  0.00  0.00    +0.000 C 
ENDBRANCH  18  21
ENDBRANCH  17  18
ENDBRANCH  14  17
ENDBRANCH  13  14
ENDBRANCH   1  13
TORSDOF 7
ENDMDL
MODEL 2
REMARK VINA RESULT:      -7.1      0.982      1.227
REMARK  Name = 
REMARK  9 active torsions:
REMARK  status: ('A' for Active; 'I' for Inactive)
REMARK    1  A    between atoms: C_1  and  C_2
REMARK    2  A    between atoms: C_2  and  C_3
REMARK    3  A    between atoms: C_2  and  N_4
REMARK    4  A    between atoms: N_4  and  C_5
REMARK    5  A    between atoms: C_5  and  C_6
REMARK    6  A    between atoms: C_6  and  O_7
REMARK    7  A    between atoms: C_6  and  C_8
REMARK    8  A    between atoms: C_8  and  O_9
REMARK    9  A    between atoms: O_9  and  C_10
REMARK                            x       y       z     vdW  Elec       q    Type
REMARK                         _______ _______ _______ _____ _____    ______ ____
ROOT
ATOM      1  O   UNL     1       4.918   4.675  16.014  0.00  0.00    +0.000 OA
ENDROOT
BRANCH   1   2
ATOM      2  C   UNL     1       4.142   5.275  16.975  0.00  0.00    +0.000 A 
ATOM      3  C   UNL     1       4.177   6.641  17.270  0.00  0.00    +0.000 A 
ATOM      4  C   UNL     1       3.336   7.177  18.242  0.00  0.00    +0.000 A 
ATOM      5  C   UNL     1       2.441   6.356  18.919  0.00  0.00    +0.000 A 
ATOM      6  C   UNL     1       2.382   4.986  18.635  0.00  0.00    +0.000 A 
ATOM      7  C   UNL     1       3.261   4.428  17.681  0.00  0.00    +0.000 A 
ATOM      8  C   UNL     1       3.206   2.949  17.353  0.00  0.00    +0.000 C 
ATOM      9  C   UNL     1       2.535   2.099  18.422  0.00  0.00    +0.000 C 
ATOM     10  C   UNL     1       1.243   2.753  18.825  0.00  0.00    +0.000 C 
ATOM     11  O   UNL     1       0.172   2.149  18.805  0.00  0.00    +0.000 OA
ATOM     12  C   UNL     1       1.368   4.150  19.380  0.00  0.00    +0.000 C 
ENDBRANCH   1   2
BRANCH   1  13
ATOM     13  C   UNL     1       6.153   4.084  16.444  0.00  0.00    +0.000 C 
BRANCH  13  14
ATOM     14  C   UNL     1       7.318   4.779  15.725  0.00  0.00    +0.000 C 
BRANCH  14  15
ATOM     15  O   UNL     1       7.464   6.121  16.208  0.00  0.00    +0.000 OA
ATOM     16  H   UNL     1       8.269   6.476  15.787  0.00  0.00    +0.000 HD
ENDBRANCH  14  15
BRANCH  14  17
ATOM     17  C   UNL     1       7.083   4.798  14.204  0.00  0.00    +0.000 C 
BRANCH  17  18
ATOM     18  N   UNL     1       6.335   3.611  13.776  0.00  0.00    +0.000 NA
ATOM     19  H   UNL     1       6.873   2.781  14.046  0.00  0.00    +0.000 HD
BRANCH  18  21
ATOM     20  C   UNL     1       7.228   4.270  11.609  0.00  0.00    +0.000 C 
ATOM     21  C   UNL     1       6.063   3.595  12.334  0.00  0.00    +0.000 C 
ATOM     22  C   UNL     1       5.889   2.170  11.804  0.00  0.00    +0.000 C 
ENDBRANCH  18  21
ENDBRANCH  17  18
ENDBRANCH  14  17
ENDBRANCH  13  14
ENDBRANCH   1  13
TORSDOF 7
ENDMDL
MODEL 3
REMARK VINA RESULT:      -7.1      3.489      6.171
REMARK  Name = 
REMARK  9 active torsions:
REMARK  status: ('A' for Active; 'I' for Inactive)
REMARK    1  A    between atoms: C_1  and  C_2
REMARK    2  A    between atoms: C_2  and  C_3
REMARK    3  A    between atoms: C_2  and  N_4
REMARK    4  A    between atoms: N_4  and  C_5
REMARK    5  A    between atoms: C_5  and  C_6
REMARK    6  A    between atoms: C_6  and  O_7
REMARK    7  A    between atoms: C_6  and  C_8
REMARK    8  A    between atoms: C_8  and  O_9
REMARK    9  A    between atoms: O_9  and  C_10
REMARK                            x       y       z     vdW  Elec       q    Type
REMARK                         _______ _______ _______ _____ _____    ______ ____
ROOT
ATOM      1  O   UNL     1       3.364   4.746  20.361  0.00  0.00    +0.000 OA
ENDROOT
BRANCH   1   2
ATOM      2  C   UNL     1       3.283   5.758  19.438  0.00  0.00    +0.000 A 
ATOM      3  C   UNL     1       2.341   6.791  19.487  0.00  0.00    +0.000 A 
ATOM      4  C   UNL     1       2.344   7.797  18.525  0.00  0.00    +0.000 A 
ATOM      5  C   UNL     1       3.297   7.791  17.512  0.00  0.00    +0.000 A 
ATOM      6  C   UNL     1       4.255   6.772  17.446  0.00  0.00    +0.000 A 
ATOM      7  C   UNL     1       4.232   5.725  18.393  0.00  0.00    +0.000 A 
ATOM      8  C   UNL     1       5.267   4.618  18.344  0.00  0.00    +0.000 C 
ATOM      9  C   UNL     1       5.953   4.467  16.994  0.00  0.00    +0.000 C 
ATOM     10  C   UNL     1       6.388   5.824  16.515  0.00  0.00    +0.000 C 
ATOM     11  O   UNL     1       7.548   6.056  16.182  0.00  0.00    +0.000 OA
ATOM     12  C   UNL     1       5.283   6.835  16.341  0.00  0.00    +0.000 C 
ENDBRANCH   1   2
BRANCH   1  13
ATOM     13  C   UNL     1       2.418   4.765  21.439  0.00  0.00    +0.000 C 
BRANCH  13  14
ATOM     14  C   UNL     1       1.856   3.351  21.639  0.00  0.00    +0.000 C 
BRANCH  14  15
ATOM     15  O   UNL     1       2.924   2.429  21.899  0.00  0.00    +0.000 OA
ATOM     16  H   UNL     1       3.425   2.352  21.066  0.00  0.00    +0.000 HD
ENDBRANCH  14  15
BRANCH  14  17
ATOM     17  C   UNL     1       1.072   2.897  20.394  0.00  0.00    +0.000 C 
BRANCH  17  18
ATOM     18  N   UNL     1       1.827   1.888  19.641  0.00  0.00    +0.000 NA
ATOM     19  H   UNL     1       2.787   1.874  20.002  0.00  0.00    +0.000 HD
BRANCH  18  21
ATOM     20  C   UNL     1       1.281   3.541  17.939  0.00  0.00    +0.000 C 
ATOM     21  C   UNL     1       1.828   2.136  18.195  0.00  0.00    +0.000 C 
ATOM     22  C   UNL     1       3.234   2.021  17.600  0.00  0.00    +0.000 C 
ENDBRANCH  18  21
ENDBRANCH  17  18
ENDBRANCH  14  17
ENDBRANCH  13  14
ENDBRANCH   1  13
TORSDOF 7
ENDMDL
MODEL 4
REMARK VINA RESULT:      -7.1      2.739      4.674
REMARK  Name = 
REMARK  9 active torsions:
REMARK  status: ('A' for Active; 'I' for Inactive)
REMARK    1  A    between atoms: C_1  and  C_2
REMARK    2  A    between atoms: C_2  and  C_3
REMARK    3  A    between atoms: C_2  and  N_4
REMARK    4  A    between atoms: N_4  and  C_5
REMARK    5  A    between atoms: C_5  and  C_6
REMARK    6  A    between atoms: C_6  and  O_7
REMARK    7  A    between atoms: C_6  and  C_8
REMARK    8  A    between atoms: C_8  and  O_9
REMARK    9  A    between atoms: O_9  and  C_10
REMARK                            x       y       z     vdW  Elec       q    Type
REMARK                         _______ _______ _______ _____ _____    ______ ____
ROOT
ATOM      1  O   UNL     1       5.044   4.290  17.523  0.00  0.00    +0.000 OA
ENDROOT
BRANCH   1   2
ATOM      2  C   UNL     1       4.069   3.947  18.426  0.00  0.00    +0.000 A 
ATOM      3  C   UNL     1       3.847   2.644  18.883  0.00  0.00    +0.000 A 
ATOM      4  C   UNL     1       2.853   2.384  19.822  0.00  0.00    +0.000 A 
ATOM      5  C   UNL     1       2.080   3.424  20.326  0.00  0.00    +0.000 A 
ATOM      6  C   UNL     1       2.287   4.738  19.889  0.00  0.00    +0.000 A 
ATOM      7  C   UNL     1       3.265   5.004  18.905  0.00  0.00    +0.000 A 
ATOM      8  C   UNL     1       3.511   6.421  18.426  0.00  0.00    +0.000 C 
ATOM      9  C   UNL     1       2.360   7.378  18.695  0.00  0.00    +0.000 C 
ATOM     10  C   UNL     1       1.911   7.212  20.119  0.00  0.00    +0.000 C 
ATOM     11  O   UNL     1       1.831   8.165  20.893  0.00  0.00    +0.000 OA
ATOM     12  C   UNL     1       1.437   5.830  20.494  0.00  0.00    +0.000 C 
ENDBRANCH   1   2
BRANCH   1  13
ATOM     13  C   UNL     1       4.816   3.945  16.149  0.00  0.00    +0.000 C 
BRANCH  13  14
ATOM     14  C   UNL     1       5.985   4.464  15.300  0.00  0.00    +0.000 C 
BRANCH  14  15
ATOM     15  O   UNL     1       6.398   3.459  14.364  0.00  0.00    +0.000 OA
ATOM     16  H   UNL     1       5.634   3.303  13.778  0.00  0.00    +0.000 HD
ENDBRANCH  14  15
BRANCH  14  17
ATOM     17  C   UNL     1       7.174   4.857  16.196  0.00  0.00    +0.000 C 
BRANCH  17  18
ATOM     18  N   UNL     1       7.355   6.313  16.215  0.00  0.00    +0.000 NA
ATOM     19  H   UNL     1       8.294   6.521  15.858  0.00  0.00    +0.000 HD
BRANCH  18  21
ATOM     20  C   UNL     1       7.749   5.927  18.586  0.00  0.00    +0.000 C 
ATOM     21  C   UNL     1       7.177   6.895  17.550  0.00  0.00    +0.000 C 
ATOM     22  C   UNL     1       7.876   8.251  17.677  0.00  0.00    +0.000 C 
ENDBRANCH  18  21
ENDBRANCH  17  18
ENDBRANCH  14  17
ENDBRANCH  13  14
ENDBRANCH   1  13
TORSDOF 7
ENDMDL
MODEL 5
REMARK VINA RESULT:      -7.1      1.052      1.452
REMARK  Name = 
REMARK  9 active torsions:
REMARK  status: ('A' for Active; 'I' for Inactive)
REMARK    1  A    between atoms: C_1  and  C_2
REMARK    2  A    between atoms: C_2  and  C_3
REMARK    3  A    between atoms: C_2  and  N_4
REMARK    4  A    between atoms: N_4  and  C_5
REMARK    5  A    between atoms: C_5  and  C_6
REMARK    6  A    between atoms: C_6  and  O_7
REMARK    7  A    between atoms: C_6  and  C_8
REMARK    8  A    between atoms: C_8  and  O_9
REMARK    9  A    between atoms: O_9  and  C_10
REMARK                            x       y       z     vdW  Elec       q    Type
REMARK                         _______ _______ _______ _____ _____    ______ ____
ROOT
ATOM      1  O   UNL     1       5.872   4.071  17.682  0.00  0.00    +0.000 OA
ENDROOT
BRANCH   1   2
ATOM      2  C   UNL     1       4.756   4.841  17.896  0.00  0.00    +0.000 A 
ATOM      3  C   UNL     1       4.713   6.226  17.711  0.00  0.00    +0.000 A 
ATOM      4  C   UNL     1       3.531   6.931  17.923  0.00  0.00    +0.000 A 
ATOM      5  C   UNL     1       2.377   6.258  18.307  0.00  0.00    +0.000 A 
ATOM      6  C   UNL     1       2.394   4.871  18.492  0.00  0.00    +0.000 A 
ATOM      7  C   UNL     1       3.598   4.154  18.320  0.00  0.00    +0.000 A 
ATOM      8  C   UNL     1       3.634   2.650  18.506  0.00  0.00    +0.000 C 
ATOM      9  C   UNL     1       2.480   2.096  19.328  0.00  0.00    +0.000 C 
ATOM     10  C   UNL     1       1.194   2.687  18.820  0.00  0.00    +0.000 C 
ATOM     11  O   UNL     1       0.242   1.984  18.484  0.00  0.00    +0.000 OA
ATOM     12  C   UNL     1       1.102   4.191  18.881  0.00  0.00    +0.000 C 
ENDBRANCH   1   2
BRANCH   1  13
ATOM     13  C   UNL     1       7.065   4.748  17.262  0.00  0.00    +0.000 C 
BRANCH  13  14
ATOM     14  C   UNL     1       7.289   4.490  15.765  0.00  0.00    +0.000 C 
BRANCH  14  15
ATOM     15  O   UNL     1       7.411   5.735  15.064  0.00  0.00    +0.000 OA
ATOM     16  H   UNL     1       7.366   6.435  15.743  0.00  0.00    +0.000 HD
ENDBRANCH  14  15
BRANCH  14  17
ATOM     17  C   UNL     1       6.123   3.676  15.175  0.00  0.00    +0.000 C 
BRANCH  17  18
ATOM     18  N   UNL     1       5.657   4.269  13.916  0.00  0.00    +0.000 NA
ATOM     19  H   UNL     1       4.644   4.411  13.988  0.00  0.00    +0.000 HD
BRANCH  18  21
ATOM     20  C   UNL     1       4.733   3.360  11.855  0.00  0.00    +0.000 C 
ATOM     21  C   UNL     1       5.975   3.445  12.744  0.00  0.00    +0.000 C 
ATOM     22  C   UNL     1       7.140   4.027  11.940  0.00  0.00    +0.000 C 
ENDBRANCH  18  21
ENDBRANCH  17  18
ENDBRANCH  14  17
ENDBRANCH  13  14
ENDBRANCH   1  13
TORSDOF 7
ENDMDL
MODEL 6
REMARK VINA RESULT:      -7.0      1.439      1.494
REMARK  Name = 
REMARK  9 active torsions:
REMARK  status: ('A' for Active; 'I' for Inactive)
REMARK    1  A    between atoms: C_1  and  C_2
REMARK    2  A    between atoms: C_2  and  C_3
REMARK    3  A    between atoms: C_2  and  N_4
REMARK    4  A    between atoms: N_4  and  C_5
REMARK    5  A    between atoms: C_5  and  C_6
REMARK    6  A    between atoms: C_6  and  O_7
REMARK    7  A    between atoms: C_6  and  C_8
REMARK    8  A    between atoms: C_8  and  O_9
REMARK    9  A    between atoms: O_9  and  C_10
REMARK                            x       y       z     vdW  Elec       q    Type
REMARK                         _______ _______ _______ _____ _____    ______ ____
ROOT
ATOM      1  O   UNL     1       4.478   4.639  16.810  0.00  0.00    +0.000 OA
ENDROOT
BRANCH   1   2
ATOM      2  C   UNL     1       3.794   5.384  17.738  0.00  0.00    +0.000 A 
ATOM      3  C   UNL     1       3.502   6.743  17.591  0.00  0.00    +0.000 A 
ATOM      4  C   UNL     1       2.778   7.420  18.568  0.00  0.00    +0.000 A 
ATOM      5  C   UNL     1       2.325   6.744  19.696  0.00  0.00    +0.000 A 
ATOM      6  C   UNL     1       2.599   5.381  19.862  0.00  0.00    +0.000 A 
ATOM      7  C   UNL     1       3.369   4.697  18.896  0.00  0.00    +0.000 A 
ATOM      8  C   UNL     1       3.667   3.219  19.053  0.00  0.00    +0.000 C 
ATOM      9  C   UNL     1       3.519   2.702  20.475  0.00  0.00    +0.000 C 
ATOM     10  C   UNL     1       2.215   3.194  21.039  0.00  0.00    +0.000 C 
ATOM     11  O   UNL     1       1.384   2.428  21.525  0.00  0.00    +0.000 OA
ATOM     12  C   UNL     1       2.056   4.692  21.092  0.00  0.00    +0.000 C 
ENDBRANCH   1   2
BRANCH   1  13
ATOM     13  C   UNL     1       5.321   5.350  15.891  0.00  0.00    +0.000 C 
BRANCH  13  14
ATOM     14  C   UNL     1       6.564   4.501  15.591  0.00  0.00    +0.000 C 
BRANCH  14  15
ATOM     15  O   UNL     1       7.716   5.076  16.223  0.00  0.00    +0.000 OA
ATOM     16  H   UNL     1       8.405   4.385  16.213  0.00  0.00    +0.000 HD
ENDBRANCH  14  15
BRANCH  14  17
ATOM     17  C   UNL     1       6.801   4.403  14.073  0.00  0.00    +0.000 C 
BRANCH  17  18
ATOM     18  N   UNL     1       6.016   3.308  13.492  0.00  0.00    +0.000 NA
ATOM     19  H   UNL     1       6.445   2.422  13.780  0.00  0.00    +0.000 HD
BRANCH  18  21
ATOM     20  C   UNL     1       6.883   2.346  11.430  0.00  0.00    +0.000 C 
ATOM     21  C   UNL     1       5.929   3.381  12.029  0.00  0.00    +0.000 C 
ATOM     22  C   UNL     1       4.507   3.112  11.530  0.00  0.00    +0.000 C 
ENDBRANCH  18  21
ENDBRANCH  17  18
ENDBRANCH  14  17
ENDBRANCH  13  14
ENDBRANCH   1  13
TORSDOF 7
ENDMDL
MODEL 7
REMARK VINA RESULT:      -7.0      2.603      3.850
REMARK  Name = 
REMARK  9 active torsions:
REMARK  status: ('A' for Active; 'I' for Inactive)
REMARK    1  A    between atoms: C_1  and  C_2
REMARK    2  A    between atoms: C_2  and  C_3
REMARK    3  A    between atoms: C_2  and  N_4
REMARK    4  A    between atoms: N_4  and  C_5
REMARK    5  A    between atoms: C_5  and  C_6
REMARK    6  A    between atoms: C_6  and  O_7
REMARK    7  A    between atoms: C_6  and  C_8
REMARK    8  A    between atoms: C_8  and  O_9
REMARK    9  A    between atoms: O_9  and  C_10
REMARK                            x       y       z     vdW  Elec       q    Type
REMARK                         _______ _______ _______ _____ _____    ______ ____
ROOT
ATOM      1  O   UNL     1       3.912   3.766  16.745  0.00  0.00    +0.000 OA
ENDROOT
BRANCH   1   2
ATOM      2  C   UNL     1       3.502   4.693  17.671  0.00  0.00    +0.000 A 
ATOM      3  C   UNL     1       3.388   6.063  17.411  0.00  0.00    +0.000 A 
ATOM      4  C   UNL     1       2.937   6.935  18.398  0.00  0.00    +0.000 A 
ATOM      5  C   UNL     1       2.580   6.446  19.650  0.00  0.00    +0.000 A 
ATOM      6  C   UNL     1       2.679   5.078  19.932  0.00  0.00    +0.000 A 
ATOM      7  C   UNL     1       3.176   4.194  18.950  0.00  0.00    +0.000 A 
ATOM      8  C   UNL     1       3.280   2.708  19.233  0.00  0.00    +0.000 C 
ATOM      9  C   UNL     1       3.291   2.355  20.712  0.00  0.00    +0.000 C 
ATOM     10  C   UNL     1       2.181   3.099  21.399  0.00  0.00    +0.000 C 
ATOM     11  O   UNL     1       1.338   2.524  22.086  0.00  0.00    +0.000 OA
ATOM     12  C   UNL     1       2.249   4.602  21.299  0.00  0.00    +0.000 C 
ENDBRANCH   1   2
BRANCH   1  13
ATOM     13  C   UNL     1       5.321   3.512  16.653  0.00  0.00    +0.000 C 
BRANCH  13  14
ATOM     14  C   UNL     1       5.900   4.310  15.477  0.00  0.00    +0.000 C 
BRANCH  14  15
ATOM     15  O   UNL     1       6.316   3.418  14.434  0.00  0.00    +0.000 OA
ATOM     16  H   UNL     1       6.954   2.802  14.841  0.00  0.00    +0.000 HD
ENDBRANCH  14  15
BRANCH  14  17
ATOM     17  C   UNL     1       7.097   5.163  15.936  0.00  0.00    +0.000 C 
BRANCH  17  18
ATOM     18  N   UNL     1       6.682   6.546  16.198  0.00  0.00    +0.000 NA
ATOM     19  H   UNL     1       7.178   7.157  15.540  0.00  0.00    +0.000 HD
BRANCH  18  21
ATOM     20  C   UNL     1       7.582   5.806  18.336  0.00  0.00    +0.000 C 
ATOM     21  C   UNL     1       6.939   6.969  17.580  0.00  0.00    +0.000 C 
ATOM     22  C   UNL     1       7.863   8.188  17.638  0.00  0.00    +0.000 C 
ENDBRANCH  18  21
ENDBRANCH  17  18
ENDBRANCH  14  17
ENDBRANCH  13  14
ENDBRANCH   1  13
TORSDOF 7
ENDMDL
MODEL 8
REMARK VINA RESULT:      -6.9      2.629      4.654
REMARK  Name = 
REMARK  9 active torsions:
REMARK  status: ('A' for Active; 'I' for Inactive)
REMARK    1  A    between atoms: C_1  and  C_2
REMARK    2  A    between atoms: C_2  and  C_3
REMARK    3  A    between atoms: C_2  and  N_4
REMARK    4  A    between atoms: N_4  and  C_5
REMARK    5  A    between atoms: C_5  and  C_6
REMARK    6  A    between atoms: C_6  and  O_7
REMARK    7  A    between atoms: C_6  and  C_8
REMARK    8  A    between atoms: C_8  and  O_9
REMARK    9  A    between atoms: O_9  and  C_10
REMARK                            x       y       z     vdW  Elec       q    Type
REMARK                         _______ _______ _______ _____ _____    ______ ____
ROOT
ATOM      1  O   UNL     1       4.405   4.744  16.966  0.00  0.00    +0.000 OA
ENDROOT
BRANCH   1   2
ATOM      2  C   UNL     1       3.589   4.355  17.998  0.00  0.00    +0.000 A 
ATOM      3  C   UNL     1       3.419   3.028  18.405  0.00  0.00    +0.000 A 
ATOM      4  C   UNL     1       2.592   2.719  19.482  0.00  0.00    +0.000 A 
ATOM      5  C   UNL     1       1.939   3.733  20.174  0.00  0.00    +0.000 A 
ATOM      6  C   UNL     1       2.100   5.070  19.790  0.00  0.00    +0.000 A 
ATOM      7  C   UNL     1       2.903   5.388  18.672  0.00  0.00    +0.000 A 
ATOM      8  C   UNL     1       3.097   6.830  18.248  0.00  0.00    +0.000 C 
ATOM      9  C   UNL     1       2.030   7.781  18.767  0.00  0.00    +0.000 C 
ATOM     10  C   UNL     1       1.825   7.528  20.235  0.00  0.00    +0.000 C 
ATOM     11  O   UNL     1       1.899   8.429  21.068  0.00  0.00    +0.000 OA
ATOM     12  C   UNL     1       1.390   6.131  20.598  0.00  0.00    +0.000 C 
ENDBRANCH   1   2
BRANCH   1  13
ATOM     13  C   UNL     1       5.055   3.707  16.217  0.00  0.00    +0.000 C 
BRANCH  13  14
ATOM     14  C   UNL     1       5.939   4.345  15.137  0.00  0.00    +0.000 C 
BRANCH  14  15
ATOM     15  O   UNL     1       6.386   3.345  14.212  0.00  0.00    +0.000 OA
ATOM     16  H   UNL     1       5.864   3.474  13.399  0.00  0.00    +0.000 HD
ENDBRANCH  14  15
BRANCH  14  17
ATOM     17  C   UNL     1       7.155   5.042  15.774  0.00  0.00    +0.000 C 
BRANCH  17  18
ATOM     18  N   UNL     1       7.399   4.533  17.128  0.00  0.00    +0.000 NA
ATOM     19  H   UNL     1       6.581   3.985  17.414  0.00  0.00    +0.000 HD
BRANCH  18  21
ATOM     20  C   UNL     1       7.370   6.948  17.441  0.00  0.00    +0.000 C 
ATOM     21  C   UNL     1       7.664   5.600  18.101  0.00  0.00    +0.000 C 
ATOM     22  C   UNL     1       6.803   5.449  19.358  0.00  0.00    +0.000 C 
ENDBRANCH  18  21
ENDBRANCH  17  18
ENDBRANCH  14  17
ENDBRANCH  13  14
ENDBRANCH   1  13
TORSDOF 7
ENDMDL
MODEL 9
REMARK VINA RESULT:      -6.9      1.235      1.664
REMARK  Name = 
REMARK  9 active torsions:
REMARK  status: ('A' for Active; 'I' for Inactive)
REMARK    1  A    between atoms: C_1  and  C_2
REMARK    2  A    between atoms: C_2  and  C_3
REMARK    3  A    between atoms: C_2  and  N_4
REMARK    4  A    between atoms: N_4  and  C_5
REMARK    5  A    between atoms: C_5  and  C_6
REMARK    6  A    between atoms: C_6  and  O_7
REMARK    7  A    between atoms: C_6  and  C_8
REMARK    8  A    between atoms: C_8  and  O_9
REMARK    9  A    between atoms: O_9  and  C_10
REMARK                            x       y       z     vdW  Elec       q    Type
REMARK                         _______ _______ _______ _____ _____    ______ ____
ROOT
ATOM      1  O   UNL     1       4.414   5.650  16.256  0.00  0.00    +0.000 OA
ENDROOT
BRANCH   1   2
ATOM      2  C   UNL     1       3.689   5.855  17.404  0.00  0.00    +0.000 A 
ATOM      3  C   UNL     1       3.636   7.073  18.090  0.00  0.00    +0.000 A 
ATOM      4  C   UNL     1       2.853   7.206  19.233  0.00  0.00    +0.000 A 
ATOM      5  C   UNL     1       2.102   6.130  19.695  0.00  0.00    +0.000 A 
ATOM      6  C   UNL     1       2.133   4.903  19.020  0.00  0.00    +0.000 A 
ATOM      7  C   UNL     1       2.958   4.748  17.885  0.00  0.00    +0.000 A 
ATOM      8  C   UNL     1       2.997   3.430  17.135  0.00  0.00    +0.000 C 
ATOM      9  C   UNL     1       2.511   2.238  17.945  0.00  0.00    +0.000 C 
ATOM     10  C   UNL     1       1.214   2.600  18.613  0.00  0.00    +0.000 C 
ATOM     11  O   UNL     1       0.202   1.912  18.488  0.00  0.00    +0.000 OA
ATOM     12  C   UNL     1       1.274   3.780  19.550  0.00  0.00    +0.000 C 
ENDBRANCH   1   2
BRANCH   1  13
ATOM     13  C   UNL     1       5.834   5.842  16.335  0.00  0.00    +0.000 C 
BRANCH  13  14
ATOM     14  C   UNL     1       6.506   4.496  16.640  0.00  0.00    +0.000 C 
BRANCH  14  15
ATOM     15  O   UNL     1       7.834   4.711  17.138  0.00  0.00    +0.000 OA
ATOM     16  H   UNL     1       7.740   4.904  18.089  0.00  0.00    +0.000 HD
ENDBRANCH  14  15
BRANCH  14  17
ATOM     17  C   UNL     1       6.562   3.619  15.377  0.00  0.00    +0.000 C 
BRANCH  17  18
ATOM     18  N   UNL     1       5.911   4.290  14.246  0.00  0.00    +0.000 NA
ATOM     19  H   UNL     1       4.905   4.336  14.440  0.00  0.00    +0.000 HD
BRANCH  18  21
ATOM     20  C   UNL     1       4.836   3.548  12.191  0.00  0.00    +0.000 C 
ATOM     21  C   UNL     1       6.153   3.617  12.964  0.00  0.00    +0.000 C 
ATOM     22  C   UNL     1       7.200   4.353  12.125  0.00  0.00    +0.000 C 
ENDBRANCH  18  21
ENDBRANCH  17  18
ENDBRANCH  14  17
ENDBRANCH  13  14
ENDBRANCH   1  13
TORSDOF 7
ENDMDL
