MODEL 1
REMARK VINA RESULT:      -7.6      0.000      0.000
REMARK  Name = 
REMARK  9 active torsions:
REMARK  status: ('A' for Active; 'I' for Inactive)
REMARK    1  A    between atoms: P_2  and  O_3
REMARK    2  A    between atoms: P_2  and  O_4
REMARK    3  A    between atoms: P_2  and  O_5
REMARK    4  A    between atoms: O_5  and  C_6
REMARK    5  A    between atoms: C_6  and  C_7
REMARK    6  A    between atoms: C_10  and  N_11
REMARK    7  A    between atoms: C_15  and  O_16
REMARK    8  A    between atoms: C_21  and  O_22
REMARK    9  A    between atoms: C_23  and  O_24
REMARK                            x       y       z     vdW  Elec       q    Type
REMARK                         _______ _______ _______ _____ _____    ______ ____
ROOT
ATOM      1  C   UNL     1       6.375   5.160  15.584  0.00  0.00    +0.000 C 
ATOM      2  C   UNL     1       5.267   6.153  15.231  0.00  0.00    +0.000 C 
ATOM      3  C   UNL     1       4.981   5.077  16.217  0.00  0.00    +0.000 C 
ATOM      4  C   UNL     1       5.137   5.393  17.698  0.00  0.00    +0.000 C 
ATOM      5  C   UNL     1       6.512   4.787  18.016  0.00  0.00    +0.000 C 
ATOM      6  C   UNL     1       7.325   5.254  16.776  0.00  0.00    +0.000 C 
ENDROOT
BRANCH   4   7
ATOM      7  N   UNL     1       4.047   5.029  18.573  0.00  0.00    +0.000 N 
ATOM      8  C   UNL     1       3.462   5.890  19.475  0.00  0.00    +0.000 A 
ATOM      9  N   UNL     1       2.471   5.329  20.135  0.00  0.00    +0.000 NA
ATOM     10  C   UNL     1       2.454   4.036  19.669  0.00  0.00    +0.000 A 
ATOM     11  C   UNL     1       1.650   2.944  19.979  0.00  0.00    +0.000 A 
ATOM     12  N   UNL     1       1.845   1.759  19.372  0.00  0.00    +0.000 NA
ATOM     13  C   UNL     1       2.841   1.695  18.463  0.00  0.00    +0.000 A 
ATOM     14  N   UNL     1       3.683   2.674  18.058  0.00  0.00    +0.000 NA
ATOM     15  C   UNL     1       3.430   3.822  18.709  0.00  0.00    +0.000 A 
BRANCH  11  16
ATOM     16  O   UNL     1       0.636   3.024  20.901  0.00  0.00    +0.000 OA
ATOM     17  H   UNL     1       0.383   3.965  20.897  0.00  0.00    +0.000 HD
ENDBRANCH  11  16
ENDBRANCH   4   7
BRANCH   5  18
ATOM     18  O   UNL     1       7.080   5.316  19.213  0.00  0.00    +0.000 OA
ATOM     19  H   UNL     1       7.922   4.826  19.337  0.00  0.00    +0.000 HD
ENDBRANCH   5  18
BRANCH   6  20
ATOM     20  O   UNL     1       7.692   6.612  17.040  0.00  0.00    +0.000 OA
ATOM     21  H   UNL     1       8.594   6.753  16.700  0.00  0.00    +0.000 HD
ENDBRANCH   6  20
BRANCH   1  22
ATOM     22  C   UNL     1       6.888   4.376  14.399  0.00  0.00    +0.000 C 
BRANCH  22  23
ATOM     23  O   UNL     1       5.827   3.622  13.812  0.00  0.00    +0.000 OA
BRANCH  23  25
ATOM     24  O   UNL     1       4.504   3.750  11.544  0.00  0.00    +0.000 OA
ATOM     25  P   UNL     1       5.783   3.427  12.231  0.00  0.00    +0.000 P 
BRANCH  25  26
ATOM     26  O   UNL     1       6.198   1.894  12.015  0.00  0.00    +0.000 OA
ATOM     27  H   UNL     1       6.369   1.711  11.069  0.00  0.00    +0.000 HD
ENDBRANCH  25  26
BRANCH  25  28
ATOM     28  O   UNL     1       7.066   4.176  11.639  0.00  0.00    +0.000 OA
ATOM     29  H   UNL     1       6.992   5.145  11.739  0.00  0.00    +0.000 HD
ENDBRANCH  25  28
ENDBRANCH  23  25
ENDBRANCH  22  23
ENDBRANCH   1  22
TORSDOF 9
ENDMDL
MODEL 2
REMARK VINA RESULT:      -7.5      0.803      1.806
REMARK  Name = 
REMARK  9 active torsions:
REMARK  status: ('A' for Active; 'I' for Inactive)
REMARK    1  A    between atoms: P_2  and  O_3
REMARK    2  A    between atoms: P_2  and  O_4
REMARK    3  A    between atoms: P_2  and  O_5
REMARK    4  A    between atoms: O_5  and  C_6
REMARK    5  A    between atoms: C_6  and  C_7
REMARK    6  A    between atoms: C_10  and  N_11
REMARK    7  A    between atoms: C_15  and  O_16
REMARK    8  A    between atoms: C_21  and  O_22
REMARK    9  A    between atoms: C_23  and  O_24
REMARK                            x       y       z     vdW  Elec       q    Type
REMARK                         _______ _______ _______ _____ _____    ______ ____
ROOT
ATOM      1  C   UNL     1       6.478   5.176  15.517  0.00  0.00    +0.000 C 
ATOM      2  C   UNL     1       5.235   6.050  15.337  0.00  0.00    +0.000 C 
ATOM      3  C   UNL     1       5.118   4.783  16.106  0.00  0.00    +0.000 C 
ATOM      4  C   UNL     1       5.247   4.841  17.622  0.00  0.00    +0.000 C 
ATOM      5  C   UNL     1       6.698   4.388  17.841  0.00  0.00    +0.000 C 
ATOM      6  C   UNL     1       7.421   5.184  16.717  0.00  0.00    +0.000 C 
ENDROOT
BRANCH   4   7
ATOM      7  N   UNL     1       4.231   4.174  18.401  0.00  0.00    +0.000 N 
ATOM      8  C   UNL     1       4.063   2.807  18.440  0.00  0.00    +0.000 A 
ATOM      9  N   UNL     1       3.088   2.443  19.246  0.00  0.00    +0.000 NA
ATOM     10  C   UNL     1       2.577   3.634  19.705  0.00  0.00    +0.000 A 
ATOM     11  C   UNL     1       1.532   3.926  20.574  0.00  0.00    +0.000 A 
ATOM     12  N   UNL     1       1.221   5.203  20.863  0.00  0.00    +0.000 NA
ATOM     13  C   UNL     1       1.969   6.161  20.275  0.00  0.00    +0.000 A 
ATOM     14  N   UNL     1       3.014   6.020  19.427  0.00  0.00    +0.000 NA
ATOM     15  C   UNL     1       3.261   4.722  19.185  0.00  0.00    +0.000 A 
BRANCH  11  16
ATOM     16  O   UNL     1       0.784   2.942  21.171  0.00  0.00    +0.000 OA
ATOM     17  H   UNL     1       0.280   2.546  20.437  0.00  0.00    +0.000 HD
ENDBRANCH  11  16
ENDBRANCH   4   7
BRANCH   5  18
ATOM     18  O   UNL     1       7.203   4.764  19.122  0.00  0.00    +0.000 OA
ATOM     19  H   UNL     1       7.120   5.742  19.154  0.00  0.00    +0.000 HD
ENDBRANCH   5  18
BRANCH   6  20
ATOM     20  O   UNL     1       7.596   6.509  17.230  0.00  0.00    +0.000 OA
ATOM     21  H   UNL     1       8.546   6.723  17.195  0.00  0.00    +0.000 HD
ENDBRANCH   6  20
BRANCH   1  22
ATOM     22  C   UNL     1       7.080   4.703  14.215  0.00  0.00    +0.000 C 
BRANCH  22  23
ATOM     23  O   UNL     1       6.370   3.561  13.732  0.00  0.00    +0.000 OA
BRANCH  23  25
ATOM     24  O   UNL     1       4.696   3.457  11.708  0.00  0.00    +0.000 OA
ATOM     25  P   UNL     1       6.109   3.403  12.167  0.00  0.00    +0.000 P 
BRANCH  25  26
ATOM     26  O   UNL     1       6.797   2.003  11.797  0.00  0.00    +0.000 OA
ATOM     27  H   UNL     1       7.145   1.565  12.599  0.00  0.00    +0.000 HD
ENDBRANCH  25  26
BRANCH  25  28
ATOM     28  O   UNL     1       7.090   4.429  11.431  0.00  0.00    +0.000 OA
ATOM     29  H   UNL     1       6.766   4.656  10.538  0.00  0.00    +0.000 HD
ENDBRANCH  25  28
ENDBRANCH  23  25
ENDBRANCH  22  23
ENDBRANCH   1  22
TORSDOF 9
ENDMDL
MODEL 3
REMARK VINA RESULT:      -7.5      4.047      6.361
REMARK  Name = 
REMARK  9 active torsions:
REMARK  status: ('A' for Active; 'I' for Inactive)
REMARK    1  A    between atoms: P_2  and  O_3
REMARK    2  A    between atoms: P_2  and  O_4
REMARK    3  A    between atoms: P_2  and  O_5
REMARK    4  A    between atoms: O_5  and  C_6
REMARK    5  A    between atoms: C_6  and  C_7
REMARK    6  A    between atoms: C_10  and  N_11
REMARK    7  A    between atoms: C_15  and  O_16
REMARK    8  A    between atoms: C_21  and  O_22
REMARK    9  A    between atoms: C_23  and  O_24
REMARK                            x       y       z     vdW  Elec       q    Type
REMARK                         _______ _______ _______ _____ _____    ______ ____
ROOT
ATOM      1  C   UNL     1       3.240   3.294  18.367  0.00  0.00    +0.000 C 
ATOM      2  C   UNL     1       2.618   3.533  16.991  0.00  0.00    +0.000 C 
ATOM      3  C   UNL     1       2.440   4.563  18.048  0.00  0.00    +0.000 C 
ATOM      4  C   UNL     1       3.413   5.733  18.090  0.00  0.00    +0.000 C 
ATOM      5  C   UNL     1       4.381   5.311  19.206  0.00  0.00    +0.000 C 
ATOM      6  C   UNL     1       4.592   3.811  18.849  0.00  0.00    +0.000 C 
ENDROOT
BRANCH   4   7
ATOM      7  N   UNL     1       2.852   7.060  18.184  0.00  0.00    +0.000 N 
ATOM      8  C   UNL     1       2.969   8.018  17.200  0.00  0.00    +0.000 A 
ATOM      9  N   UNL     1       2.347   9.136  17.511  0.00  0.00    +0.000 NA
ATOM     10  C   UNL     1       1.853   8.900  18.771  0.00  0.00    +0.000 A 
ATOM     11  C   UNL     1       1.115   9.690  19.645  0.00  0.00    +0.000 A 
ATOM     12  N   UNL     1       0.751   9.216  20.852  0.00  0.00    +0.000 NA
ATOM     13  C   UNL     1       1.133   7.957  21.154  0.00  0.00    +0.000 A 
ATOM     14  N   UNL     1       1.835   7.080  20.399  0.00  0.00    +0.000 NA
ATOM     15  C   UNL     1       2.164   7.624  19.215  0.00  0.00    +0.000 A 
BRANCH  11  16
ATOM     16  O   UNL     1       0.727  10.967  19.324  0.00  0.00    +0.000 OA
ATOM     17  H   UNL     1      -0.247  10.938  19.365  0.00  0.00    +0.000 HD
ENDBRANCH  11  16
ENDBRANCH   4   7
BRANCH   5  18
ATOM     18  O   UNL     1       5.621   6.015  19.152  0.00  0.00    +0.000 OA
ATOM     19  H   UNL     1       5.383   6.938  18.915  0.00  0.00    +0.000 HD
ENDBRANCH   5  18
BRANCH   6  20
ATOM     20  O   UNL     1       5.559   3.795  17.795  0.00  0.00    +0.000 OA
ATOM     21  H   UNL     1       5.318   3.083  17.174  0.00  0.00    +0.000 HD
ENDBRANCH   6  20
BRANCH   1  22
ATOM     22  C   UNL     1       2.735   2.045  19.052  0.00  0.00    +0.000 C 
BRANCH  22  23
ATOM     23  O   UNL     1       2.866   2.175  20.468  0.00  0.00    +0.000 OA
BRANCH  23  25
ATOM     24  O   UNL     1       1.260   2.133  22.550  0.00  0.00    +0.000 OA
ATOM     25  P   UNL     1       1.684   2.836  21.309  0.00  0.00    +0.000 P 
BRANCH  25  26
ATOM     26  O   UNL     1       0.478   2.957  20.259  0.00  0.00    +0.000 OA
ATOM     27  H   UNL     1       0.821   3.074  19.350  0.00  0.00    +0.000 HD
ENDBRANCH  25  26
BRANCH  25  28
ATOM     28  O   UNL     1       2.068   4.375  21.511  0.00  0.00    +0.000 OA
ATOM     29  H   UNL     1       2.847   4.476  22.091  0.00  0.00    +0.000 HD
ENDBRANCH  25  28
ENDBRANCH  23  25
ENDBRANCH  22  23
ENDBRANCH   1  22
TORSDOF 9
ENDMDL
MODEL 4
REMARK VINA RESULT:      -7.3      3.191      4.636
REMARK  Name = 
REMARK  9 active torsions:
REMARK  status: ('A' for Active; 'I' for Inactive)
REMARK    1  A    between atoms: P_2  and  O_3
REMARK    2  A    between atoms: P_2  and  O_4
REMARK    3  A    between atoms: P_2  and  O_5
REMARK    4  A    between atoms: O_5  and  C_6
REMARK    5  A    between atoms: C_6  and  C_7
REMARK    6  A    between atoms: C_10  and  N_11
REMARK    7  A    between atoms: C_15  and  O_16
REMARK    8  A    between atoms: C_21  and  O_22
REMARK    9  A    between atoms: C_23  and  O_24
REMARK                            x       y       z     vdW  Elec       q    Type
REMARK                         _______ _______ _______ _____ _____    ______ ____
ROOT
ATOM      1  C   UNL     1       5.645   4.683  18.025  0.00  0.00    +0.000 C 
ATOM      2  C   UNL     1       6.088   5.482  19.252  0.00  0.00    +0.000 C 
ATOM      3  C   UNL     1       5.146   6.109  18.288  0.00  0.00    +0.000 C 
ATOM      4  C   UNL     1       3.653   6.020  18.571  0.00  0.00    +0.000 C 
ATOM      5  C   UNL     1       3.217   4.868  17.654  0.00  0.00    +0.000 C 
ATOM      6  C   UNL     1       4.370   3.854  17.899  0.00  0.00    +0.000 C 
ENDROOT
BRANCH   4   7
ATOM      7  N   UNL     1       2.888   7.242  18.490  0.00  0.00    +0.000 N 
ATOM      8  C   UNL     1       2.904   8.091  17.405  0.00  0.00    +0.000 A 
ATOM      9  N   UNL     1       2.100   9.122  17.562  0.00  0.00    +0.000 NA
ATOM     10  C   UNL     1       1.585   8.950  18.825  0.00  0.00    +0.000 A 
ATOM     11  C   UNL     1       0.689   9.703  19.576  0.00  0.00    +0.000 A 
ATOM     12  N   UNL     1       0.343   9.313  20.817  0.00  0.00    +0.000 NA
ATOM     13  C   UNL     1       0.901   8.173  21.276  0.00  0.00    +0.000 A 
ATOM     14  N   UNL     1       1.768   7.343  20.653  0.00  0.00    +0.000 NA
ATOM     15  C   UNL     1       2.069   7.799  19.425  0.00  0.00    +0.000 A 
BRANCH  11  16
ATOM     16  O   UNL     1       0.124  10.858  19.094  0.00  0.00    +0.000 OA
ATOM     17  H   UNL     1       0.839  11.516  19.152  0.00  0.00    +0.000 HD
ENDBRANCH  11  16
ENDBRANCH   4   7
BRANCH   5  18
ATOM     18  O   UNL     1       1.965   4.302  18.042  0.00  0.00    +0.000 OA
ATOM     19  H   UNL     1       1.587   4.934  18.692  0.00  0.00    +0.000 HD
ENDBRANCH   5  18
BRANCH   6  20
ATOM     20  O   UNL     1       4.055   3.197  19.131  0.00  0.00    +0.000 OA
ATOM     21  H   UNL     1       3.090   3.068  19.166  0.00  0.00    +0.000 HD
ENDBRANCH   6  20
BRANCH   1  22
ATOM     22  C   UNL     1       6.788   4.266  17.129  0.00  0.00    +0.000 C 
BRANCH  22  23
ATOM     23  O   UNL     1       6.284   3.768  15.889  0.00  0.00    +0.000 OA
BRANCH  23  25
ATOM     24  O   UNL     1       6.258   3.959  13.267  0.00  0.00    +0.000 OA
ATOM     25  P   UNL     1       6.424   4.654  14.571  0.00  0.00    +0.000 P 
BRANCH  25  26
ATOM     26  O   UNL     1       7.875   5.323  14.703  0.00  0.00    +0.000 OA
ATOM     27  H   UNL     1       7.869   6.236  14.353  0.00  0.00    +0.000 HD
ENDBRANCH  25  26
BRANCH  25  28
ATOM     28  O   UNL     1       5.481   5.931  14.773  0.00  0.00    +0.000 OA
ATOM     29  H   UNL     1       6.004   6.747  14.887  0.00  0.00    +0.000 HD
ENDBRANCH  25  28
ENDBRANCH  23  25
ENDBRANCH  22  23
ENDBRANCH   1  22
TORSDOF 9
ENDMDL
MODEL 5
REMARK VINA RESULT:      -7.3      3.435      5.114
REMARK  Name = 
REMARK  9 active torsions:
REMARK  status: ('A' for Active; 'I' for Inactive)
REMARK    1  A    between atoms: P_2  and  O_3
REMARK    2  A    between atoms: P_2  and  O_4
REMARK    3  A    between atoms: P_2  and  O_5
REMARK    4  A    between atoms: O_5  and  C_6
REMARK    5  A    between atoms: C_6  and  C_7
REMARK    6  A    between atoms: C_10  and  N_11
REMARK    7  A    between atoms: C_15  and  O_16
REMARK    8  A    between atoms: C_21  and  O_22
REMARK    9  A    between atoms: C_23  and  O_24
REMARK                            x       y       z     vdW  Elec       q    Type
REMARK                         _______ _______ _______ _____ _____    ______ ____
ROOT
ATOM      1  C   UNL     1       4.372   4.643  17.870  0.00  0.00    +0.000 C 
ATOM      2  C   UNL     1       5.422   5.669  18.299  0.00  0.00    +0.000 C 
ATOM      3  C   UNL     1       4.084   6.149  17.860  0.00  0.00    +0.000 C 
ATOM      4  C   UNL     1       3.026   6.415  18.920  0.00  0.00    +0.000 C 
ATOM      5  C   UNL     1       2.166   5.144  18.845  0.00  0.00    +0.000 C 
ATOM      6  C   UNL     1       3.271   4.055  18.749  0.00  0.00    +0.000 C 
ENDROOT
BRANCH   4   7
ATOM      7  N   UNL     1       2.328   7.678  18.860  0.00  0.00    +0.000 N 
ATOM      8  C   UNL     1       2.312   8.498  17.754  0.00  0.00    +0.000 A 
ATOM      9  N   UNL     1       1.583   9.578  17.940  0.00  0.00    +0.000 NA
ATOM     10  C   UNL     1       1.154   9.468  19.241  0.00  0.00    +0.000 A 
ATOM     11  C   UNL     1       0.362  10.290  20.034  0.00  0.00    +0.000 A 
ATOM     12  N   UNL     1       0.087   9.952  21.307  0.00  0.00    +0.000 NA
ATOM     13  C   UNL     1       0.612   8.792  21.757  0.00  0.00    +0.000 A 
ATOM     14  N   UNL     1       1.381   7.897  21.096  0.00  0.00    +0.000 NA
ATOM     15  C   UNL     1       1.614   8.304  19.837  0.00  0.00    +0.000 A 
BRANCH  11  16
ATOM     16  O   UNL     1      -0.171  11.464  19.562  0.00  0.00    +0.000 OA
ATOM     17  H   UNL     1       0.047  12.119  20.250  0.00  0.00    +0.000 HD
ENDBRANCH  11  16
ENDBRANCH   4   7
BRANCH   5  18
ATOM     18  O   UNL     1       1.374   4.949  20.017  0.00  0.00    +0.000 OA
ATOM     19  H   UNL     1       0.750   4.226  19.788  0.00  0.00    +0.000 HD
ENDBRANCH   5  18
BRANCH   6  20
ATOM     20  O   UNL     1       3.732   3.849  20.088  0.00  0.00    +0.000 OA
ATOM     21  H   UNL     1       3.041   3.362  20.574  0.00  0.00    +0.000 HD
ENDBRANCH   6  20
BRANCH   1  22
ATOM     22  C   UNL     1       4.803   3.787  16.701  0.00  0.00    +0.000 C 
BRANCH  22  23
ATOM     23  O   UNL     1       6.170   4.047  16.380  0.00  0.00    +0.000 OA
BRANCH  23  25
ATOM     24  O   UNL     1       7.833   5.349  14.814  0.00  0.00    +0.000 OA
ATOM     25  P   UNL     1       6.543   4.618  14.939  0.00  0.00    +0.000 P 
BRANCH  25  26
ATOM     26  O   UNL     1       5.297   5.549  14.553  0.00  0.00    +0.000 OA
ATOM     27  H   UNL     1       4.925   5.977  15.350  0.00  0.00    +0.000 HD
ENDBRANCH  25  26
BRANCH  25  28
ATOM     28  O   UNL     1       6.356   3.413  13.904  0.00  0.00    +0.000 OA
ATOM     29  H   UNL     1       6.916   2.649  14.140  0.00  0.00    +0.000 HD
ENDBRANCH  25  28
ENDBRANCH  23  25
ENDBRANCH  22  23
ENDBRANCH   1  22
TORSDOF 9
ENDMDL
MODEL 6
REMARK VINA RESULT:      -7.3      3.775      5.318
REMARK  Name = 
REMARK  9 active torsions:
REMARK  status: ('A' for Active; 'I' for Inactive)
REMARK    1  A    between atoms: P_2  and  O_3
REMARK    2  A    between atoms: P_2  and  O_4
REMARK    3  A    between atoms: P_2  and  O_5
REMARK    4  A    between atoms: O_5  and  C_6
REMARK    5  A    between atoms: C_6  and  C_7
REMARK    6  A    between atoms: C_10  and  N_11
REMARK    7  A    between atoms: C_15  and  O_16
REMARK    8  A    between atoms: C_21  and  O_22
REMARK    9  A    between atoms: C_23  and  O_24
REMARK                            x       y       z     vdW  Elec       q    Type
REMARK                         _______ _______ _______ _____ _____    ______ ____
ROOT
ATOM      1  C   UNL     1       4.279   5.774  17.625  0.00  0.00    +0.000 C 
ATOM      2  C   UNL     1       5.061   7.083  17.515  0.00  0.00    +0.000 C 
ATOM      3  C   UNL     1       3.576   7.135  17.566  0.00  0.00    +0.000 C 
ATOM      4  C   UNL     1       2.904   7.357  18.913  0.00  0.00    +0.000 C 
ATOM      5  C   UNL     1       2.481   5.933  19.303  0.00  0.00    +0.000 C 
ATOM      6  C   UNL     1       3.759   5.137  18.912  0.00  0.00    +0.000 C 
ENDROOT
BRANCH   4   7
ATOM      7  N   UNL     1       1.889   8.381  18.989  0.00  0.00    +0.000 N 
ATOM      8  C   UNL     1       1.407   9.071  17.898  0.00  0.00    +0.000 A 
ATOM      9  N   UNL     1       0.466   9.932  18.224  0.00  0.00    +0.000 NA
ATOM     10  C   UNL     1       0.377   9.823  19.591  0.00  0.00    +0.000 A 
ATOM     11  C   UNL     1      -0.421  10.471  20.528  0.00  0.00    +0.000 A 
ATOM     12  N   UNL     1      -0.308  10.181  21.837  0.00  0.00    +0.000 NA
ATOM     13  C   UNL     1       0.601   9.243  22.179  0.00  0.00    +0.000 A 
ATOM     14  N   UNL     1       1.426   8.530  21.377  0.00  0.00    +0.000 NA
ATOM     15  C   UNL     1       1.259   8.877  20.090  0.00  0.00    +0.000 A 
BRANCH  11  16
ATOM     16  O   UNL     1      -1.346  11.418  20.167  0.00  0.00    +0.000 OA
ATOM     17  H   UNL     1      -1.474  11.275  19.211  0.00  0.00    +0.000 HD
ENDBRANCH  11  16
ENDBRANCH   4   7
BRANCH   5  18
ATOM     18  O   UNL     1       2.222   5.801  20.701  0.00  0.00    +0.000 OA
ATOM     19  H   UNL     1       2.868   6.396  21.140  0.00  0.00    +0.000 HD
ENDBRANCH   5  18
BRANCH   6  20
ATOM     20  O   UNL     1       4.680   5.324  19.991  0.00  0.00    +0.000 OA
ATOM     21  H   UNL     1       4.166   5.445  20.810  0.00  0.00    +0.000 HD
ENDBRANCH   6  20
BRANCH   1  22
ATOM     22  C   UNL     1       4.525   4.822  16.478  0.00  0.00    +0.000 C 
BRANCH  22  23
ATOM     23  O   UNL     1       5.415   5.414  15.531  0.00  0.00    +0.000 OA
BRANCH  23  25
ATOM     24  O   UNL     1       7.743   4.416  16.236  0.00  0.00    +0.000 OA
ATOM     25  P   UNL     1       6.764   4.659  15.143  0.00  0.00    +0.000 P 
BRANCH  25  26
ATOM     26  O   UNL     1       7.395   5.561  13.977  0.00  0.00    +0.000 OA
ATOM     27  H   UNL     1       8.197   5.140  13.608  0.00  0.00    +0.000 HD
ENDBRANCH  25  26
BRANCH  25  28
ATOM     28  O   UNL     1       6.342   3.353  14.323  0.00  0.00    +0.000 OA
ATOM     29  H   UNL     1       6.624   2.538  14.779  0.00  0.00    +0.000 HD
ENDBRANCH  25  28
ENDBRANCH  23  25
ENDBRANCH  22  23
ENDBRANCH   1  22
TORSDOF 9
ENDMDL
MODEL 7
REMARK VINA RESULT:      -7.2      1.008      1.356
REMARK  Name = 
REMARK  9 active torsions:
REMARK  status: ('A' for Active; 'I' for Inactive)
REMARK    1  A    between atoms: P_2  and  O_3
REMARK    2  A    between atoms: P_2  and  O_4
REMARK    3  A    between atoms: P_2  and  O_5
REMARK    4  A    between atoms: O_5  and  C_6
REMARK    5  A    between atoms: C_6  and  C_7
REMARK    6  A    between atoms: C_10  and  N_11
REMARK    7  A    between atoms: C_15  and  O_16
REMARK    8  A    between atoms: C_21  and  O_22
REMARK    9  A    between atoms: C_23  and  O_24
REMARK                            x       y       z     vdW  Elec       q    Type
REMARK                         _______ _______ _______ _____ _____    ______ ____
ROOT
ATOM      1  C   UNL     1       6.365   5.012  15.720  0.00  0.00    +0.000 C 
ATOM      2  C   UNL     1       5.247   5.978  15.325  0.00  0.00    +0.000 C 
ATOM      3  C   UNL     1       4.958   4.912  16.320  0.00  0.00    +0.000 C 
ATOM      4  C   UNL     1       5.072   5.251  17.799  0.00  0.00    +0.000 C 
ATOM      5  C   UNL     1       6.450   4.675  18.159  0.00  0.00    +0.000 C 
ATOM      6  C   UNL     1       7.284   5.141  16.932  0.00  0.00    +0.000 C 
ENDROOT
BRANCH   4   7
ATOM      7  N   UNL     1       3.968   4.879  18.653  0.00  0.00    +0.000 N 
ATOM      8  C   UNL     1       2.771   5.559  18.706  0.00  0.00    +0.000 A 
ATOM      9  N   UNL     1       1.916   5.006  19.541  0.00  0.00    +0.000 NA
ATOM     10  C   UNL     1       2.616   3.954  20.083  0.00  0.00    +0.000 A 
ATOM     11  C   UNL     1       2.272   2.996  21.029  0.00  0.00    +0.000 A 
ATOM     12  N   UNL     1       3.160   2.055  21.401  0.00  0.00    +0.000 NA
ATOM     13  C   UNL     1       4.374   2.094  20.812  0.00  0.00    +0.000 A 
ATOM     14  N   UNL     1       4.833   2.954  19.873  0.00  0.00    +0.000 NA
ATOM     15  C   UNL     1       3.895   3.863  19.558  0.00  0.00    +0.000 A 
BRANCH  11  16
ATOM     16  O   UNL     1       1.032   2.963  21.617  0.00  0.00    +0.000 OA
ATOM     17  H   UNL     1       0.413   2.904  20.866  0.00  0.00    +0.000 HD
ENDBRANCH  11  16
ENDBRANCH   4   7
BRANCH   5  18
ATOM     18  O   UNL     1       6.979   5.232  19.362  0.00  0.00    +0.000 OA
ATOM     19  H   UNL     1       7.599   5.936  19.069  0.00  0.00    +0.000 HD
ENDBRANCH   5  18
BRANCH   6  20
ATOM     20  O   UNL     1       7.619   6.509  17.185  0.00  0.00    +0.000 OA
ATOM     21  H   UNL     1       7.022   7.070  16.656  0.00  0.00    +0.000 HD
ENDBRANCH   6  20
BRANCH   1  22
ATOM     22  C   UNL     1       6.921   4.222  14.559  0.00  0.00    +0.000 C 
BRANCH  22  23
ATOM     23  O   UNL     1       5.857   3.638  13.807  0.00  0.00    +0.000 OA
BRANCH  23  25
ATOM     24  O   UNL     1       7.108   4.196  11.563  0.00  0.00    +0.000 OA
ATOM     25  P   UNL     1       6.028   3.426  12.236  0.00  0.00    +0.000 P 
BRANCH  25  26
ATOM     26  O   UNL     1       4.585   3.781  11.634  0.00  0.00    +0.000 OA
ATOM     27  H   UNL     1       4.639   3.927  10.668  0.00  0.00    +0.000 HD
ENDBRANCH  25  26
BRANCH  25  28
ATOM     28  O   UNL     1       6.082   1.847  11.989  0.00  0.00    +0.000 OA
ATOM     29  H   UNL     1       5.411   1.564  11.338  0.00  0.00    +0.000 HD
ENDBRANCH  25  28
ENDBRANCH  23  25
ENDBRANCH  22  23
ENDBRANCH   1  22
TORSDOF 9
ENDMDL
MODEL 8
REMARK VINA RESULT:      -7.1      4.002      7.366
REMARK  Name = 
REMARK  9 active torsions:
REMARK  status: ('A' for Active; 'I' for Inactive)
REMARK    1  A    between atoms: P_2  and  O_3
REMARK    2  A    between atoms: P_2  and  O_4
REMARK    3  A    between atoms: P_2  and  O_5
REMARK    4  A    between atoms: O_5  and  C_6
REMARK    5  A    between atoms: C_6  and  C_7
REMARK    6  A    between atoms: C_10  and  N_11
REMARK    7  A    between atoms: C_15  and  O_16
REMARK    8  A    between atoms: C_21  and  O_22
REMARK    9  A    between atoms: C_23  and  O_24
REMARK                            x       y       z     vdW  Elec       q    Type
REMARK                         _______ _______ _______ _____ _____    ______ ____
ROOT
ATOM      1  C   UNL     1       2.576   5.459  19.516  0.00  0.00    +0.000 C 
ATOM      2  C   UNL     1       1.919   5.745  18.165  0.00  0.00    +0.000 C 
ATOM      3  C   UNL     1       3.378   5.989  18.321  0.00  0.00    +0.000 C 
ATOM      4  C   UNL     1       4.344   4.890  17.902  0.00  0.00    +0.000 C 
ATOM      5  C   UNL     1       4.701   4.242  19.248  0.00  0.00    +0.000 C 
ATOM      6  C   UNL     1       3.298   4.175  19.915  0.00  0.00    +0.000 C 
ENDROOT
BRANCH   4   7
ATOM      7  N   UNL     1       5.446   5.266  17.048  0.00  0.00    +0.000 N 
ATOM      8  C   UNL     1       6.415   6.181  17.397  0.00  0.00    +0.000 A 
ATOM      9  N   UNL     1       7.327   6.329  16.459  0.00  0.00    +0.000 NA
ATOM     10  C   UNL     1       6.894   5.509  15.444  0.00  0.00    +0.000 A 
ATOM     11  C   UNL     1       7.413   5.233  14.185  0.00  0.00    +0.000 A 
ATOM     12  N   UNL     1       6.782   4.377  13.359  0.00  0.00    +0.000 NA
ATOM     13  C   UNL     1       5.643   3.815  13.818  0.00  0.00    +0.000 A 
ATOM     14  N   UNL     1       5.039   3.982  15.017  0.00  0.00    +0.000 NA
ATOM     15  C   UNL     1       5.723   4.849  15.781  0.00  0.00    +0.000 A 
BRANCH  11  16
ATOM     16  O   UNL     1       8.575   5.807  13.732  0.00  0.00    +0.000 OA
ATOM     17  H   UNL     1       8.910   6.305  14.500  0.00  0.00    +0.000 HD
ENDBRANCH  11  16
ENDBRANCH   4   7
BRANCH   5  18
ATOM     18  O   UNL     1       5.244   2.930  19.097  0.00  0.00    +0.000 OA
ATOM     19  H   UNL     1       6.089   3.055  18.612  0.00  0.00    +0.000 HD
ENDBRANCH   5  18
BRANCH   6  20
ATOM     20  O   UNL     1       2.656   3.024  19.357  0.00  0.00    +0.000 OA
ATOM     21  H   UNL     1       3.175   2.734  18.584  0.00  0.00    +0.000 HD
ENDBRANCH   6  20
BRANCH   1  22
ATOM     22  C   UNL     1       1.995   6.264  20.655  0.00  0.00    +0.000 C 
BRANCH  22  23
ATOM     23  O   UNL     1       1.922   7.644  20.294  0.00  0.00    +0.000 OA
BRANCH  23  25
ATOM     24  O   UNL     1      -0.338   8.174  21.528  0.00  0.00    +0.000 OA
ATOM     25  P   UNL     1       1.027   8.636  21.163  0.00  0.00    +0.000 P 
BRANCH  25  26
ATOM     26  O   UNL     1       0.982   9.983  20.294  0.00  0.00    +0.000 OA
ATOM     27  H   UNL     1       0.834   9.780  19.349  0.00  0.00    +0.000 HD
ENDBRANCH  25  26
BRANCH  25  28
ATOM     28  O   UNL     1       1.927   9.103  22.400  0.00  0.00    +0.000 OA
ATOM     29  H   UNL     1       1.856  10.065  22.551  0.00  0.00    +0.000 HD
ENDBRANCH  25  28
ENDBRANCH  23  25
ENDBRANCH  22  23
ENDBRANCH   1  22
TORSDOF 9
ENDMDL
MODEL 9
REMARK VINA RESULT:      -7.0      2.983      4.468
REMARK  Name = 
REMARK  9 active torsions:
REMARK  status: ('A' for Active; 'I' for Inactive)
REMARK    1  A    between atoms: P_2  and  O_3
REMARK    2  A    between atoms: P_2  and  O_4
REMARK    3  A    between atoms: P_2  and  O_5
REMARK    4  A    between atoms: O_5  and  C_6
REMARK    5  A    between atoms: C_6  and  C_7
REMARK    6  A    between atoms: C_10  and  N_11
REMARK    7  A    between atoms: C_15  and  O_16
REMARK    8  A    between atoms: C_21  and  O_22
REMARK    9  A    between atoms: C_23  and  O_24
REMARK                            x       y       z     vdW  Elec       q    Type
REMARK                         _______ _______ _______ _____ _____    ______ ____
ROOT
ATOM      1  C   UNL     1       5.620   4.509  18.012  0.00  0.00    +0.000 C 
ATOM      2  C   UNL     1       5.970   4.571  19.500  0.00  0.00    +0.000 C 
ATOM      3  C   UNL     1       5.000   5.554  18.948  0.00  0.00    +0.000 C 
ATOM      4  C   UNL     1       3.514   5.242  19.053  0.00  0.00    +0.000 C 
ATOM      5  C   UNL     1       3.193   4.718  17.645  0.00  0.00    +0.000 C 
ATOM      6  C   UNL     1       4.420   3.796  17.395  0.00  0.00    +0.000 C 
ENDROOT
BRANCH   4   7
ATOM      7  N   UNL     1       2.653   6.278  19.574  0.00  0.00    +0.000 N 
ATOM      8  C   UNL     1       1.940   6.170  20.747  0.00  0.00    +0.000 A 
ATOM      9  N   UNL     1       1.252   7.259  21.019  0.00  0.00    +0.000 NA
ATOM     10  C   UNL     1       1.498   8.082  19.946  0.00  0.00    +0.000 A 
ATOM     11  C   UNL     1       1.057   9.363  19.634  0.00  0.00    +0.000 A 
ATOM     12  N   UNL     1       1.448   9.960  18.493  0.00  0.00    +0.000 NA
ATOM     13  C   UNL     1       2.277   9.260  17.690  0.00  0.00    +0.000 A 
ATOM     14  N   UNL     1       2.791   8.022  17.876  0.00  0.00    +0.000 NA
ATOM     15  C   UNL     1       2.354   7.491  19.030  0.00  0.00    +0.000 A 
BRANCH  11  16
ATOM     16  O   UNL     1       0.219  10.068  20.462  0.00  0.00    +0.000 OA
ATOM     17  H   UNL     1      -0.675   9.823  20.161  0.00  0.00    +0.000 HD
ENDBRANCH  11  16
ENDBRANCH   4   7
BRANCH   5  18
ATOM     18  O   UNL     1       1.984   3.960  17.605  0.00  0.00    +0.000 OA
ATOM     19  H   UNL     1       2.205   3.100  18.023  0.00  0.00    +0.000 HD
ENDBRANCH   5  18
BRANCH   6  20
ATOM     20  O   UNL     1       4.134   2.573  18.083  0.00  0.00    +0.000 OA
ATOM     21  H   UNL     1       3.423   2.114  17.600  0.00  0.00    +0.000 HD
ENDBRANCH   6  20
BRANCH   1  22
ATOM     22  C   UNL     1       6.812   4.692  17.101  0.00  0.00    +0.000 C 
BRANCH  22  23
ATOM     23  O   UNL     1       6.630   3.944  15.898  0.00  0.00    +0.000 OA
BRANCH  23  25
ATOM     24  O   UNL     1       6.202   3.891  13.305  0.00  0.00    +0.000 OA
ATOM     25  P   UNL     1       6.508   4.712  14.507  0.00  0.00    +0.000 P 
BRANCH  25  26
ATOM     26  O   UNL     1       7.911   5.474  14.358  0.00  0.00    +0.000 OA
ATOM     27  H   UNL     1       7.778   6.443  14.337  0.00  0.00    +0.000 HD
ENDBRANCH  25  26
BRANCH  25  28
ATOM     28  O   UNL     1       5.516   5.943  14.745  0.00  0.00    +0.000 OA
ATOM     29  H   UNL     1       5.852   6.544  15.437  0.00  0.00    +0.000 HD
ENDBRANCH  25  28
ENDBRANCH  23  25
ENDBRANCH  22  23
ENDBRANCH   1  22
TORSDOF 9
ENDMDL
