MODEL 1
REMARK VINA RESULT:      -8.4      0.000      0.000
REMARK  Name = 
REMARK  7 active torsions:
REMARK  status: ('A' for Active; 'I' for Inactive)
REMARK    1  A    between atoms: C_1  and  O_2
REMARK    2  A    between atoms: O_2  and  C_3
REMARK    3  A    between atoms: C_5  and  C_6
REMARK    4  A    between atoms: C_6  and  C_7
REMARK    5  A    between atoms: C_6  and  N_15
REMARK    6  A    between atoms: C_7  and  C_8
REMARK    7  A    between atoms: C_16  and  C_17
REMARK                            x       y       z     vdW  Elec       q    Type
REMARK                         _______ _______ _______ _____ _____    ______ ____
ROOT
ATOM      1  C   UNL     1       5.842   4.615  16.415  0.00  0.00    +0.000 C 
ENDROOT
BRANCH   1   4
ATOM      2  C   UNL     1       6.283   3.726  12.708  0.00  0.00    +0.000 A 
ATOM      3  C   UNL     1       5.690   3.852  14.013  0.00  0.00    +0.000 A 
ATOM      4  C   UNL     1       6.290   4.587  14.961  0.00  0.00    +0.000 A 
ATOM      5  O   UNL     1       7.455   5.342  14.658  0.00  0.00    +0.000 OA
ATOM      6  C   UNL     1       7.979   5.344  13.394  0.00  0.00    +0.000 A 
ATOM      7  O   UNL     1       8.935   6.046  13.085  0.00  0.00    +0.000 OA
ATOM      8  C   UNL     1       7.377   4.437  12.404  0.00  0.00    +0.000 A 
BRANCH   2  10
ATOM      9  C   UNL     1       4.361   3.123  11.421  0.00  0.00    +0.000 C 
ATOM     10  O   UNL     1       5.651   2.796  11.923  0.00  0.00    +0.000 OA
ENDBRANCH   2  10
ENDBRANCH   1   4
BRANCH   1  11
ATOM     11  N   UNL     1       6.823   5.420  17.129  0.00  0.00    +0.000 N 
ATOM     12  C   UNL     1       7.059   5.260  18.473  0.00  0.00    +0.000 C 
ATOM     13  C   UNL     1       8.142   6.145  19.025  0.00  0.00    +0.000 C 
ATOM     14  O   UNL     1       6.435   4.481  19.188  0.00  0.00    +0.000 OA
ATOM     15  H   UNL     1       7.463   5.979  16.577  0.00  0.00    +0.000 HD
ENDBRANCH   1  11
BRANCH   1  16
ATOM     16  C   UNL     1       4.408   5.170  16.581  0.00  0.00    +0.000 C 
BRANCH  16  17
ATOM     17  C   UNL     1       3.445   4.310  17.382  0.00  0.00    +0.000 A 
ATOM     18  C   UNL     1       3.564   2.910  17.307  0.00  0.00    +0.000 A 
ATOM     19  C   UNL     1       2.622   2.075  17.915  0.00  0.00    +0.000 A 
ATOM     20  C   UNL     1       1.555   2.621  18.623  0.00  0.00    +0.000 A 
ATOM     21  C   UNL     1       1.449   4.004  18.751  0.00  0.00    +0.000 A 
ATOM     22  C   UNL     1       2.390   4.847  18.144  0.00  0.00    +0.000 A 
ATOM     23 CL   UNL     1       2.183   6.547  18.360  0.00  0.00    +0.000 Cl
ENDBRANCH  16  17
ENDBRANCH   1  16
TORSDOF 5
ENDMDL
MODEL 2
REMARK VINA RESULT:      -8.3      1.014      1.068
REMARK  Name = 
REMARK  7 active torsions:
REMARK  status: ('A' for Active; 'I' for Inactive)
REMARK    1  A    between atoms: C_1  and  O_2
REMARK    2  A    between atoms: O_2  and  C_3
REMARK    3  A    between atoms: C_5  and  C_6
REMARK    4  A    between atoms: C_6  and  C_7
REMARK    5  A    between atoms: C_6  and  N_15
REMARK    6  A    between atoms: C_7  and  C_8
REMARK    7  A    between atoms: C_16  and  C_17
REMARK                            x       y       z     vdW  Elec       q    Type
REMARK                         _______ _______ _______ _____ _____    ______ ____
ROOT
ATOM      1  C   UNL     1       5.914   4.508  16.381  0.00  0.00    +0.000 C 
ENDROOT
BRANCH   1   4
ATOM      2  C   UNL     1       6.256   3.710  12.642  0.00  0.00    +0.000 A 
ATOM      3  C   UNL     1       5.699   3.802  13.966  0.00  0.00    +0.000 A 
ATOM      4  C   UNL     1       6.322   4.517  14.915  0.00  0.00    +0.000 A 
ATOM      5  O   UNL     1       7.475   5.284  14.598  0.00  0.00    +0.000 OA
ATOM      6  C   UNL     1       7.964   5.319  13.320  0.00  0.00    +0.000 A 
ATOM      7  O   UNL     1       8.908   6.032  13.002  0.00  0.00    +0.000 OA
ATOM      8  C   UNL     1       7.338   4.432  12.326  0.00  0.00    +0.000 A 
BRANCH   2  10
ATOM      9  C   UNL     1       4.319   3.145  11.361  0.00  0.00    +0.000 C 
ATOM     10  O   UNL     1       5.607   2.795  11.854  0.00  0.00    +0.000 OA
ENDBRANCH   2  10
ENDBRANCH   1   4
BRANCH   1  11
ATOM     11  N   UNL     1       6.521   5.689  16.980  0.00  0.00    +0.000 N 
ATOM     12  C   UNL     1       7.419   5.601  18.017  0.00  0.00    +0.000 C 
ATOM     13  C   UNL     1       7.977   6.921  18.470  0.00  0.00    +0.000 C 
ATOM     14  O   UNL     1       7.736   4.545  18.557  0.00  0.00    +0.000 OA
ATOM     15  H   UNL     1       6.408   6.572  16.496  0.00  0.00    +0.000 HD
ENDBRANCH   1  11
BRANCH   1  16
ATOM     16  C   UNL     1       4.379   4.491  16.567  0.00  0.00    +0.000 C 
BRANCH  16  17
ATOM     17  C   UNL     1       3.879   4.343  17.994  0.00  0.00    +0.000 A 
ATOM     18  C   UNL     1       4.053   3.111  18.649  0.00  0.00    +0.000 A 
ATOM     19  C   UNL     1       3.493   2.880  19.909  0.00  0.00    +0.000 A 
ATOM     20  C   UNL     1       2.764   3.881  20.545  0.00  0.00    +0.000 A 
ATOM     21  C   UNL     1       2.624   5.126  19.935  0.00  0.00    +0.000 A 
ATOM     22  C   UNL     1       3.183   5.363  18.671  0.00  0.00    +0.000 A 
ATOM     23 CL   UNL     1       2.965   6.936  17.994  0.00  0.00    +0.000 Cl
ENDBRANCH  16  17
ENDBRANCH   1  16
TORSDOF 5
ENDMDL
MODEL 3
REMARK VINA RESULT:      -8.1      1.478      1.847
REMARK  Name = 
REMARK  7 active torsions:
REMARK  status: ('A' for Active; 'I' for Inactive)
REMARK    1  A    between atoms: C_1  and  O_2
REMARK    2  A    between atoms: O_2  and  C_3
REMARK    3  A    between atoms: C_5  and  C_6
REMARK    4  A    between atoms: C_6  and  C_7
REMARK    5  A    between atoms: C_6  and  N_15
REMARK    6  A    between atoms: C_7  and  C_8
REMARK    7  A    between atoms: C_16  and  C_17
REMARK                            x       y       z     vdW  Elec       q    Type
REMARK                         _______ _______ _______ _____ _____    ______ ____
ROOT
ATOM      1  C   UNL     1       5.760   4.423  16.277  0.00  0.00    +0.000 C 
ENDROOT
BRANCH   1   4
ATOM      2  C   UNL     1       6.289   3.692  12.546  0.00  0.00    +0.000 A 
ATOM      3  C   UNL     1       5.667   3.760  13.842  0.00  0.00    +0.000 A 
ATOM      4  C   UNL     1       6.241   4.458  14.833  0.00  0.00    +0.000 A 
ATOM      5  O   UNL     1       7.406   5.232  14.588  0.00  0.00    +0.000 OA
ATOM      6  C   UNL     1       7.958   5.291  13.337  0.00  0.00    +0.000 A 
ATOM      7  O   UNL     1       8.916   6.011  13.079  0.00  0.00    +0.000 OA
ATOM      8  C   UNL     1       7.384   4.421  12.297  0.00  0.00    +0.000 A 
BRANCH   2  10
ATOM      9  C   UNL     1       4.334   3.047  11.331  0.00  0.00    +0.000 C 
ATOM     10  O   UNL     1       5.682   2.791  11.710  0.00  0.00    +0.000 OA
ENDBRANCH   2  10
ENDBRANCH   1   4
BRANCH   1  11
ATOM     11  N   UNL     1       6.331   5.595  16.925  0.00  0.00    +0.000 N 
ATOM     12  C   UNL     1       7.330   5.495  17.863  0.00  0.00    +0.000 C 
ATOM     13  C   UNL     1       7.828   6.815  18.385  0.00  0.00    +0.000 C 
ATOM     14  O   UNL     1       7.779   4.428  18.271  0.00  0.00    +0.000 OA
ATOM     15  H   UNL     1       6.104   6.504  16.538  0.00  0.00    +0.000 HD
ENDBRANCH   1  11
BRANCH   1  16
ATOM     16  C   UNL     1       4.218   4.397  16.385  0.00  0.00    +0.000 C 
BRANCH  16  17
ATOM     17  C   UNL     1       3.644   4.473  17.790  0.00  0.00    +0.000 A 
ATOM     18  C   UNL     1       3.384   5.738  18.348  0.00  0.00    +0.000 A 
ATOM     19  C   UNL     1       2.984   5.869  19.681  0.00  0.00    +0.000 A 
ATOM     20  C   UNL     1       2.821   4.738  20.476  0.00  0.00    +0.000 A 
ATOM     21  C   UNL     1       3.024   3.473  19.928  0.00  0.00    +0.000 A 
ATOM     22  C   UNL     1       3.425   3.337  18.592  0.00  0.00    +0.000 A 
ATOM     23 CL   UNL     1       3.647   1.732  17.994  0.00  0.00    +0.000 Cl
ENDBRANCH  16  17
ENDBRANCH   1  16
TORSDOF 5
ENDMDL
MODEL 4
REMARK VINA RESULT:      -7.8      3.031      5.336
REMARK  Name = 
REMARK  7 active torsions:
REMARK  status: ('A' for Active; 'I' for Inactive)
REMARK    1  A    between atoms: C_1  and  O_2
REMARK    2  A    between atoms: O_2  and  C_3
REMARK    3  A    between atoms: C_5  and  C_6
REMARK    4  A    between atoms: C_6  and  C_7
REMARK    5  A    between atoms: C_6  and  N_15
REMARK    6  A    between atoms: C_7  and  C_8
REMARK    7  A    between atoms: C_16  and  C_17
REMARK                            x       y       z     vdW  Elec       q    Type
REMARK                         _______ _______ _______ _____ _____    ______ ____
ROOT
ATOM      1  C   UNL     1       3.365   5.444  18.642  0.00  0.00    +0.000 C 
ENDROOT
BRANCH   1   4
ATOM      2  C   UNL     1       6.836   5.825  17.047  0.00  0.00    +0.000 A 
ATOM      3  C   UNL     1       5.408   5.869  17.218  0.00  0.00    +0.000 A 
ATOM      4  C   UNL     1       4.861   5.613  18.417  0.00  0.00    +0.000 A 
ATOM      5  O   UNL     1       5.686   5.407  19.555  0.00  0.00    +0.000 OA
ATOM      6  C   UNL     1       7.048   5.480  19.455  0.00  0.00    +0.000 A 
ATOM      7  O   UNL     1       7.780   5.384  20.434  0.00  0.00    +0.000 OA
ATOM      8  C   UNL     1       7.627   5.640  18.111  0.00  0.00    +0.000 A 
BRANCH   2  10
ATOM      9  C   UNL     1       6.973   4.800  14.892  0.00  0.00    +0.000 C 
ATOM     10  O   UNL     1       7.218   5.921  15.733  0.00  0.00    +0.000 OA
ENDBRANCH   2  10
ENDBRANCH   1   4
BRANCH   1  11
ATOM     11  N   UNL     1       3.156   4.036  18.949  0.00  0.00    +0.000 N 
ATOM     12  C   UNL     1       2.499   3.191  18.087  0.00  0.00    +0.000 C 
ATOM     13  C   UNL     1       2.423   1.764  18.552  0.00  0.00    +0.000 C 
ATOM     14  O   UNL     1       1.991   3.555  17.030  0.00  0.00    +0.000 OA
ATOM     15  H   UNL     1       3.664   3.646  19.733  0.00  0.00    +0.000 HD
ENDBRANCH   1  11
BRANCH   1  16
ATOM     16  C   UNL     1       2.829   6.366  19.761  0.00  0.00    +0.000 C 
BRANCH  16  17
ATOM     17  C   UNL     1       2.171   7.658  19.306  0.00  0.00    +0.000 A 
ATOM     18  C   UNL     1       2.395   8.106  17.991  0.00  0.00    +0.000 A 
ATOM     19  C   UNL     1       1.925   9.353  17.566  0.00  0.00    +0.000 A 
ATOM     20  C   UNL     1       1.210  10.166  18.440  0.00  0.00    +0.000 A 
ATOM     21  C   UNL     1       0.934   9.719  19.730  0.00  0.00    +0.000 A 
ATOM     22  C   UNL     1       1.403   8.470  20.162  0.00  0.00    +0.000 A 
ATOM     23 CL   UNL     1       1.009   7.994  21.774  0.00  0.00    +0.000 Cl
ENDBRANCH  16  17
ENDBRANCH   1  16
TORSDOF 5
ENDMDL
MODEL 5
REMARK VINA RESULT:      -7.8      2.665      4.353
REMARK  Name = 
REMARK  7 active torsions:
REMARK  status: ('A' for Active; 'I' for Inactive)
REMARK    1  A    between atoms: C_1  and  O_2
REMARK    2  A    between atoms: O_2  and  C_3
REMARK    3  A    between atoms: C_5  and  C_6
REMARK    4  A    between atoms: C_6  and  C_7
REMARK    5  A    between atoms: C_6  and  N_15
REMARK    6  A    between atoms: C_7  and  C_8
REMARK    7  A    between atoms: C_16  and  C_17
REMARK                            x       y       z     vdW  Elec       q    Type
REMARK                         _______ _______ _______ _____ _____    ______ ____
ROOT
ATOM      1  C   UNL     1       3.324   6.404  18.367  0.00  0.00    +0.000 C 
ENDROOT
BRANCH   1   4
ATOM      2  C   UNL     1       6.288   5.634  16.053  0.00  0.00    +0.000 A 
ATOM      3  C   UNL     1       5.010   6.114  16.510  0.00  0.00    +0.000 A 
ATOM      4  C   UNL     1       4.711   6.103  17.818  0.00  0.00    +0.000 A 
ATOM      5  O   UNL     1       5.689   5.728  18.777  0.00  0.00    +0.000 OA
ATOM      6  C   UNL     1       6.954   5.383  18.389  0.00  0.00    +0.000 A 
ATOM      7  O   UNL     1       7.839   5.131  19.200  0.00  0.00    +0.000 OA
ATOM      8  C   UNL     1       7.223   5.284  16.946  0.00  0.00    +0.000 A 
BRANCH   2  10
ATOM      9  C   UNL     1       6.427   4.229  14.125  0.00  0.00    +0.000 C 
ATOM     10  O   UNL     1       6.362   5.534  14.688  0.00  0.00    +0.000 OA
ENDBRANCH   2  10
ENDBRANCH   1   4
BRANCH   1  11
ATOM     11  N   UNL     1       2.948   7.706  17.834  0.00  0.00    +0.000 N 
ATOM     12  C   UNL     1       2.164   8.585  18.541  0.00  0.00    +0.000 C 
ATOM     13  C   UNL     1       1.924   9.899  17.851  0.00  0.00    +0.000 C 
ATOM     14  O   UNL     1       1.673   8.332  19.637  0.00  0.00    +0.000 OA
ATOM     15  H   UNL     1       3.428   8.029  17.002  0.00  0.00    +0.000 HD
ENDBRANCH   1  11
BRANCH   1  16
ATOM     16  C   UNL     1       2.294   5.311  18.000  0.00  0.00    +0.000 C 
BRANCH  16  17
ATOM     17  C   UNL     1       2.009   4.272  19.073  0.00  0.00    +0.000 A 
ATOM     18  C   UNL     1       1.653   4.709  20.361  0.00  0.00    +0.000 A 
ATOM     19  C   UNL     1       1.513   3.802  21.416  0.00  0.00    +0.000 A 
ATOM     20  C   UNL     1       1.710   2.441  21.198  0.00  0.00    +0.000 A 
ATOM     21  C   UNL     1       2.014   1.983  19.918  0.00  0.00    +0.000 A 
ATOM     22  C   UNL     1       2.155   2.888  18.858  0.00  0.00    +0.000 A 
ATOM     23 CL   UNL     1       2.527   2.232  17.304  0.00  0.00    +0.000 Cl
ENDBRANCH  16  17
ENDBRANCH   1  16
TORSDOF 5
ENDMDL
MODEL 6
REMARK VINA RESULT:      -7.8      1.312      1.338
REMARK  Name = 
REMARK  7 active torsions:
REMARK  status: ('A' for Active; 'I' for Inactive)
REMARK    1  A    between atoms: C_1  and  O_2
REMARK    2  A    between atoms: O_2  and  C_3
REMARK    3  A    between atoms: C_5  and  C_6
REMARK    4  A    between atoms: C_6  and  C_7
REMARK    5  A    between atoms: C_6  and  N_15
REMARK    6  A    between atoms: C_7  and  C_8
REMARK    7  A    between atoms: C_16  and  C_17
REMARK                            x       y       z     vdW  Elec       q    Type
REMARK                         _______ _______ _______ _____ _____    ______ ____
ROOT
ATOM      1  C   UNL     1       5.893   5.423  16.395  0.00  0.00    +0.000 C 
ENDROOT
BRANCH   1   4
ATOM      2  C   UNL     1       6.166   3.795  12.930  0.00  0.00    +0.000 A 
ATOM      3  C   UNL     1       5.617   4.227  14.188  0.00  0.00    +0.000 A 
ATOM      4  C   UNL     1       6.304   5.071  14.972  0.00  0.00    +0.000 A 
ATOM      5  O   UNL     1       7.526   5.639  14.523  0.00  0.00    +0.000 OA
ATOM      6  C   UNL     1       8.019   5.347  13.280  0.00  0.00    +0.000 A 
ATOM      7  O   UNL     1       9.029   5.881  12.837  0.00  0.00    +0.000 OA
ATOM      8  C   UNL     1       7.314   4.326  12.489  0.00  0.00    +0.000 A 
BRANCH   2  10
ATOM      9  C   UNL     1       4.412   3.172  11.431  0.00  0.00    +0.000 C 
ATOM     10  O   UNL     1       5.434   2.794  12.345  0.00  0.00    +0.000 OA
ENDBRANCH   2  10
ENDBRANCH   1   4
BRANCH   1  11
ATOM     11  N   UNL     1       6.440   6.747  16.662  0.00  0.00    +0.000 N 
ATOM     12  C   UNL     1       7.397   6.959  17.624  0.00  0.00    +0.000 C 
ATOM     13  C   UNL     1       7.877   8.381  17.720  0.00  0.00    +0.000 C 
ATOM     14  O   UNL     1       7.824   6.081  18.368  0.00  0.00    +0.000 OA
ATOM     15  H   UNL     1       6.233   7.483  15.997  0.00  0.00    +0.000 HD
ENDBRANCH   1  11
BRANCH   1  16
ATOM     16  C   UNL     1       4.361   5.380  16.595  0.00  0.00    +0.000 C 
BRANCH  16  17
ATOM     17  C   UNL     1       3.832   4.264  17.480  0.00  0.00    +0.000 A 
ATOM     18  C   UNL     1       3.142   3.194  16.881  0.00  0.00    +0.000 A 
ATOM     19  C   UNL     1       2.520   2.213  17.660  0.00  0.00    +0.000 A 
ATOM     20  C   UNL     1       2.589   2.275  19.049  0.00  0.00    +0.000 A 
ATOM     21  C   UNL     1       3.311   3.298  19.659  0.00  0.00    +0.000 A 
ATOM     22  C   UNL     1       3.936   4.284  18.884  0.00  0.00    +0.000 A 
ATOM     23 CL   UNL     1       4.813   5.511  19.724  0.00  0.00    +0.000 Cl
ENDBRANCH  16  17
ENDBRANCH   1  16
TORSDOF 5
ENDMDL
MODEL 7
REMARK VINA RESULT:      -7.7      2.885      4.106
REMARK  Name = 
REMARK  7 active torsions:
REMARK  status: ('A' for Active; 'I' for Inactive)
REMARK    1  A    between atoms: C_1  and  O_2
REMARK    2  A    between atoms: O_2  and  C_3
REMARK    3  A    between atoms: C_5  and  C_6
REMARK    4  A    between atoms: C_6  and  C_7
REMARK    5  A    between atoms: C_6  and  N_15
REMARK    6  A    between atoms: C_7  and  C_8
REMARK    7  A    between atoms: C_16  and  C_17
REMARK                            x       y       z     vdW  Elec       q    Type
REMARK                         _______ _______ _______ _____ _____    ______ ____
ROOT
ATOM      1  C   UNL     1       3.298   6.445  18.174  0.00  0.00    +0.000 C 
ENDROOT
BRANCH   1   4
ATOM      2  C   UNL     1       6.021   4.894  15.957  0.00  0.00    +0.000 A 
ATOM      3  C   UNL     1       4.728   5.176  16.524  0.00  0.00    +0.000 A 
ATOM      4  C   UNL     1       4.573   6.197  17.381  0.00  0.00    +0.000 A 
ATOM      5  O   UNL     1       5.652   7.081  17.651  0.00  0.00    +0.000 OA
ATOM      6  C   UNL     1       6.863   6.917  17.035  0.00  0.00    +0.000 A 
ATOM      7  O   UNL     1       7.786   7.709  17.189  0.00  0.00    +0.000 OA
ATOM      8  C   UNL     1       7.046   5.722  16.196  0.00  0.00    +0.000 A 
BRANCH   2  10
ATOM      9  C   UNL     1       6.182   3.788  13.845  0.00  0.00    +0.000 C 
ATOM     10  O   UNL     1       6.050   3.714  15.259  0.00  0.00    +0.000 OA
ENDBRANCH   2  10
ENDBRANCH   1   4
BRANCH   1  11
ATOM     11  N   UNL     1       2.782   7.731  17.723  0.00  0.00    +0.000 N 
ATOM     12  C   UNL     1       2.065   8.559  18.552  0.00  0.00    +0.000 C 
ATOM     13  C   UNL     1       1.659   9.865  17.927  0.00  0.00    +0.000 C 
ATOM     14  O   UNL     1       1.753   8.270  19.704  0.00  0.00    +0.000 OA
ATOM     15  H   UNL     1       3.117   8.087  16.837  0.00  0.00    +0.000 HD
ENDBRANCH   1  11
BRANCH   1  16
ATOM     16  C   UNL     1       2.262   5.312  17.996  0.00  0.00    +0.000 C 
BRANCH  16  17
ATOM     17  C   UNL     1       2.148   4.323  19.143  0.00  0.00    +0.000 A 
ATOM     18  C   UNL     1       1.950   4.816  20.446  0.00  0.00    +0.000 A 
ATOM     19  C   UNL     1       1.973   3.960  21.551  0.00  0.00    +0.000 A 
ATOM     20  C   UNL     1       2.177   2.594  21.374  0.00  0.00    +0.000 A 
ATOM     21  C   UNL     1       2.323   2.079  20.088  0.00  0.00    +0.000 A 
ATOM     22  C   UNL     1       2.302   2.933  18.976  0.00  0.00    +0.000 A 
ATOM     23 CL   UNL     1       2.485   2.208  17.420  0.00  0.00    +0.000 Cl
ENDBRANCH  16  17
ENDBRANCH   1  16
TORSDOF 5
ENDMDL
MODEL 8
REMARK VINA RESULT:      -7.7      2.866      4.664
REMARK  Name = 
REMARK  7 active torsions:
REMARK  status: ('A' for Active; 'I' for Inactive)
REMARK    1  A    between atoms: C_1  and  O_2
REMARK    2  A    between atoms: O_2  and  C_3
REMARK    3  A    between atoms: C_5  and  C_6
REMARK    4  A    between atoms: C_6  and  C_7
REMARK    5  A    between atoms: C_6  and  N_15
REMARK    6  A    between atoms: C_7  and  C_8
REMARK    7  A    between atoms: C_16  and  C_17
REMARK                            x       y       z     vdW  Elec       q    Type
REMARK                         _______ _______ _______ _____ _____    ______ ____
ROOT
ATOM      1  C   UNL     1       3.365   6.255  18.183  0.00  0.00    +0.000 C 
ENDROOT
BRANCH   1   4
ATOM      2  C   UNL     1       6.892   6.401  16.675  0.00  0.00    +0.000 A 
ATOM      3  C   UNL     1       5.758   6.699  17.510  0.00  0.00    +0.000 A 
ATOM      4  C   UNL     1       4.674   5.909  17.487  0.00  0.00    +0.000 A 
ATOM      5  O   UNL     1       4.673   4.708  16.728  0.00  0.00    +0.000 OA
ATOM      6  C   UNL     1       5.779   4.328  16.018  0.00  0.00    +0.000 A 
ATOM      7  O   UNL     1       5.835   3.260  15.418  0.00  0.00    +0.000 OA
ATOM      8  C   UNL     1       6.910   5.269  15.959  0.00  0.00    +0.000 A 
BRANCH   2  10
ATOM      9  C   UNL     1       7.881   8.259  17.807  0.00  0.00    +0.000 C 
ATOM     10  O   UNL     1       7.829   7.401  16.673  0.00  0.00    +0.000 OA
ENDBRANCH   2  10
ENDBRANCH   1   4
BRANCH   1  11
ATOM     11  N   UNL     1       2.986   7.577  17.704  0.00  0.00    +0.000 N 
ATOM     12  C   UNL     1       2.256   8.450  18.474  0.00  0.00    +0.000 C 
ATOM     13  C   UNL     1       2.005   9.786  17.832  0.00  0.00    +0.000 C 
ATOM     14  O   UNL     1       1.816   8.175  19.587  0.00  0.00    +0.000 OA
ATOM     15  H   UNL     1       3.429   7.915  16.858  0.00  0.00    +0.000 HD
ENDBRANCH   1  11
BRANCH   1  16
ATOM     16  C   UNL     1       2.260   5.206  17.917  0.00  0.00    +0.000 C 
BRANCH  16  17
ATOM     17  C   UNL     1       1.996   4.214  19.037  0.00  0.00    +0.000 A 
ATOM     18  C   UNL     1       1.637   4.704  20.306  0.00  0.00    +0.000 A 
ATOM     19  C   UNL     1       1.515   3.843  21.401  0.00  0.00    +0.000 A 
ATOM     20  C   UNL     1       1.733   2.477  21.246  0.00  0.00    +0.000 A 
ATOM     21  C   UNL     1       2.039   1.966  19.987  0.00  0.00    +0.000 A 
ATOM     22  C   UNL     1       2.163   2.824  18.885  0.00  0.00    +0.000 A 
ATOM     23 CL   UNL     1       2.538   2.103  17.362  0.00  0.00    +0.000 Cl
ENDBRANCH  16  17
ENDBRANCH   1  16
TORSDOF 5
ENDMDL
MODEL 9
REMARK VINA RESULT:      -7.6      1.368      2.020
REMARK  Name = 
REMARK  7 active torsions:
REMARK  status: ('A' for Active; 'I' for Inactive)
REMARK    1  A    between atoms: C_1  and  O_2
REMARK    2  A    between atoms: O_2  and  C_3
REMARK    3  A    between atoms: C_5  and  C_6
REMARK    4  A    between atoms: C_6  and  C_7
REMARK    5  A    between atoms: C_6  and  N_15
REMARK    6  A    between atoms: C_7  and  C_8
REMARK    7  A    between atoms: C_16  and  C_17
REMARK                            x       y       z     vdW  Elec       q    Type
REMARK                         _______ _______ _______ _____ _____    ______ ____
ROOT
ATOM      1  C   UNL     1       6.350   4.250  16.438  0.00  0.00    +0.000 C 
ENDROOT
BRANCH   1   4
ATOM      2  C   UNL     1       6.268   3.696  12.641  0.00  0.00    +0.000 A 
ATOM      3  C   UNL     1       5.871   3.684  14.025  0.00  0.00    +0.000 A 
ATOM      4  C   UNL     1       6.579   4.365  14.938  0.00  0.00    +0.000 A 
ATOM      5  O   UNL     1       7.659   5.198  14.538  0.00  0.00    +0.000 OA
ATOM      6  C   UNL     1       7.988   5.331  13.217  0.00  0.00    +0.000 A 
ATOM      7  O   UNL     1       8.863   6.102  12.838  0.00  0.00    +0.000 OA
ATOM      8  C   UNL     1       7.279   4.481  12.248  0.00  0.00    +0.000 A 
BRANCH   2  10
ATOM      9  C   UNL     1       4.272   3.202  11.423  0.00  0.00    +0.000 C 
ATOM     10  O   UNL     1       5.560   2.805  11.876  0.00  0.00    +0.000 OA
ENDBRANCH   2  10
ENDBRANCH   1   4
BRANCH   1  11
ATOM     11  N   UNL     1       6.763   5.524  17.012  0.00  0.00    +0.000 N 
ATOM     12  C   UNL     1       7.567   5.596  18.124  0.00  0.00    +0.000 C 
ATOM     13  C   UNL     1       7.928   6.995  18.540  0.00  0.00    +0.000 C 
ATOM     14  O   UNL     1       7.953   4.615  18.752  0.00  0.00    +0.000 OA
ATOM     15  H   UNL     1       6.594   6.361  16.467  0.00  0.00    +0.000 HD
ENDBRANCH   1  11
BRANCH   1  16
ATOM     16  C   UNL     1       4.884   3.907  16.788  0.00  0.00    +0.000 C 
BRANCH  16  17
ATOM     17  C   UNL     1       4.054   5.035  17.376  0.00  0.00    +0.000 A 
ATOM     18  C   UNL     1       4.247   6.342  16.892  0.00  0.00    +0.000 A 
ATOM     19  C   UNL     1       3.608   7.432  17.491  0.00  0.00    +0.000 A 
ATOM     20  C   UNL     1       2.754   7.236  18.572  0.00  0.00    +0.000 A 
ATOM     21  C   UNL     1       2.511   5.944  19.034  0.00  0.00    +0.000 A 
ATOM     22  C   UNL     1       3.148   4.847  18.438  0.00  0.00    +0.000 A 
ATOM     23 CL   UNL     1       2.783   3.283  19.070  0.00  0.00    +0.000 Cl
ENDBRANCH  16  17
ENDBRANCH   1  16
TORSDOF 5
ENDMDL
