MODEL 1
REMARK VINA RESULT:      -8.6      0.000      0.000
REMARK  Name = 
REMARK  9 active torsions:
REMARK  status: ('A' for Active; 'I' for Inactive)
REMARK    1  A    between atoms: C_2  and  O_3
REMARK    2  A    between atoms: C_2  and  C_4
REMARK    3  A    between atoms: C_4  and  C_5
REMARK    4  A    between atoms: C_5  and  C_6
REMARK    5  A    between atoms: C_5  and  C_24
REMARK    6  A    between atoms: C_6  and  C_7
REMARK    7  A    between atoms: N_9  and  C_10
REMARK    8  A    between atoms: C_13  and  O_14
REMARK    9  A    between atoms: O_14  and  C_15
REMARK                            x       y       z     vdW  Elec       q    Type
REMARK                         _______ _______ _______ _____ _____    ______ ____
ROOT
ATOM      1  C   UNL     1       2.524   4.745  20.174  0.00  0.00    +0.000 C 
ATOM      2  O   UNL     1       3.048   3.839  20.824  0.00  0.00    +0.000 OA
ATOM      3  N   UNL     1       2.581   6.038  20.641  0.00  0.00    +0.000 N 
ATOM      4  H   UNL     1       3.282   6.168  21.364  0.00  0.00    +0.000 HD
ENDROOT
BRANCH   3   5
ATOM      5  C   UNL     1       1.913   7.187  20.175  0.00  0.00    +0.000 A 
ATOM      6  C   UNL     1       2.169   7.758  18.926  0.00  0.00    +0.000 A 
ATOM      7  C   UNL     1       1.626   8.986  18.571  0.00  0.00    +0.000 A 
ATOM      8  C   UNL     1       0.720   9.601  19.420  0.00  0.00    +0.000 A 
ATOM      9  C   UNL     1       0.382   9.007  20.639  0.00  0.00    +0.000 A 
ATOM     10  C   UNL     1       0.962   7.787  21.005  0.00  0.00    +0.000 A 
BRANCH   8  11
ATOM     11  O   UNL     1       0.247  10.814  18.994  0.00  0.00    +0.000 OA
BRANCH  11  12
ATOM     12  C   UNL     1      -1.054  10.912  18.570  0.00  0.00    +0.000 A 
ATOM     13  C   UNL     1      -1.825  11.846  19.265  0.00  0.00    +0.000 A 
ATOM     14  C   UNL     1      -3.177  11.994  18.963  0.00  0.00    +0.000 A 
ATOM     15  C   UNL     1      -3.749  11.209  17.963  0.00  0.00    +0.000 A 
ATOM     16 CL   UNL     1      -5.432  11.341  17.634  0.00  0.00    +0.000 Cl
ATOM     17  C   UNL     1      -2.972  10.315  17.230  0.00  0.00    +0.000 A 
ATOM     18  C   UNL     1      -1.613  10.188  17.513  0.00  0.00    +0.000 A 
ENDBRANCH  11  12
ENDBRANCH   8  11
ENDBRANCH   3   5
BRANCH   1  19
ATOM     19  C   UNL     1       1.781   4.453  18.879  0.00  0.00    +0.000 C 
BRANCH  19  20
ATOM     20  C   UNL     1       2.638   4.214  17.623  0.00  0.00    +0.000 C 
BRANCH  20  21
ATOM     21  C   UNL     1       4.002   4.901  17.747  0.00  0.00    +0.000 A 
ATOM     22  C   UNL     1       5.060   4.326  18.465  0.00  0.00    +0.000 A 
ATOM     23  C   UNL     1       6.292   4.976  18.579  0.00  0.00    +0.000 A 
ATOM     24  C   UNL     1       6.484   6.216  17.981  0.00  0.00    +0.000 A 
ATOM     25 CL   UNL     1       7.995   7.019  18.148  0.00  0.00    +0.000 Cl
ATOM     26  C   UNL     1       5.461   6.804  17.249  0.00  0.00    +0.000 A 
ATOM     27  C   UNL     1       4.235   6.143  17.119  0.00  0.00    +0.000 A 
ENDBRANCH  20  21
BRANCH  20  28
ATOM     28  C   UNL     1       2.682   2.736  17.196  0.00  0.00    +0.000 C 
BRANCH  28  30
ATOM     29  O   UNL     1       3.824   1.321  18.774  0.00  0.00    +0.000 OA
ATOM     30  C   UNL     1       2.783   1.808  18.379  0.00  0.00    +0.000 C 
BRANCH  30  31
ATOM     31  O   UNL     1       1.588   1.528  18.940  0.00  0.00    +0.000 OA
ATOM     32  H   UNL     1       0.820   1.927  18.475  0.00  0.00    +0.000 HD
ENDBRANCH  30  31
ENDBRANCH  28  30
ENDBRANCH  20  28
ENDBRANCH  19  20
ENDBRANCH   1  19
TORSDOF 9
ENDMDL
MODEL 2
REMARK VINA RESULT:      -8.5      0.766      1.796
REMARK  Name = 
REMARK  9 active torsions:
REMARK  status: ('A' for Active; 'I' for Inactive)
REMARK    1  A    between atoms: C_2  and  O_3
REMARK    2  A    between atoms: C_2  and  C_4
REMARK    3  A    between atoms: C_4  and  C_5
REMARK    4  A    between atoms: C_5  and  C_6
REMARK    5  A    between atoms: C_5  and  C_24
REMARK    6  A    between atoms: C_6  and  C_7
REMARK    7  A    between atoms: N_9  and  C_10
REMARK    8  A    between atoms: C_13  and  O_14
REMARK    9  A    between atoms: O_14  and  C_15
REMARK                            x       y       z     vdW  Elec       q    Type
REMARK                         _______ _______ _______ _____ _____    ______ ____
ROOT
ATOM      1  C   UNL     1       2.171   5.329  20.659  0.00  0.00    +0.000 C 
ATOM      2  O   UNL     1       2.383   4.400  21.440  0.00  0.00    +0.000 OA
ATOM      3  N   UNL     1       1.963   6.597  21.150  0.00  0.00    +0.000 N 
ATOM      4  H   UNL     1       2.261   6.703  22.115  0.00  0.00    +0.000 HD
ENDROOT
BRANCH   3   5
ATOM      5  C   UNL     1       1.530   7.757  20.478  0.00  0.00    +0.000 A 
ATOM      6  C   UNL     1       0.578   8.630  21.009  0.00  0.00    +0.000 A 
ATOM      7  C   UNL     1       0.045   9.662  20.249  0.00  0.00    +0.000 A 
ATOM      8  C   UNL     1       0.550   9.907  18.982  0.00  0.00    +0.000 A 
ATOM      9  C   UNL     1       1.565   9.099  18.460  0.00  0.00    +0.000 A 
ATOM     10  C   UNL     1       2.071   8.038  19.220  0.00  0.00    +0.000 A 
BRANCH   8  11
ATOM     11  O   UNL     1      -0.045  10.936  18.302  0.00  0.00    +0.000 OA
BRANCH  11  12
ATOM     12  C   UNL     1      -1.414  11.018  18.280  0.00  0.00    +0.000 A 
ATOM     13  C   UNL     1      -2.045  10.046  17.501  0.00  0.00    +0.000 A 
ATOM     14  C   UNL     1      -3.430  10.063  17.355  0.00  0.00    +0.000 A 
ATOM     15  C   UNL     1      -4.178  11.051  17.993  0.00  0.00    +0.000 A 
ATOM     16 CL   UNL     1      -5.880  11.116  17.760  0.00  0.00    +0.000 Cl
ATOM     17  C   UNL     1      -3.559  11.991  18.815  0.00  0.00    +0.000 A 
ATOM     18  C   UNL     1      -2.176  11.955  18.984  0.00  0.00    +0.000 A 
ENDBRANCH  11  12
ENDBRANCH   8  11
ENDBRANCH   3   5
BRANCH   1  19
ATOM     19  C   UNL     1       2.098   5.091  19.158  0.00  0.00    +0.000 C 
BRANCH  19  20
ATOM     20  C   UNL     1       3.268   4.322  18.517  0.00  0.00    +0.000 C 
BRANCH  20  21
ATOM     21  C   UNL     1       4.447   5.255  18.224  0.00  0.00    +0.000 A 
ATOM     22  C   UNL     1       4.428   6.162  17.155  0.00  0.00    +0.000 A 
ATOM     23  C   UNL     1       5.519   6.995  16.895  0.00  0.00    +0.000 A 
ATOM     24  C   UNL     1       6.652   6.930  17.698  0.00  0.00    +0.000 A 
ATOM     25 CL   UNL     1       8.001   7.940  17.355  0.00  0.00    +0.000 Cl
ATOM     26  C   UNL     1       6.695   6.054  18.774  0.00  0.00    +0.000 A 
ATOM     27  C   UNL     1       5.594   5.235  19.045  0.00  0.00    +0.000 A 
ENDBRANCH  20  21
BRANCH  20  28
ATOM     28  C   UNL     1       3.624   3.029  19.272  0.00  0.00    +0.000 C 
BRANCH  28  30
ATOM     29  O   UNL     1       1.663   1.745  18.720  0.00  0.00    +0.000 OA
ATOM     30  C   UNL     1       2.875   1.835  18.737  0.00  0.00    +0.000 C 
BRANCH  30  31
ATOM     31  O   UNL     1       3.686   0.844  18.313  0.00  0.00    +0.000 OA
ATOM     32  H   UNL     1       4.421   0.632  18.929  0.00  0.00    +0.000 HD
ENDBRANCH  30  31
ENDBRANCH  28  30
ENDBRANCH  20  28
ENDBRANCH  19  20
ENDBRANCH   1  19
TORSDOF 9
ENDMDL
MODEL 3
REMARK VINA RESULT:      -8.5      3.643      7.458
REMARK  Name = 
REMARK  9 active torsions:
REMARK  status: ('A' for Active; 'I' for Inactive)
REMARK    1  A    between atoms: C_2  and  O_3
REMARK    2  A    between atoms: C_2  and  C_4
REMARK    3  A    between atoms: C_4  and  C_5
REMARK    4  A    between atoms: C_5  and  C_6
REMARK    5  A    between atoms: C_5  and  C_24
REMARK    6  A    between atoms: C_6  and  C_7
REMARK    7  A    between atoms: N_9  and  C_10
REMARK    8  A    between atoms: C_13  and  O_14
REMARK    9  A    between atoms: O_14  and  C_15
REMARK                            x       y       z     vdW  Elec       q    Type
REMARK                         _______ _______ _______ _____ _____    ______ ____
ROOT
ATOM      1  C   UNL     1       4.621   3.829  18.962  0.00  0.00    +0.000 C 
ATOM      2  O   UNL     1       4.357   2.720  19.430  0.00  0.00    +0.000 OA
ATOM      3  N   UNL     1       5.935   4.210  18.815  0.00  0.00    +0.000 N 
ATOM      4  H   UNL     1       6.583   3.430  18.868  0.00  0.00    +0.000 HD
ENDROOT
BRANCH   3   5
ATOM      5  C   UNL     1       6.468   5.471  18.483  0.00  0.00    +0.000 A 
ATOM      6  C   UNL     1       5.876   6.322  17.547  0.00  0.00    +0.000 A 
ATOM      7  C   UNL     1       6.518   7.473  17.114  0.00  0.00    +0.000 A 
ATOM      8  C   UNL     1       7.714   7.850  17.704  0.00  0.00    +0.000 A 
ATOM      9  C   UNL     1       8.285   7.059  18.705  0.00  0.00    +0.000 A 
ATOM     10  C   UNL     1       7.649   5.880  19.110  0.00  0.00    +0.000 A 
BRANCH   8  11
ATOM     11  O   UNL     1       8.281   8.992  17.204  0.00  0.00    +0.000 OA
BRANCH  11  12
ATOM     12  C   UNL     1       8.657   9.987  18.070  0.00  0.00    +0.000 A 
ATOM     13  C   UNL     1       9.056   9.543  19.332  0.00  0.00    +0.000 A 
ATOM     14  C   UNL     1       9.405  10.465  20.316  0.00  0.00    +0.000 A 
ATOM     15  C   UNL     1       9.356  11.829  20.030  0.00  0.00    +0.000 A 
ATOM     16 CL   UNL     1       9.720  12.972  21.261  0.00  0.00    +0.000 Cl
ATOM     17  C   UNL     1       9.010  12.275  18.756  0.00  0.00    +0.000 A 
ATOM     18  C   UNL     1       8.689  11.350  17.763  0.00  0.00    +0.000 A 
ENDBRANCH  11  12
ENDBRANCH   8  11
ENDBRANCH   3   5
BRANCH   1  19
ATOM     19  C   UNL     1       3.516   4.802  18.579  0.00  0.00    +0.000 C 
BRANCH  19  20
ATOM     20  C   UNL     1       2.622   5.325  19.717  0.00  0.00    +0.000 C 
BRANCH  20  21
ATOM     21  C   UNL     1       2.230   6.788  19.482  0.00  0.00    +0.000 A 
ATOM     22  C   UNL     1       1.632   7.566  20.483  0.00  0.00    +0.000 A 
ATOM     23  C   UNL     1       1.268   8.894  20.245  0.00  0.00    +0.000 A 
ATOM     24  C   UNL     1       1.493   9.465  18.997  0.00  0.00    +0.000 A 
ATOM     25 CL   UNL     1       1.020  11.092  18.705  0.00  0.00    +0.000 Cl
ATOM     26  C   UNL     1       2.100   8.725  17.991  0.00  0.00    +0.000 A 
ATOM     27  C   UNL     1       2.481   7.403  18.237  0.00  0.00    +0.000 A 
ENDBRANCH  20  21
BRANCH  20  28
ATOM     28  C   UNL     1       1.456   4.377  20.051  0.00  0.00    +0.000 C 
BRANCH  28  30
ATOM     29  O   UNL     1       2.321   3.659  22.180  0.00  0.00    +0.000 OA
ATOM     30  C   UNL     1       1.831   3.369  21.107  0.00  0.00    +0.000 C 
BRANCH  30  31
ATOM     31  O   UNL     1       1.610   2.093  20.727  0.00  0.00    +0.000 OA
ATOM     32  H   UNL     1       1.616   1.955  19.754  0.00  0.00    +0.000 HD
ENDBRANCH  30  31
ENDBRANCH  28  30
ENDBRANCH  20  28
ENDBRANCH  19  20
ENDBRANCH   1  19
TORSDOF 9
ENDMDL
MODEL 4
REMARK VINA RESULT:      -8.5      2.796      3.826
REMARK  Name = 
REMARK  9 active torsions:
REMARK  status: ('A' for Active; 'I' for Inactive)
REMARK    1  A    between atoms: C_2  and  O_3
REMARK    2  A    between atoms: C_2  and  C_4
REMARK    3  A    between atoms: C_4  and  C_5
REMARK    4  A    between atoms: C_5  and  C_6
REMARK    5  A    between atoms: C_5  and  C_24
REMARK    6  A    between atoms: C_6  and  C_7
REMARK    7  A    between atoms: N_9  and  C_10
REMARK    8  A    between atoms: C_13  and  O_14
REMARK    9  A    between atoms: O_14  and  C_15
REMARK                            x       y       z     vdW  Elec       q    Type
REMARK                         _______ _______ _______ _____ _____    ______ ____
ROOT
ATOM      1  C   UNL     1       3.979   5.423  18.726  0.00  0.00    +0.000 C 
ATOM      2  O   UNL     1       4.210   4.224  18.893  0.00  0.00    +0.000 OA
ATOM      3  N   UNL     1       2.946   6.019  19.411  0.00  0.00    +0.000 N 
ATOM      4  H   UNL     1       2.622   5.467  20.200  0.00  0.00    +0.000 HD
ENDROOT
BRANCH   3   5
ATOM      5  C   UNL     1       2.388   7.302  19.250  0.00  0.00    +0.000 A 
ATOM      6  C   UNL     1       1.750   7.987  20.287  0.00  0.00    +0.000 A 
ATOM      7  C   UNL     1       1.059   9.167  20.051  0.00  0.00    +0.000 A 
ATOM      8  C   UNL     1       1.100   9.741  18.791  0.00  0.00    +0.000 A 
ATOM      9  C   UNL     1       1.804   9.119  17.756  0.00  0.00    +0.000 A 
ATOM     10  C   UNL     1       2.469   7.910  17.994  0.00  0.00    +0.000 A 
BRANCH   8  11
ATOM     11  O   UNL     1       0.378  10.897  18.649  0.00  0.00    +0.000 OA
BRANCH  11  12
ATOM     12  C   UNL     1      -0.955  10.817  18.338  0.00  0.00    +0.000 A 
ATOM     13  C   UNL     1      -1.755  11.789  18.943  0.00  0.00    +0.000 A 
ATOM     14  C   UNL     1      -3.134  11.774  18.748  0.00  0.00    +0.000 A 
ATOM     15  C   UNL     1      -3.706  10.789  17.945  0.00  0.00    +0.000 A 
ATOM     16 CL   UNL     1      -5.414  10.727  17.758  0.00  0.00    +0.000 Cl
ATOM     17  C   UNL     1      -2.907   9.850  17.296  0.00  0.00    +0.000 A 
ATOM     18  C   UNL     1      -1.524   9.883  17.468  0.00  0.00    +0.000 A 
ENDBRANCH  11  12
ENDBRANCH   8  11
ENDBRANCH   3   5
BRANCH   1  19
ATOM     19  C   UNL     1       4.795   6.249  17.743  0.00  0.00    +0.000 C 
BRANCH  19  20
ATOM     20  C   UNL     1       6.156   5.674  17.310  0.00  0.00    +0.000 C 
BRANCH  20  21
ATOM     21  C   UNL     1       6.059   5.004  15.935  0.00  0.00    +0.000 A 
ATOM     22  C   UNL     1       4.932   4.265  15.547  0.00  0.00    +0.000 A 
ATOM     23  C   UNL     1       4.869   3.650  14.294  0.00  0.00    +0.000 A 
ATOM     24  C   UNL     1       5.936   3.758  13.409  0.00  0.00    +0.000 A 
ATOM     25 CL   UNL     1       5.860   2.976  11.880  0.00  0.00    +0.000 Cl
ATOM     26  C   UNL     1       7.059   4.497  13.758  0.00  0.00    +0.000 A 
ATOM     27  C   UNL     1       7.112   5.129  15.005  0.00  0.00    +0.000 A 
ENDBRANCH  20  21
BRANCH  20  28
ATOM     28  C   UNL     1       7.313   6.675  17.474  0.00  0.00    +0.000 C 
BRANCH  28  30
ATOM     29  O   UNL     1       7.748   5.676  19.621  0.00  0.00    +0.000 OA
ATOM     30  C   UNL     1       7.960   6.575  18.832  0.00  0.00    +0.000 C 
BRANCH  30  31
ATOM     31  O   UNL     1       8.775   7.614  19.111  0.00  0.00    +0.000 OA
ATOM     32  H   UNL     1       9.107   8.091  18.319  0.00  0.00    +0.000 HD
ENDBRANCH  30  31
ENDBRANCH  28  30
ENDBRANCH  20  28
ENDBRANCH  19  20
ENDBRANCH   1  19
TORSDOF 9
ENDMDL
MODEL 5
REMARK VINA RESULT:      -8.5      1.018      1.688
REMARK  Name = 
REMARK  9 active torsions:
REMARK  status: ('A' for Active; 'I' for Inactive)
REMARK    1  A    between atoms: C_2  and  O_3
REMARK    2  A    between atoms: C_2  and  C_4
REMARK    3  A    between atoms: C_4  and  C_5
REMARK    4  A    between atoms: C_5  and  C_6
REMARK    5  A    between atoms: C_5  and  C_24
REMARK    6  A    between atoms: C_6  and  C_7
REMARK    7  A    between atoms: N_9  and  C_10
REMARK    8  A    between atoms: C_13  and  O_14
REMARK    9  A    between atoms: O_14  and  C_15
REMARK                            x       y       z     vdW  Elec       q    Type
REMARK                         _______ _______ _______ _____ _____    ______ ____
ROOT
ATOM      1  C   UNL     1       1.913   4.793  20.743  0.00  0.00    +0.000 C 
ATOM      2  O   UNL     1       2.101   3.859  21.524  0.00  0.00    +0.000 OA
ATOM      3  N   UNL     1       2.081   6.087  21.176  0.00  0.00    +0.000 N 
ATOM      4  H   UNL     1       2.602   6.150  22.046  0.00  0.00    +0.000 HD
ENDROOT
BRANCH   3   5
ATOM      5  C   UNL     1       1.753   7.296  20.532  0.00  0.00    +0.000 A 
ATOM      6  C   UNL     1       0.933   8.266  21.113  0.00  0.00    +0.000 A 
ATOM      7  C   UNL     1       0.487   9.361  20.385  0.00  0.00    +0.000 A 
ATOM      8  C   UNL     1       0.956   9.560  19.097  0.00  0.00    +0.000 A 
ATOM      9  C   UNL     1       1.845   8.647  18.522  0.00  0.00    +0.000 A 
ATOM     10  C   UNL     1       2.262   7.527  19.251  0.00  0.00    +0.000 A 
BRANCH   8  11
ATOM     11  O   UNL     1       0.451  10.658  18.452  0.00  0.00    +0.000 OA
BRANCH  11  12
ATOM     12  C   UNL     1      -0.908  10.798  18.336  0.00  0.00    +0.000 A 
ATOM     13  C   UNL     1      -1.516   9.898  17.458  0.00  0.00    +0.000 A 
ATOM     14  C   UNL     1      -2.884   9.980  17.214  0.00  0.00    +0.000 A 
ATOM     15  C   UNL     1      -3.640  10.962  17.854  0.00  0.00    +0.000 A 
ATOM     16 CL   UNL     1      -5.317  11.111  17.504  0.00  0.00    +0.000 Cl
ATOM     17  C   UNL     1      -3.049  11.828  18.772  0.00  0.00    +0.000 A 
ATOM     18  C   UNL     1      -1.684  11.725  19.037  0.00  0.00    +0.000 A 
ENDBRANCH  11  12
ENDBRANCH   8  11
ENDBRANCH   3   5
BRANCH   1  19
ATOM     19  C   UNL     1       1.460   4.539  19.312  0.00  0.00    +0.000 C 
BRANCH  19  20
ATOM     20  C   UNL     1       2.309   3.565  18.475  0.00  0.00    +0.000 C 
BRANCH  20  21
ATOM     21  C   UNL     1       3.630   4.213  18.048  0.00  0.00    +0.000 A 
ATOM     22  C   UNL     1       4.419   4.950  18.942  0.00  0.00    +0.000 A 
ATOM     23  C   UNL     1       5.613   5.546  18.530  0.00  0.00    +0.000 A 
ATOM     24  C   UNL     1       6.037   5.418  17.212  0.00  0.00    +0.000 A 
ATOM     25 CL   UNL     1       7.496   6.175  16.707  0.00  0.00    +0.000 Cl
ATOM     26  C   UNL     1       5.287   4.679  16.306  0.00  0.00    +0.000 A 
ATOM     27  C   UNL     1       4.101   4.068  16.726  0.00  0.00    +0.000 A 
ENDBRANCH  20  21
BRANCH  20  28
ATOM     28  C   UNL     1       2.435   2.172  19.117  0.00  0.00    +0.000 C 
BRANCH  28  30
ATOM     29  O   UNL     1       4.638   2.079  20.086  0.00  0.00    +0.000 OA
ATOM     30  C   UNL     1       3.870   1.721  19.214  0.00  0.00    +0.000 C 
BRANCH  30  31
ATOM     31  O   UNL     1       4.242   0.907  18.204  0.00  0.00    +0.000 OA
ATOM     32  H   UNL     1       3.519   0.686  17.577  0.00  0.00    +0.000 HD
ENDBRANCH  30  31
ENDBRANCH  28  30
ENDBRANCH  20  28
ENDBRANCH  19  20
ENDBRANCH   1  19
TORSDOF 9
ENDMDL
MODEL 6
REMARK VINA RESULT:      -8.5      0.748      1.558
REMARK  Name = 
REMARK  9 active torsions:
REMARK  status: ('A' for Active; 'I' for Inactive)
REMARK    1  A    between atoms: C_2  and  O_3
REMARK    2  A    between atoms: C_2  and  C_4
REMARK    3  A    between atoms: C_4  and  C_5
REMARK    4  A    between atoms: C_5  and  C_6
REMARK    5  A    between atoms: C_5  and  C_24
REMARK    6  A    between atoms: C_6  and  C_7
REMARK    7  A    between atoms: N_9  and  C_10
REMARK    8  A    between atoms: C_13  and  O_14
REMARK    9  A    between atoms: O_14  and  C_15
REMARK                            x       y       z     vdW  Elec       q    Type
REMARK                         _______ _______ _______ _____ _____    ______ ____
ROOT
ATOM      1  C   UNL     1       2.389   5.104  20.640  0.00  0.00    +0.000 C 
ATOM      2  O   UNL     1       2.745   4.187  21.383  0.00  0.00    +0.000 OA
ATOM      3  N   UNL     1       2.100   6.338  21.172  0.00  0.00    +0.000 N 
ATOM      4  H   UNL     1       2.457   6.457  22.116  0.00  0.00    +0.000 HD
ENDROOT
BRANCH   3   5
ATOM      5  C   UNL     1       1.511   7.461  20.559  0.00  0.00    +0.000 A 
ATOM      6  C   UNL     1       1.927   7.952  19.319  0.00  0.00    +0.000 A 
ATOM      7  C   UNL     1       1.449   9.159  18.826  0.00  0.00    +0.000 A 
ATOM      8  C   UNL     1       0.455   9.832  19.518  0.00  0.00    +0.000 A 
ATOM      9  C   UNL     1      -0.039   9.317  20.719  0.00  0.00    +0.000 A 
ATOM     10  C   UNL     1       0.474   8.117  21.227  0.00  0.00    +0.000 A 
BRANCH   8  11
ATOM     11  O   UNL     1       0.056  11.019  18.964  0.00  0.00    +0.000 OA
BRANCH  11  12
ATOM     12  C   UNL     1      -1.271  11.209  18.675  0.00  0.00    +0.000 A 
ATOM     13  C   UNL     1      -1.744  10.474  17.587  0.00  0.00    +0.000 A 
ATOM     14  C   UNL     1      -3.062  10.628  17.163  0.00  0.00    +0.000 A 
ATOM     15  C   UNL     1      -3.902  11.515  17.834  0.00  0.00    +0.000 A 
ATOM     16 CL   UNL     1      -5.509  11.759  17.273  0.00  0.00    +0.000 Cl
ATOM     17  C   UNL     1      -3.451  12.211  18.954  0.00  0.00    +0.000 A 
ATOM     18  C   UNL     1      -2.141  12.034  19.395  0.00  0.00    +0.000 A 
ENDBRANCH  11  12
ENDBRANCH   8  11
ENDBRANCH   3   5
BRANCH   1  19
ATOM     19  C   UNL     1       2.229   4.882  19.143  0.00  0.00    +0.000 C 
BRANCH  19  20
ATOM     20  C   UNL     1       3.401   4.205  18.409  0.00  0.00    +0.000 C 
BRANCH  20  21
ATOM     21  C   UNL     1       4.549   5.193  18.175  0.00  0.00    +0.000 A 
ATOM     22  C   UNL     1       4.441   6.255  17.266  0.00  0.00    +0.000 A 
ATOM     23  C   UNL     1       5.505   7.136  17.055  0.00  0.00    +0.000 A 
ATOM     24  C   UNL     1       6.698   6.967  17.748  0.00  0.00    +0.000 A 
ATOM     25 CL   UNL     1       8.010   8.041  17.464  0.00  0.00    +0.000 Cl
ATOM     26  C   UNL     1       6.830   5.934  18.667  0.00  0.00    +0.000 A 
ATOM     27  C   UNL     1       5.758   5.065  18.891  0.00  0.00    +0.000 A 
ENDBRANCH  20  21
BRANCH  20  28
ATOM     28  C   UNL     1       3.808   2.860  19.036  0.00  0.00    +0.000 C 
BRANCH  28  30
ATOM     29  O   UNL     1       2.373   1.713  17.481  0.00  0.00    +0.000 OA
ATOM     30  C   UNL     1       3.342   1.687  18.213  0.00  0.00    +0.000 C 
BRANCH  30  31
ATOM     31  O   UNL     1       4.084   0.576  18.402  0.00  0.00    +0.000 OA
ATOM     32  H   UNL     1       4.153   0.290  19.339  0.00  0.00    +0.000 HD
ENDBRANCH  30  31
ENDBRANCH  28  30
ENDBRANCH  20  28
ENDBRANCH  19  20
ENDBRANCH   1  19
TORSDOF 9
ENDMDL
MODEL 7
REMARK VINA RESULT:      -8.4      3.514      7.483
REMARK  Name = 
REMARK  9 active torsions:
REMARK  status: ('A' for Active; 'I' for Inactive)
REMARK    1  A    between atoms: C_2  and  O_3
REMARK    2  A    between atoms: C_2  and  C_4
REMARK    3  A    between atoms: C_4  and  C_5
REMARK    4  A    between atoms: C_5  and  C_6
REMARK    5  A    between atoms: C_5  and  C_24
REMARK    6  A    between atoms: C_6  and  C_7
REMARK    7  A    between atoms: N_9  and  C_10
REMARK    8  A    between atoms: C_13  and  O_14
REMARK    9  A    between atoms: O_14  and  C_15
REMARK                            x       y       z     vdW  Elec       q    Type
REMARK                         _______ _______ _______ _____ _____    ______ ____
ROOT
ATOM      1  C   UNL     1       4.497   3.455  18.748  0.00  0.00    +0.000 C 
ATOM      2  O   UNL     1       4.310   2.292  19.109  0.00  0.00    +0.000 OA
ATOM      3  N   UNL     1       5.764   3.864  18.401  0.00  0.00    +0.000 N 
ATOM      4  H   UNL     1       6.397   3.089  18.226  0.00  0.00    +0.000 HD
ENDROOT
BRANCH   3   5
ATOM      5  C   UNL     1       6.244   5.161  18.138  0.00  0.00    +0.000 A 
ATOM      6  C   UNL     1       5.659   6.010  17.196  0.00  0.00    +0.000 A 
ATOM      7  C   UNL     1       6.260   7.208  16.835  0.00  0.00    +0.000 A 
ATOM      8  C   UNL     1       7.397   7.629  17.505  0.00  0.00    +0.000 A 
ATOM      9  C   UNL     1       7.955   6.837  18.513  0.00  0.00    +0.000 A 
ATOM     10  C   UNL     1       7.363   5.613  18.845  0.00  0.00    +0.000 A 
BRANCH   8  11
ATOM     11  O   UNL     1       7.927   8.816  17.073  0.00  0.00    +0.000 OA
BRANCH  11  12
ATOM     12  C   UNL     1       8.452   9.688  17.992  0.00  0.00    +0.000 A 
ATOM     13  C   UNL     1       8.417  11.030  17.611  0.00  0.00    +0.000 A 
ATOM     14  C   UNL     1       8.974  12.003  18.438  0.00  0.00    +0.000 A 
ATOM     15  C   UNL     1       9.560  11.627  19.646  0.00  0.00    +0.000 A 
ATOM     16 CL   UNL     1      10.308  12.816  20.638  0.00  0.00    +0.000 Cl
ATOM     17  C   UNL     1       9.549  10.295  20.057  0.00  0.00    +0.000 A 
ATOM     18  C   UNL     1       8.966   9.327  19.242  0.00  0.00    +0.000 A 
ENDBRANCH  11  12
ENDBRANCH   8  11
ENDBRANCH   3   5
BRANCH   1  19
ATOM     19  C   UNL     1       3.355   4.460  18.714  0.00  0.00    +0.000 C 
BRANCH  19  20
ATOM     20  C   UNL     1       3.205   5.387  19.934  0.00  0.00    +0.000 C 
BRANCH  20  21
ATOM     21  C   UNL     1       2.534   6.708  19.543  0.00  0.00    +0.000 A 
ATOM     22  C   UNL     1       2.578   7.203  18.233  0.00  0.00    +0.000 A 
ATOM     23  C   UNL     1       1.973   8.418  17.900  0.00  0.00    +0.000 A 
ATOM     24  C   UNL     1       1.318   9.161  18.875  0.00  0.00    +0.000 A 
ATOM     25 CL   UNL     1       0.598  10.667  18.462  0.00  0.00    +0.000 Cl
ATOM     26  C   UNL     1       1.243   8.689  20.179  0.00  0.00    +0.000 A 
ATOM     27  C   UNL     1       1.832   7.464  20.506  0.00  0.00    +0.000 A 
ENDBRANCH  20  21
BRANCH  20  28
ATOM     28  C   UNL     1       2.600   4.678  21.159  0.00  0.00    +0.000 C 
BRANCH  28  30
ATOM     29  O   UNL     1       1.631   2.509  20.763  0.00  0.00    +0.000 OA
ATOM     30  C   UNL     1       1.504   3.717  20.772  0.00  0.00    +0.000 C 
BRANCH  30  31
ATOM     31  O   UNL     1       0.366   4.334  20.390  0.00  0.00    +0.000 OA
ATOM     32  H   UNL     1      -0.180   4.671  21.134  0.00  0.00    +0.000 HD
ENDBRANCH  30  31
ENDBRANCH  28  30
ENDBRANCH  20  28
ENDBRANCH  19  20
ENDBRANCH   1  19
TORSDOF 9
ENDMDL
MODEL 8
REMARK VINA RESULT:      -8.4      2.320      2.895
REMARK  Name = 
REMARK  9 active torsions:
REMARK  status: ('A' for Active; 'I' for Inactive)
REMARK    1  A    between atoms: C_2  and  O_3
REMARK    2  A    between atoms: C_2  and  C_4
REMARK    3  A    between atoms: C_4  and  C_5
REMARK    4  A    between atoms: C_5  and  C_6
REMARK    5  A    between atoms: C_5  and  C_24
REMARK    6  A    between atoms: C_6  and  C_7
REMARK    7  A    between atoms: N_9  and  C_10
REMARK    8  A    between atoms: C_13  and  O_14
REMARK    9  A    between atoms: O_14  and  C_15
REMARK                            x       y       z     vdW  Elec       q    Type
REMARK                         _______ _______ _______ _____ _____    ______ ____
ROOT
ATOM      1  C   UNL     1       2.115   5.289  20.415  0.00  0.00    +0.000 C 
ATOM      2  O   UNL     1       2.447   4.365  21.161  0.00  0.00    +0.000 OA
ATOM      3  N   UNL     1       2.204   6.587  20.859  0.00  0.00    +0.000 N 
ATOM      4  H   UNL     1       2.785   6.685  21.686  0.00  0.00    +0.000 HD
ENDROOT
BRANCH   3   5
ATOM      5  C   UNL     1       1.721   7.770  20.266  0.00  0.00    +0.000 A 
ATOM      6  C   UNL     1       0.840   8.639  20.915  0.00  0.00    +0.000 A 
ATOM      7  C   UNL     1       0.247   9.698  20.241  0.00  0.00    +0.000 A 
ATOM      8  C   UNL     1       0.624   9.972  18.936  0.00  0.00    +0.000 A 
ATOM      9  C   UNL     1       1.568   9.168  18.292  0.00  0.00    +0.000 A 
ATOM     10  C   UNL     1       2.134   8.080  18.967  0.00  0.00    +0.000 A 
BRANCH   8  11
ATOM     11  O   UNL     1      -0.023  11.027  18.349  0.00  0.00    +0.000 OA
BRANCH  11  12
ATOM     12  C   UNL     1       0.453  12.297  18.547  0.00  0.00    +0.000 A 
ATOM     13  C   UNL     1      -0.533  13.275  18.693  0.00  0.00    +0.000 A 
ATOM     14  C   UNL     1      -0.170  14.612  18.842  0.00  0.00    +0.000 A 
ATOM     15  C   UNL     1       1.179  14.963  18.848  0.00  0.00    +0.000 A 
ATOM     16 CL   UNL     1       1.629  16.618  18.963  0.00  0.00    +0.000 Cl
ATOM     17  C   UNL     1       2.168  13.985  18.757  0.00  0.00    +0.000 A 
ATOM     18  C   UNL     1       1.804  12.645  18.637  0.00  0.00    +0.000 A 
ENDBRANCH  11  12
ENDBRANCH   8  11
ENDBRANCH   3   5
BRANCH   1  19
ATOM     19  C   UNL     1       1.574   5.013  19.020  0.00  0.00    +0.000 C 
BRANCH  19  20
ATOM     20  C   UNL     1       2.527   4.327  18.025  0.00  0.00    +0.000 C 
BRANCH  20  21
ATOM     21  C   UNL     1       3.904   5.000  18.026  0.00  0.00    +0.000 A 
ATOM     22  C   UNL     1       4.949   4.550  18.845  0.00  0.00    +0.000 A 
ATOM     23  C   UNL     1       6.193   5.187  18.844  0.00  0.00    +0.000 A 
ATOM     24  C   UNL     1       6.411   6.289  18.025  0.00  0.00    +0.000 A 
ATOM     25 CL   UNL     1       7.936   7.082  18.048  0.00  0.00    +0.000 Cl
ATOM     26  C   UNL     1       5.400   6.749  17.190  0.00  0.00    +0.000 A 
ATOM     27  C   UNL     1       4.162   6.098  17.179  0.00  0.00    +0.000 A 
ENDBRANCH  20  21
BRANCH  20  28
ATOM     28  C   UNL     1       2.544   2.794  18.167  0.00  0.00    +0.000 C 
BRANCH  28  30
ATOM     29  O   UNL     1       0.223   2.168  18.308  0.00  0.00    +0.000 OA
ATOM     30  C   UNL     1       1.305   2.276  18.851  0.00  0.00    +0.000 C 
BRANCH  30  31
ATOM     31  O   UNL     1       1.500   1.979  20.153  0.00  0.00    +0.000 OA
ATOM     32  H   UNL     1       0.811   2.334  20.756  0.00  0.00    +0.000 HD
ENDBRANCH  30  31
ENDBRANCH  28  30
ENDBRANCH  20  28
ENDBRANCH  19  20
ENDBRANCH   1  19
TORSDOF 9
ENDMDL
MODEL 9
REMARK VINA RESULT:      -8.4      1.444      2.135
REMARK  Name = 
REMARK  9 active torsions:
REMARK  status: ('A' for Active; 'I' for Inactive)
REMARK    1  A    between atoms: C_2  and  O_3
REMARK    2  A    between atoms: C_2  and  C_4
REMARK    3  A    between atoms: C_4  and  C_5
REMARK    4  A    between atoms: C_5  and  C_6
REMARK    5  A    between atoms: C_5  and  C_24
REMARK    6  A    between atoms: C_6  and  C_7
REMARK    7  A    between atoms: N_9  and  C_10
REMARK    8  A    between atoms: C_13  and  O_14
REMARK    9  A    between atoms: O_14  and  C_15
REMARK                            x       y       z     vdW  Elec       q    Type
REMARK                         _______ _______ _______ _____ _____    ______ ____
ROOT
ATOM      1  C   UNL     1       2.498   5.606  19.908  0.00  0.00    +0.000 C 
ATOM      2  O   UNL     1       2.937   4.684  20.598  0.00  0.00    +0.000 OA
ATOM      3  N   UNL     1       2.538   6.894  20.388  0.00  0.00    +0.000 N 
ATOM      4  H   UNL     1       3.170   7.004  21.176  0.00  0.00    +0.000 HD
ENDROOT
BRANCH   3   5
ATOM      5  C   UNL     1       1.943   8.061  19.870  0.00  0.00    +0.000 A 
ATOM      6  C   UNL     1       1.067   8.858  20.611  0.00  0.00    +0.000 A 
ATOM      7  C   UNL     1       0.363   9.896  20.018  0.00  0.00    +0.000 A 
ATOM      8  C   UNL     1       0.619  10.226  18.697  0.00  0.00    +0.000 A 
ATOM      9  C   UNL     1       1.554   9.497  17.957  0.00  0.00    +0.000 A 
ATOM     10  C   UNL     1       2.234   8.428  18.553  0.00  0.00    +0.000 A 
BRANCH   8  11
ATOM     11  O   UNL     1      -0.132  11.255  18.193  0.00  0.00    +0.000 OA
BRANCH  11  12
ATOM     12  C   UNL     1      -1.500  11.177  18.258  0.00  0.00    +0.000 A 
ATOM     13  C   UNL     1      -2.064  10.154  17.493  0.00  0.00    +0.000 A 
ATOM     14  C   UNL     1      -3.449  10.012  17.434  0.00  0.00    +0.000 A 
ATOM     15  C   UNL     1      -4.262  10.894  18.144  0.00  0.00    +0.000 A 
ATOM     16 CL   UNL     1      -5.972  10.765  18.020  0.00  0.00    +0.000 Cl
ATOM     17  C   UNL     1      -3.703  11.882  18.952  0.00  0.00    +0.000 A 
ATOM     18  C   UNL     1      -2.317  12.005  19.033  0.00  0.00    +0.000 A 
ENDBRANCH  11  12
ENDBRANCH   8  11
ENDBRANCH   3   5
BRANCH   1  19
ATOM     19  C   UNL     1       1.876   5.338  18.546  0.00  0.00    +0.000 C 
BRANCH  19  20
ATOM     20  C   UNL     1       2.392   4.111  17.773  0.00  0.00    +0.000 C 
BRANCH  20  21
ATOM     21  C   UNL     1       3.721   4.419  17.073  0.00  0.00    +0.000 A 
ATOM     22  C   UNL     1       4.195   5.730  16.926  0.00  0.00    +0.000 A 
ATOM     23  C   UNL     1       5.402   5.992  16.272  0.00  0.00    +0.000 A 
ATOM     24  C   UNL     1       6.152   4.945  15.748  0.00  0.00    +0.000 A 
ATOM     25 CL   UNL     1       7.623   5.278  14.923  0.00  0.00    +0.000 Cl
ATOM     26  C   UNL     1       5.717   3.634  15.893  0.00  0.00    +0.000 A 
ATOM     27  C   UNL     1       4.519   3.373  16.565  0.00  0.00    +0.000 A 
ENDBRANCH  20  21
BRANCH  20  28
ATOM     28  C   UNL     1       2.373   2.820  18.610  0.00  0.00    +0.000 C 
BRANCH  28  30
ATOM     29  O   UNL     1       0.115   2.053  18.281  0.00  0.00    +0.000 OA
ATOM     30  C   UNL     1       0.979   2.444  19.041  0.00  0.00    +0.000 C 
BRANCH  30  31
ATOM     31  O   UNL     1       0.761   2.628  20.360  0.00  0.00    +0.000 OA
ATOM     32  H   UNL     1      -0.188   2.660  20.612  0.00  0.00    +0.000 HD
ENDBRANCH  30  31
ENDBRANCH  28  30
ENDBRANCH  20  28
ENDBRANCH  19  20
ENDBRANCH   1  19
TORSDOF 9
ENDMDL
