MODEL 1
REMARK VINA RESULT:      -7.6      0.000      0.000
REMARK  Name = 
REMARK  9 active torsions:
REMARK  status: ('A' for Active; 'I' for Inactive)
REMARK    1  A    between atoms: C_5  and  C_6
REMARK    2  A    between atoms: C_6  and  C_7
REMARK    3  A    between atoms: C_7  and  C_8
REMARK    4  A    between atoms: C_8  and  C_9
REMARK    5  A    between atoms: C_9  and  N_10
REMARK    6  A    between atoms: N_10  and  C_11
REMARK    7  A    between atoms: C_11  and  C_12
REMARK    8  A    between atoms: C_12  and  O_13
REMARK    9  A    between atoms: O_13  and  C_14
REMARK                            x       y       z     vdW  Elec       q    Type
REMARK                         _______ _______ _______ _____ _____    ______ ____
ROOT
ATOM      1  N   UNL     1       6.792   5.776  17.106  0.00  0.00    +0.000 NA
ATOM      2  H   UNL     1       6.592   6.603  17.669  0.00  0.00    +0.000 HD
ENDROOT
BRANCH   1   3
ATOM      3  C   UNL     1       5.776   5.641  16.064  0.00  0.00    +0.000 C 
BRANCH   3   4
ATOM      4  C   UNL     1       4.821   6.835  16.031  0.00  0.00    +0.000 C 
BRANCH   4   5
ATOM      5  C   UNL     1       4.271   7.058  17.441  0.00  0.00    +0.000 C 
BRANCH   5   6
ATOM      6  C   UNL     1       2.935   7.801  17.445  0.00  0.00    +0.000 C 
BRANCH   6  11
ATOM      7  C   UNL     1      -0.289  10.265  21.006  0.00  0.00    +0.000 A 
ATOM      8  C   UNL     1       0.012  10.709  19.721  0.00  0.00    +0.000 A 
ATOM      9  C   UNL     1       0.870   9.975  18.895  0.00  0.00    +0.000 A 
ATOM     10  C   UNL     1       1.432   8.769  19.367  0.00  0.00    +0.000 A 
ATOM     11  C   UNL     1       2.316   7.791  18.808  0.00  0.00    +0.000 A 
ATOM     12  C   UNL     1       2.516   6.831  19.782  0.00  0.00    +0.000 A 
ATOM     13  N   UNL     1       1.790   7.181  20.888  0.00  0.00    +0.000 N 
ATOM     14  C   UNL     1       1.115   8.358  20.662  0.00  0.00    +0.000 A 
ATOM     15  C   UNL     1       0.259   9.080  21.504  0.00  0.00    +0.000 A 
ATOM     16  H   UNL     1       1.753   6.657  21.750  0.00  0.00    +0.000 HD
ENDBRANCH   6  11
ENDBRANCH   5   6
ENDBRANCH   4   5
ENDBRANCH   3   4
ENDBRANCH   1   3
BRANCH   1  17
ATOM     17  C   UNL     1       6.815   4.595  17.991  0.00  0.00    +0.000 C 
BRANCH  17  18
ATOM     18  C   UNL     1       5.816   4.691  19.156  0.00  0.00    +0.000 C 
BRANCH  18  19
ATOM     19  O   UNL     1       5.131   3.448  19.331  0.00  0.00    +0.000 OA
BRANCH  19  20
ATOM     20  C   UNL     1       3.800   3.487  18.977  0.00  0.00    +0.000 A 
ATOM     21  C   UNL     1       3.347   3.770  17.676  0.00  0.00    +0.000 A 
ATOM     22  C   UNL     1       1.989   3.764  17.359  0.00  0.00    +0.000 A 
ATOM     23  C   UNL     1       1.029   3.464  18.322  0.00  0.00    +0.000 A 
ATOM     24  C   UNL     1       1.480   3.180  19.616  0.00  0.00    +0.000 A 
ATOM     25  N   UNL     1       0.765   2.850  20.744  0.00  0.00    +0.000 N 
ATOM     26  C   UNL     1       1.613   2.660  21.804  0.00  0.00    +0.000 A 
ATOM     27  C   UNL     1       2.896   2.866  21.353  0.00  0.00    +0.000 A 
ATOM     28  C   UNL     1       2.832   3.186  19.964  0.00  0.00    +0.000 A 
ATOM     29  H   UNL     1      -0.242   2.759  20.780  0.00  0.00    +0.000 HD
ENDBRANCH  19  20
ENDBRANCH  18  19
ENDBRANCH  17  18
ENDBRANCH   1  17
TORSDOF 9
ENDMDL
MODEL 2
REMARK VINA RESULT:      -7.5      1.636      4.828
REMARK  Name = 
REMARK  9 active torsions:
REMARK  status: ('A' for Active; 'I' for Inactive)
REMARK    1  A    between atoms: C_5  and  C_6
REMARK    2  A    between atoms: C_6  and  C_7
REMARK    3  A    between atoms: C_7  and  C_8
REMARK    4  A    between atoms: C_8  and  C_9
REMARK    5  A    between atoms: C_9  and  N_10
REMARK    6  A    between atoms: N_10  and  C_11
REMARK    7  A    between atoms: C_11  and  C_12
REMARK    8  A    between atoms: C_12  and  O_13
REMARK    9  A    between atoms: O_13  and  C_14
REMARK                            x       y       z     vdW  Elec       q    Type
REMARK                         _______ _______ _______ _____ _____    ______ ____
ROOT
ATOM      1  N   UNL     1       2.907   2.561  19.930  0.00  0.00    +0.000 NA
ATOM      2  H   UNL     1       3.553   2.109  20.578  0.00  0.00    +0.000 HD
ENDROOT
BRANCH   1   3
ATOM      3  C   UNL     1       1.582   2.638  20.542  0.00  0.00    +0.000 C 
BRANCH   3   4
ATOM      4  C   UNL     1       1.093   4.080  20.679  0.00  0.00    +0.000 C 
BRANCH   4   5
ATOM      5  C   UNL     1       1.736   4.920  19.575  0.00  0.00    +0.000 C 
BRANCH   5   6
ATOM      6  C   UNL     1       2.544   6.097  20.120  0.00  0.00    +0.000 C 
BRANCH   6  11
ATOM      7  C   UNL     1       0.070  10.896  20.160  0.00  0.00    +0.000 A 
ATOM      8  C   UNL     1       0.087   9.968  21.199  0.00  0.00    +0.000 A 
ATOM      9  C   UNL     1       0.767   8.753  21.059  0.00  0.00    +0.000 A 
ATOM     10  C   UNL     1       1.445   8.466  19.855  0.00  0.00    +0.000 A 
ATOM     11  C   UNL     1       2.223   7.360  19.384  0.00  0.00    +0.000 A 
ATOM     12  C   UNL     1       2.611   7.667  18.093  0.00  0.00    +0.000 A 
ATOM     13  N   UNL     1       2.113   8.901  17.775  0.00  0.00    +0.000 N 
ATOM     14  C   UNL     1       1.400   9.415  18.832  0.00  0.00    +0.000 A 
ATOM     15  C   UNL     1       0.725  10.636  18.953  0.00  0.00    +0.000 A 
ATOM     16  H   UNL     1       2.244   9.371  16.890  0.00  0.00    +0.000 HD
ENDBRANCH   6  11
ENDBRANCH   5   6
ENDBRANCH   4   5
ENDBRANCH   3   4
ENDBRANCH   1   3
BRANCH   1  17
ATOM     17  C   UNL     1       2.875   1.783  18.675  0.00  0.00    +0.000 C 
BRANCH  17  18
ATOM     18  C   UNL     1       3.997   2.165  17.696  0.00  0.00    +0.000 C 
BRANCH  18  19
ATOM     19  O   UNL     1       3.852   3.525  17.275  0.00  0.00    +0.000 OA
BRANCH  19  20
ATOM     20  C   UNL     1       4.991   4.284  17.433  0.00  0.00    +0.000 A 
ATOM     21  C   UNL     1       5.428   4.786  18.673  0.00  0.00    +0.000 A 
ATOM     22  C   UNL     1       6.607   5.521  18.786  0.00  0.00    +0.000 A 
ATOM     23  C   UNL     1       7.406   5.774  17.673  0.00  0.00    +0.000 A 
ATOM     24  C   UNL     1       6.972   5.273  16.441  0.00  0.00    +0.000 A 
ATOM     25  N   UNL     1       7.554   5.367  15.198  0.00  0.00    +0.000 N 
ATOM     26  C   UNL     1       6.780   4.733  14.262  0.00  0.00    +0.000 A 
ATOM     27  C   UNL     1       5.682   4.217  14.910  0.00  0.00    +0.000 A 
ATOM     28  C   UNL     1       5.791   4.540  16.295  0.00  0.00    +0.000 A 
ATOM     29  H   UNL     1       8.430   5.835  15.009  0.00  0.00    +0.000 HD
ENDBRANCH  19  20
ENDBRANCH  18  19
ENDBRANCH  17  18
ENDBRANCH   1  17
TORSDOF 9
ENDMDL
MODEL 3
REMARK VINA RESULT:      -7.4      1.695      6.131
REMARK  Name = 
REMARK  9 active torsions:
REMARK  status: ('A' for Active; 'I' for Inactive)
REMARK    1  A    between atoms: C_5  and  C_6
REMARK    2  A    between atoms: C_6  and  C_7
REMARK    3  A    between atoms: C_7  and  C_8
REMARK    4  A    between atoms: C_8  and  C_9
REMARK    5  A    between atoms: C_9  and  N_10
REMARK    6  A    between atoms: N_10  and  C_11
REMARK    7  A    between atoms: C_11  and  C_12
REMARK    8  A    between atoms: C_12  and  O_13
REMARK    9  A    between atoms: O_13  and  C_14
REMARK                            x       y       z     vdW  Elec       q    Type
REMARK                         _______ _______ _______ _____ _____    ______ ____
ROOT
ATOM      1  N   UNL     1       1.934   2.854  20.924  0.00  0.00    +0.000 NA
ATOM      2  H   UNL     1       2.730   2.603  20.337  0.00  0.00    +0.000 HD
ENDROOT
BRANCH   1   3
ATOM      3  C   UNL     1       0.703   2.744  20.143  0.00  0.00    +0.000 C 
BRANCH   3   4
ATOM      4  C   UNL     1       0.965   2.255  18.718  0.00  0.00    +0.000 C 
BRANCH   4   5
ATOM      5  C   UNL     1       1.454   3.437  17.880  0.00  0.00    +0.000 C 
BRANCH   5   6
ATOM      6  C   UNL     1       2.724   3.119  17.091  0.00  0.00    +0.000 C 
BRANCH   6  11
ATOM      7  C   UNL     1       6.734   6.714  17.479  0.00  0.00    +0.000 A 
ATOM      8  C   UNL     1       5.725   6.704  16.519  0.00  0.00    +0.000 A 
ATOM      9  C   UNL     1       4.742   5.709  16.528  0.00  0.00    +0.000 A 
ATOM     10  C   UNL     1       4.770   4.707  17.521  0.00  0.00    +0.000 A 
ATOM     11  C   UNL     1       3.945   3.576  17.826  0.00  0.00    +0.000 A 
ATOM     12  C   UNL     1       4.508   2.958  18.927  0.00  0.00    +0.000 A 
ATOM     13  N   UNL     1       5.616   3.667  19.300  0.00  0.00    +0.000 N 
ATOM     14  C   UNL     1       5.799   4.742  18.463  0.00  0.00    +0.000 A 
ATOM     15  C   UNL     1       6.793   5.730  18.470  0.00  0.00    +0.000 A 
ATOM     16  H   UNL     1       6.221   3.438  20.077  0.00  0.00    +0.000 HD
ENDBRANCH   6  11
ENDBRANCH   5   6
ENDBRANCH   4   5
ENDBRANCH   3   4
ENDBRANCH   1   3
BRANCH   1  17
ATOM     17  C   UNL     1       2.131   4.228  21.427  0.00  0.00    +0.000 C 
BRANCH  17  18
ATOM     18  C   UNL     1       1.838   5.307  20.371  0.00  0.00    +0.000 C 
BRANCH  18  19
ATOM     19  O   UNL     1       2.207   6.600  20.861  0.00  0.00    +0.000 OA
BRANCH  19  20
ATOM     20  C   UNL     1       1.969   7.625  19.972  0.00  0.00    +0.000 A 
ATOM     21  C   UNL     1       2.473   7.650  18.659  0.00  0.00    +0.000 A 
ATOM     22  C   UNL     1       2.175   8.695  17.784  0.00  0.00    +0.000 A 
ATOM     23  C   UNL     1       1.352   9.748  18.178  0.00  0.00    +0.000 A 
ATOM     24  C   UNL     1       0.849   9.721  19.483  0.00  0.00    +0.000 A 
ATOM     25  N   UNL     1       0.023  10.613  20.126  0.00  0.00    +0.000 N 
ATOM     26  C   UNL     1      -0.215  10.197  21.410  0.00  0.00    +0.000 A 
ATOM     27  C   UNL     1       0.465   9.017  21.599  0.00  0.00    +0.000 A 
ATOM     28  C   UNL     1       1.137   8.693  20.383  0.00  0.00    +0.000 A 
ATOM     29  H   UNL     1      -0.355  11.451  19.706  0.00  0.00    +0.000 HD
ENDBRANCH  19  20
ENDBRANCH  18  19
ENDBRANCH  17  18
ENDBRANCH   1  17
TORSDOF 9
ENDMDL
MODEL 4
REMARK VINA RESULT:      -7.4      5.486      8.468
REMARK  Name = 
REMARK  9 active torsions:
REMARK  status: ('A' for Active; 'I' for Inactive)
REMARK    1  A    between atoms: C_5  and  C_6
REMARK    2  A    between atoms: C_6  and  C_7
REMARK    3  A    between atoms: C_7  and  C_8
REMARK    4  A    between atoms: C_8  and  C_9
REMARK    5  A    between atoms: C_9  and  N_10
REMARK    6  A    between atoms: N_10  and  C_11
REMARK    7  A    between atoms: C_11  and  C_12
REMARK    8  A    between atoms: C_12  and  O_13
REMARK    9  A    between atoms: O_13  and  C_14
REMARK                            x       y       z     vdW  Elec       q    Type
REMARK                         _______ _______ _______ _____ _____    ______ ____
ROOT
ATOM      1  N   UNL     1       8.283   7.167  18.703  0.00  0.00    +0.000 NA
ATOM      2  H   UNL     1       9.172   6.751  18.423  0.00  0.00    +0.000 HD
ENDROOT
BRANCH   1   3
ATOM      3  C   UNL     1       7.261   6.125  18.773  0.00  0.00    +0.000 C 
BRANCH   3   4
ATOM      4  C   UNL     1       7.496   5.017  17.747  0.00  0.00    +0.000 C 
BRANCH   4   5
ATOM      5  C   UNL     1       6.385   5.082  16.697  0.00  0.00    +0.000 C 
BRANCH   5   6
ATOM      6  C   UNL     1       5.109   5.738  17.223  0.00  0.00    +0.000 C 
BRANCH   6  11
ATOM      7  C   UNL     1       1.055   4.207  20.444  0.00  0.00    +0.000 A 
ATOM      8  C   UNL     1       1.804   5.375  20.559  0.00  0.00    +0.000 A 
ATOM      9  C   UNL     1       2.836   5.654  19.656  0.00  0.00    +0.000 A 
ATOM     10  C   UNL     1       3.118   4.743  18.615  0.00  0.00    +0.000 A 
ATOM     11  C   UNL     1       4.067   4.712  17.543  0.00  0.00    +0.000 A 
ATOM     12  C   UNL     1       3.856   3.529  16.859  0.00  0.00    +0.000 A 
ATOM     13  N   UNL     1       2.827   2.860  17.461  0.00  0.00    +0.000 N 
ATOM     14  C   UNL     1       2.353   3.578  18.534  0.00  0.00    +0.000 A 
ATOM     15  C   UNL     1       1.317   3.282  19.428  0.00  0.00    +0.000 A 
ATOM     16  H   UNL     1       2.463   1.965  17.167  0.00  0.00    +0.000 HD
ENDBRANCH   6  11
ENDBRANCH   5   6
ENDBRANCH   4   5
ENDBRANCH   3   4
ENDBRANCH   1   3
BRANCH   1  17
ATOM     17  C   UNL     1       7.920   8.212  17.725  0.00  0.00    +0.000 C 
BRANCH  17  18
ATOM     18  C   UNL     1       8.289   9.630  18.188  0.00  0.00    +0.000 C 
BRANCH  18  19
ATOM     19  O   UNL     1       9.361   9.585  19.135  0.00  0.00    +0.000 OA
BRANCH  19  20
ATOM     20  C   UNL     1       9.659  10.805  19.702  0.00  0.00    +0.000 A 
ATOM     21  C   UNL     1       9.213  11.202  20.975  0.00  0.00    +0.000 A 
ATOM     22  C   UNL     1       9.571  12.435  21.520  0.00  0.00    +0.000 A 
ATOM     23  C   UNL     1      10.398  13.314  20.826  0.00  0.00    +0.000 A 
ATOM     24  C   UNL     1      10.844  12.917  19.560  0.00  0.00    +0.000 A 
ATOM     25  N   UNL     1      11.661  13.573  18.669  0.00  0.00    +0.000 N 
ATOM     26  C   UNL     1      11.835  12.816  17.540  0.00  0.00    +0.000 A 
ATOM     27  C   UNL     1      11.122  11.652  17.704  0.00  0.00    +0.000 A 
ATOM     28  C   UNL     1      10.495  11.692  18.986  0.00  0.00    +0.000 A 
ATOM     29  H   UNL     1      12.075  14.481  18.831  0.00  0.00    +0.000 HD
ENDBRANCH  19  20
ENDBRANCH  18  19
ENDBRANCH  17  18
ENDBRANCH   1  17
TORSDOF 9
ENDMDL
MODEL 5
REMARK VINA RESULT:      -7.3      1.642      4.805
REMARK  Name = 
REMARK  9 active torsions:
REMARK  status: ('A' for Active; 'I' for Inactive)
REMARK    1  A    between atoms: C_5  and  C_6
REMARK    2  A    between atoms: C_6  and  C_7
REMARK    3  A    between atoms: C_7  and  C_8
REMARK    4  A    between atoms: C_8  and  C_9
REMARK    5  A    between atoms: C_9  and  N_10
REMARK    6  A    between atoms: N_10  and  C_11
REMARK    7  A    between atoms: C_11  and  C_12
REMARK    8  A    between atoms: C_12  and  O_13
REMARK    9  A    between atoms: O_13  and  C_14
REMARK                            x       y       z     vdW  Elec       q    Type
REMARK                         _______ _______ _______ _____ _____    ______ ____
ROOT
ATOM      1  N   UNL     1       1.576   2.549  17.973  0.00  0.00    +0.000 NA
ATOM      2  H   UNL     1       1.936   2.731  17.036  0.00  0.00    +0.000 HD
ENDROOT
BRANCH   1   3
ATOM      3  C   UNL     1       1.260   3.819  18.625  0.00  0.00    +0.000 C 
BRANCH   3   4
ATOM      4  C   UNL     1       0.822   3.629  20.077  0.00  0.00    +0.000 C 
BRANCH   4   5
ATOM      5  C   UNL     1       1.569   4.641  20.948  0.00  0.00    +0.000 C 
BRANCH   5   6
ATOM      6  C   UNL     1       2.255   5.735  20.130  0.00  0.00    +0.000 C 
BRANCH   6  11
ATOM      7  C   UNL     1       1.319  10.777  18.441  0.00  0.00    +0.000 A 
ATOM      8  C   UNL     1       1.972   9.775  17.726  0.00  0.00    +0.000 A 
ATOM      9  C   UNL     1       2.153   8.504  18.283  0.00  0.00    +0.000 A 
ATOM     10  C   UNL     1       1.667   8.233  19.580  0.00  0.00    +0.000 A 
ATOM     11  C   UNL     1       1.671   7.080  20.429  0.00  0.00    +0.000 A 
ATOM     12  C   UNL     1       1.047   7.450  21.606  0.00  0.00    +0.000 A 
ATOM     13  N   UNL     1       0.663   8.758  21.498  0.00  0.00    +0.000 N 
ATOM     14  C   UNL     1       1.025   9.262  20.271  0.00  0.00    +0.000 A 
ATOM     15  C   UNL     1       0.834  10.540  19.731  0.00  0.00    +0.000 A 
ATOM     16  H   UNL     1       0.186   9.286  22.215  0.00  0.00    +0.000 HD
ENDBRANCH   6  11
ENDBRANCH   5   6
ENDBRANCH   4   5
ENDBRANCH   3   4
ENDBRANCH   1   3
BRANCH   1  17
ATOM     17  C   UNL     1       2.593   1.794  18.733  0.00  0.00    +0.000 C 
BRANCH  17  18
ATOM     18  C   UNL     1       3.951   2.511  18.804  0.00  0.00    +0.000 C 
BRANCH  18  19
ATOM     19  O   UNL     1       4.105   3.402  17.696  0.00  0.00    +0.000 OA
BRANCH  19  20
ATOM     20  C   UNL     1       5.210   4.221  17.785  0.00  0.00    +0.000 A 
ATOM     21  C   UNL     1       5.682   4.763  18.994  0.00  0.00    +0.000 A 
ATOM     22  C   UNL     1       6.827   5.559  19.038  0.00  0.00    +0.000 A 
ATOM     23  C   UNL     1       7.554   5.835  17.882  0.00  0.00    +0.000 A 
ATOM     24  C   UNL     1       7.085   5.293  16.680  0.00  0.00    +0.000 A 
ATOM     25  N   UNL     1       7.599   5.397  15.408  0.00  0.00    +0.000 N 
ATOM     26  C   UNL     1       6.811   4.710  14.521  0.00  0.00    +0.000 A 
ATOM     27  C   UNL     1       5.775   4.149  15.231  0.00  0.00    +0.000 A 
ATOM     28  C   UNL     1       5.938   4.500  16.605  0.00  0.00    +0.000 A 
ATOM     29  H   UNL     1       8.439   5.906  15.168  0.00  0.00    +0.000 HD
ENDBRANCH  19  20
ENDBRANCH  18  19
ENDBRANCH  17  18
ENDBRANCH   1  17
TORSDOF 9
ENDMDL
MODEL 6
REMARK VINA RESULT:      -7.3      2.072      4.572
REMARK  Name = 
REMARK  9 active torsions:
REMARK  status: ('A' for Active; 'I' for Inactive)
REMARK    1  A    between atoms: C_5  and  C_6
REMARK    2  A    between atoms: C_6  and  C_7
REMARK    3  A    between atoms: C_7  and  C_8
REMARK    4  A    between atoms: C_8  and  C_9
REMARK    5  A    between atoms: C_9  and  N_10
REMARK    6  A    between atoms: N_10  and  C_11
REMARK    7  A    between atoms: C_11  and  C_12
REMARK    8  A    between atoms: C_12  and  O_13
REMARK    9  A    between atoms: O_13  and  C_14
REMARK                            x       y       z     vdW  Elec       q    Type
REMARK                         _______ _______ _______ _____ _____    ______ ____
ROOT
ATOM      1  N   UNL     1       2.064   4.837  19.757  0.00  0.00    +0.000 NA
ATOM      2  H   UNL     1       1.914   4.543  18.791  0.00  0.00    +0.000 HD
ENDROOT
BRANCH   1   3
ATOM      3  C   UNL     1       2.522   6.225  19.775  0.00  0.00    +0.000 C 
BRANCH   3   4
ATOM      4  C   UNL     1       2.631   6.816  18.370  0.00  0.00    +0.000 C 
BRANCH   4   5
ATOM      5  C   UNL     1       2.494   8.336  18.468  0.00  0.00    +0.000 C 
BRANCH   5   6
ATOM      6  C   UNL     1       1.368   8.888  17.594  0.00  0.00    +0.000 C 
BRANCH   6  11
ATOM      7  C   UNL     1      -3.407  11.350  18.134  0.00  0.00    +0.000 A 
ATOM      8  C   UNL     1      -3.073  10.398  17.173  0.00  0.00    +0.000 A 
ATOM      9  C   UNL     1      -1.792   9.837  17.140  0.00  0.00    +0.000 A 
ATOM     10  C   UNL     1      -0.829  10.235  18.092  0.00  0.00    +0.000 A 
ATOM     11  C   UNL     1       0.533   9.874  18.349  0.00  0.00    +0.000 A 
ATOM     12  C   UNL     1       0.950  10.634  19.425  0.00  0.00    +0.000 A 
ATOM     13  N   UNL     1      -0.094  11.421  19.829  0.00  0.00    +0.000 N 
ATOM     14  C   UNL     1      -1.195  11.196  19.036  0.00  0.00    +0.000 A 
ATOM     15  C   UNL     1      -2.471  11.769  19.085  0.00  0.00    +0.000 A 
ATOM     16  H   UNL     1      -0.067  12.077  20.596  0.00  0.00    +0.000 HD
ENDBRANCH   6  11
ENDBRANCH   5   6
ENDBRANCH   4   5
ENDBRANCH   3   4
ENDBRANCH   1   3
BRANCH   1  17
ATOM     17  C   UNL     1       3.055   3.936  20.378  0.00  0.00    +0.000 C 
BRANCH  17  18
ATOM     18  C   UNL     1       3.871   3.133  19.352  0.00  0.00    +0.000 C 
BRANCH  18  19
ATOM     19  O   UNL     1       5.185   3.684  19.217  0.00  0.00    +0.000 OA
BRANCH  19  20
ATOM     20  C   UNL     1       5.445   4.212  17.971  0.00  0.00    +0.000 A 
ATOM     21  C   UNL     1       4.816   3.773  16.792  0.00  0.00    +0.000 A 
ATOM     22  C   UNL     1       5.089   4.364  15.558  0.00  0.00    +0.000 A 
ATOM     23  C   UNL     1       5.988   5.423  15.452  0.00  0.00    +0.000 A 
ATOM     24  C   UNL     1       6.611   5.860  16.626  0.00  0.00    +0.000 A 
ATOM     25  N   UNL     1       7.524   6.872  16.813  0.00  0.00    +0.000 N 
ATOM     26  C   UNL     1       7.879   6.951  18.134  0.00  0.00    +0.000 A 
ATOM     27  C   UNL     1       7.182   5.978  18.813  0.00  0.00    +0.000 A 
ATOM     28  C   UNL     1       6.364   5.282  17.873  0.00  0.00    +0.000 A 
ATOM     29  H   UNL     1       7.876   7.470  16.078  0.00  0.00    +0.000 HD
ENDBRANCH  19  20
ENDBRANCH  18  19
ENDBRANCH  17  18
ENDBRANCH   1  17
TORSDOF 9
ENDMDL
MODEL 7
REMARK VINA RESULT:      -7.2      2.029      6.971
REMARK  Name = 
REMARK  9 active torsions:
REMARK  status: ('A' for Active; 'I' for Inactive)
REMARK    1  A    between atoms: C_5  and  C_6
REMARK    2  A    between atoms: C_6  and  C_7
REMARK    3  A    between atoms: C_7  and  C_8
REMARK    4  A    between atoms: C_8  and  C_9
REMARK    5  A    between atoms: C_9  and  N_10
REMARK    6  A    between atoms: N_10  and  C_11
REMARK    7  A    between atoms: C_11  and  C_12
REMARK    8  A    between atoms: C_12  and  O_13
REMARK    9  A    between atoms: O_13  and  C_14
REMARK                            x       y       z     vdW  Elec       q    Type
REMARK                         _______ _______ _______ _____ _____    ______ ____
ROOT
ATOM      1  N   UNL     1       2.210   5.335  20.676  0.00  0.00    +0.000 NA
ATOM      2  H   UNL     1       3.097   4.901  20.931  0.00  0.00    +0.000 HD
ENDROOT
BRANCH   1   3
ATOM      3  C   UNL     1       1.172   4.308  20.601  0.00  0.00    +0.000 C 
BRANCH   3   4
ATOM      4  C   UNL     1       0.989   3.776  19.180  0.00  0.00    +0.000 C 
BRANCH   4   5
ATOM      5  C   UNL     1       1.721   2.438  19.063  0.00  0.00    +0.000 C 
BRANCH   5   6
ATOM      6  C   UNL     1       2.686   2.392  17.879  0.00  0.00    +0.000 C 
BRANCH   6  11
ATOM      7  C   UNL     1       6.766   5.452  16.108  0.00  0.00    +0.000 A 
ATOM      8  C   UNL     1       5.686   5.000  15.353  0.00  0.00    +0.000 A 
ATOM      9  C   UNL     1       4.692   4.206  15.935  0.00  0.00    +0.000 A 
ATOM     10  C   UNL     1       4.782   3.863  17.301  0.00  0.00    +0.000 A 
ATOM     11  C   UNL     1       3.966   3.099  18.197  0.00  0.00    +0.000 A 
ATOM     12  C   UNL     1       4.602   3.112  19.424  0.00  0.00    +0.000 A 
ATOM     13  N   UNL     1       5.746   3.852  19.309  0.00  0.00    +0.000 N 
ATOM     14  C   UNL     1       5.881   4.327  18.026  0.00  0.00    +0.000 A 
ATOM     15  C   UNL     1       6.886   5.122  17.461  0.00  0.00    +0.000 A 
ATOM     16  H   UNL     1       6.405   4.027  20.055  0.00  0.00    +0.000 HD
ENDBRANCH   6  11
ENDBRANCH   5   6
ENDBRANCH   4   5
ENDBRANCH   3   4
ENDBRANCH   1   3
BRANCH   1  17
ATOM     17  C   UNL     1       2.375   6.028  19.383  0.00  0.00    +0.000 C 
BRANCH  17  18
ATOM     18  C   UNL     1       2.340   7.560  19.508  0.00  0.00    +0.000 C 
BRANCH  18  19
ATOM     19  O   UNL     1       1.406   7.959  20.515  0.00  0.00    +0.000 OA
BRANCH  19  20
ATOM     20  C   UNL     1       0.815   9.181  20.278  0.00  0.00    +0.000 A 
ATOM     21  C   UNL     1       0.873   9.848  19.041  0.00  0.00    +0.000 A 
ATOM     22  C   UNL     1       0.229  11.068  18.841  0.00  0.00    +0.000 A 
ATOM     23  C   UNL     1      -0.508  11.667  19.860  0.00  0.00    +0.000 A 
ATOM     24  C   UNL     1      -0.567  11.002  21.090  0.00  0.00    +0.000 A 
ATOM     25  N   UNL     1      -1.215  11.354  22.251  0.00  0.00    +0.000 N 
ATOM     26  C   UNL     1      -0.998  10.410  23.220  0.00  0.00    +0.000 A 
ATOM     27  C   UNL     1      -0.201   9.430  22.677  0.00  0.00    +0.000 A 
ATOM     28  C   UNL     1       0.075   9.783  21.322  0.00  0.00    +0.000 A 
ATOM     29  H   UNL     1      -1.773  12.190  22.366  0.00  0.00    +0.000 HD
ENDBRANCH  19  20
ENDBRANCH  18  19
ENDBRANCH  17  18
ENDBRANCH   1  17
TORSDOF 9
ENDMDL
MODEL 8
REMARK VINA RESULT:      -7.1      2.214      4.937
REMARK  Name = 
REMARK  9 active torsions:
REMARK  status: ('A' for Active; 'I' for Inactive)
REMARK    1  A    between atoms: C_5  and  C_6
REMARK    2  A    between atoms: C_6  and  C_7
REMARK    3  A    between atoms: C_7  and  C_8
REMARK    4  A    between atoms: C_8  and  C_9
REMARK    5  A    between atoms: C_9  and  N_10
REMARK    6  A    between atoms: N_10  and  C_11
REMARK    7  A    between atoms: C_11  and  C_12
REMARK    8  A    between atoms: C_12  and  O_13
REMARK    9  A    between atoms: O_13  and  C_14
REMARK                            x       y       z     vdW  Elec       q    Type
REMARK                         _______ _______ _______ _____ _____    ______ ____
ROOT
ATOM      1  N   UNL     1       1.992   4.973  19.163  0.00  0.00    +0.000 NA
ATOM      2  H   UNL     1       1.080   5.100  19.604  0.00  0.00    +0.000 HD
ENDROOT
BRANCH   1   3
ATOM      3  C   UNL     1       2.285   6.129  18.317  0.00  0.00    +0.000 C 
BRANCH   3   4
ATOM      4  C   UNL     1       2.459   7.411  19.132  0.00  0.00    +0.000 C 
BRANCH   4   5
ATOM      5  C   UNL     1       2.500   8.598  18.169  0.00  0.00    +0.000 C 
BRANCH   5   6
ATOM      6  C   UNL     1       1.143   8.888  17.527  0.00  0.00    +0.000 C 
BRANCH   6  11
ATOM      7  C   UNL     1      -3.509  11.503  18.348  0.00  0.00    +0.000 A 
ATOM      8  C   UNL     1      -3.294  10.465  17.444  0.00  0.00    +0.000 A 
ATOM      9  C   UNL     1      -2.033   9.872  17.325  0.00  0.00    +0.000 A 
ATOM     10  C   UNL     1      -0.968  10.326  18.133  0.00  0.00    +0.000 A 
ATOM     11  C   UNL     1       0.408   9.955  18.276  0.00  0.00    +0.000 A 
ATOM     12  C   UNL     1       0.949  10.794  19.232  0.00  0.00    +0.000 A 
ATOM     13  N   UNL     1      -0.034  11.637  19.673  0.00  0.00    +0.000 N 
ATOM     14  C   UNL     1      -1.216  11.372  19.023  0.00  0.00    +0.000 A 
ATOM     15  C   UNL     1      -2.471  11.979  19.155  0.00  0.00    +0.000 A 
ATOM     16  H   UNL     1       0.085  12.355  20.373  0.00  0.00    +0.000 HD
ENDBRANCH   6  11
ENDBRANCH   5   6
ENDBRANCH   4   5
ENDBRANCH   3   4
ENDBRANCH   1   3
BRANCH   1  17
ATOM     17  C   UNL     1       1.967   3.724  18.376  0.00  0.00    +0.000 C 
BRANCH  17  18
ATOM     18  C   UNL     1       3.296   2.951  18.426  0.00  0.00    +0.000 C 
BRANCH  18  19
ATOM     19  O   UNL     1       4.056   3.187  17.237  0.00  0.00    +0.000 OA
BRANCH  19  20
ATOM     20  C   UNL     1       5.126   4.037  17.417  0.00  0.00    +0.000 A 
ATOM     21  C   UNL     1       5.535   4.520  18.674  0.00  0.00    +0.000 A 
ATOM     22  C   UNL     1       6.647   5.351  18.808  0.00  0.00    +0.000 A 
ATOM     23  C   UNL     1       7.403   5.724  17.699  0.00  0.00    +0.000 A 
ATOM     24  C   UNL     1       6.997   5.241  16.450  0.00  0.00    +0.000 A 
ATOM     25  N   UNL     1       7.551   5.441  15.207  0.00  0.00    +0.000 N 
ATOM     26  C   UNL     1       6.822   4.783  14.251  0.00  0.00    +0.000 A 
ATOM     27  C   UNL     1       5.783   4.143  14.887  0.00  0.00    +0.000 A 
ATOM     28  C   UNL     1       5.884   4.414  16.284  0.00  0.00    +0.000 A 
ATOM     29  H   UNL     1       8.380   5.993  15.029  0.00  0.00    +0.000 HD
ENDBRANCH  19  20
ENDBRANCH  18  19
ENDBRANCH  17  18
ENDBRANCH   1  17
TORSDOF 9
ENDMDL
MODEL 9
REMARK VINA RESULT:      -7.0      1.580      4.410
REMARK  Name = 
REMARK  9 active torsions:
REMARK  status: ('A' for Active; 'I' for Inactive)
REMARK    1  A    between atoms: C_5  and  C_6
REMARK    2  A    between atoms: C_6  and  C_7
REMARK    3  A    between atoms: C_7  and  C_8
REMARK    4  A    between atoms: C_8  and  C_9
REMARK    5  A    between atoms: C_9  and  N_10
REMARK    6  A    between atoms: N_10  and  C_11
REMARK    7  A    between atoms: C_11  and  C_12
REMARK    8  A    between atoms: C_12  and  O_13
REMARK    9  A    between atoms: O_13  and  C_14
REMARK                            x       y       z     vdW  Elec       q    Type
REMARK                         _______ _______ _______ _____ _____    ______ ____
ROOT
ATOM      1  N   UNL     1       1.897   1.781  19.257  0.00  0.00    +0.000 NA
ATOM      2  H   UNL     1       1.047   2.166  18.844  0.00  0.00    +0.000 HD
ENDROOT
BRANCH   1   3
ATOM      3  C   UNL     1       2.180   2.471  20.514  0.00  0.00    +0.000 C 
BRANCH   3   4
ATOM      4  C   UNL     1       1.344   3.740  20.677  0.00  0.00    +0.000 C 
BRANCH   4   5
ATOM      5  C   UNL     1       2.259   4.953  20.503  0.00  0.00    +0.000 C 
BRANCH   5   6
ATOM      6  C   UNL     1       1.594   6.263  20.921  0.00  0.00    +0.000 C 
BRANCH   6  11
ATOM      7  C   UNL     1       0.650  11.345  19.359  0.00  0.00    +0.000 A 
ATOM      8  C   UNL     1       0.180  10.738  20.522  0.00  0.00    +0.000 A 
ATOM      9  C   UNL     1       0.496   9.406  20.809  0.00  0.00    +0.000 A 
ATOM     10  C   UNL     1       1.303   8.670  19.915  0.00  0.00    +0.000 A 
ATOM     11  C   UNL     1       1.812   7.332  19.896  0.00  0.00    +0.000 A 
ATOM     12  C   UNL     1       2.536   7.197  18.726  0.00  0.00    +0.000 A 
ATOM     13  N   UNL     1       2.492   8.387  18.053  0.00  0.00    +0.000 N 
ATOM     14  C   UNL     1       1.750   9.306  18.755  0.00  0.00    +0.000 A 
ATOM     15  C   UNL     1       1.444  10.638  18.450  0.00  0.00    +0.000 A 
ATOM     16  H   UNL     1       2.937   8.570  17.164  0.00  0.00    +0.000 HD
ENDBRANCH   6  11
ENDBRANCH   5   6
ENDBRANCH   4   5
ENDBRANCH   3   4
ENDBRANCH   1   3
BRANCH   1  17
ATOM     17  C   UNL     1       3.006   1.939  18.295  0.00  0.00    +0.000 C 
BRANCH  17  18
ATOM     18  C   UNL     1       2.686   2.925  17.159  0.00  0.00    +0.000 C 
BRANCH  18  19
ATOM     19  O   UNL     1       3.314   4.187  17.400  0.00  0.00    +0.000 OA
BRANCH  19  20
ATOM     20  C   UNL     1       4.600   4.274  16.913  0.00  0.00    +0.000 A 
ATOM     21  C   UNL     1       4.952   3.972  15.585  0.00  0.00    +0.000 A 
ATOM     22  C   UNL     1       6.263   4.109  15.130  0.00  0.00    +0.000 A 
ATOM     23  C   UNL     1       7.273   4.566  15.975  0.00  0.00    +0.000 A 
ATOM     24  C   UNL     1       6.921   4.869  17.294  0.00  0.00    +0.000 A 
ATOM     25  N   UNL     1       7.700   5.336  18.328  0.00  0.00    +0.000 N 
ATOM     26  C   UNL     1       6.943   5.489  19.460  0.00  0.00    +0.000 A 
ATOM     27  C   UNL     1       5.654   5.120  19.153  0.00  0.00    +0.000 A 
ATOM     28  C   UNL     1       5.618   4.733  17.780  0.00  0.00    +0.000 A 
ATOM     29  H   UNL     1       8.688   5.538  18.255  0.00  0.00    +0.000 HD
ENDBRANCH  19  20
ENDBRANCH  18  19
ENDBRANCH  17  18
ENDBRANCH   1  17
TORSDOF 9
ENDMDL
