MODEL 1
REMARK VINA RESULT:      -7.4      0.000      0.000
REMARK  Name = 
REMARK  16 active torsions:
REMARK  status: ('A' for Active; 'I' for Inactive)
REMARK    1  A    between atoms: C_1  and  O_2
REMARK    2  A    between atoms: O_2  and  C_3
REMARK    3  A    between atoms: C_5  and  O_6
REMARK    4  A    between atoms: O_6  and  C_7
REMARK    5  A    between atoms: C_8  and  O_9
REMARK    6  A    between atoms: O_9  and  C_10
REMARK    7  A    between atoms: C_12  and  C_13
REMARK    8  A    between atoms: C_14  and  C_15
REMARK    9  A    between atoms: C_15  and  O_16
REMARK   10  A    between atoms: O_16  and  C_17
REMARK   11  A    between atoms: C_17  and  C_19
REMARK   12  A    between atoms: C_20  and  C_21
REMARK   13  A    between atoms: C_24  and  O_25
REMARK   14  A    between atoms: O_25  and  C_26
REMARK   15  A    between atoms: C_27  and  O_28
REMARK   16  A    between atoms: O_28  and  C_29
REMARK                            x       y       z     vdW  Elec       q    Type
REMARK                         _______ _______ _______ _____ _____    ______ ____
ROOT
ATOM      1  C   UNL     1       1.818   3.732  20.641  0.00  0.00    +0.000 C 
ENDROOT
BRANCH   1   3
ATOM      2  C   UNL     1       1.915   6.231  20.794  0.00  0.00    +0.000 C 
ATOM      3  C   UNL     1       1.674   5.118  20.079  0.00  0.00    +0.000 C 
BRANCH   2   9
ATOM      4  C   UNL     1       1.835   8.135  19.091  0.00  0.00    +0.000 A 
ATOM      5  C   UNL     1       1.450   9.448  18.798  0.00  0.00    +0.000 A 
ATOM      6  C   UNL     1       0.798  10.250  19.734  0.00  0.00    +0.000 A 
ATOM      7  C   UNL     1       0.482   9.733  20.994  0.00  0.00    +0.000 A 
ATOM      8  C   UNL     1       0.903   8.429  21.312  0.00  0.00    +0.000 A 
ATOM      9  C   UNL     1       1.605   7.623  20.384  0.00  0.00    +0.000 A 
BRANCH   4  11
ATOM     10  C   UNL     1       3.519   7.900  17.432  0.00  0.00    +0.000 C 
ATOM     11  O   UNL     1       2.423   7.326  18.147  0.00  0.00    +0.000 OA
ENDBRANCH   4  11
BRANCH   6  12
ATOM     12  O   UNL     1       0.470  11.483  19.230  0.00  0.00    +0.000 OA
ATOM     13  C   UNL     1      -0.788  11.589  18.579  0.00  0.00    +0.000 C 
ENDBRANCH   6  12
BRANCH   7  14
ATOM     14  O   UNL     1      -0.263  10.531  21.817  0.00  0.00    +0.000 OA
ATOM     15  C   UNL     1      -0.631  10.046  23.097  0.00  0.00    +0.000 C 
ENDBRANCH   7  14
ENDBRANCH   2   9
ENDBRANCH   1   3
BRANCH   1  16
ATOM     16  O   UNL     1       2.513   2.890  19.713  0.00  0.00    +0.000 OA
BRANCH  16  17
ATOM     17  C   UNL     1       1.903   2.749  18.509  0.00  0.00    +0.000 C 
ATOM     18  O   UNL     1       0.775   2.320  18.305  0.00  0.00    +0.000 OA
BRANCH  17  19
ATOM     19  C   UNL     1       2.827   3.174  17.438  0.00  0.00    +0.000 C 
ATOM     20  C   UNL     1       4.084   3.526  17.754  0.00  0.00    +0.000 C 
BRANCH  20  21
ATOM     21  C   UNL     1       5.055   4.066  16.790  0.00  0.00    +0.000 A 
ATOM     22  C   UNL     1       5.218   3.476  15.537  0.00  0.00    +0.000 A 
ATOM     23  C   UNL     1       6.179   3.973  14.652  0.00  0.00    +0.000 A 
ATOM     24  C   UNL     1       6.989   5.065  15.000  0.00  0.00    +0.000 A 
ATOM     25  C   UNL     1       6.868   5.634  16.277  0.00  0.00    +0.000 A 
ATOM     26  C   UNL     1       5.903   5.120  17.154  0.00  0.00    +0.000 A 
BRANCH  24  27
ATOM     27  O   UNL     1       7.885   5.410  14.019  0.00  0.00    +0.000 OA
ATOM     28  C   UNL     1       7.557   5.027  12.688  0.00  0.00    +0.000 C 
ENDBRANCH  24  27
BRANCH  25  29
ATOM     29  O   UNL     1       7.725   6.641  16.631  0.00  0.00    +0.000 OA
ATOM     30  C   UNL     1       7.333   7.502  17.694  0.00  0.00    +0.000 C 
ENDBRANCH  25  29
ENDBRANCH  20  21
ENDBRANCH  17  19
ENDBRANCH  16  17
ENDBRANCH   1  16
TORSDOF 11
ENDMDL
MODEL 2
REMARK VINA RESULT:      -6.8      4.689      8.571
REMARK  Name = 
REMARK  16 active torsions:
REMARK  status: ('A' for Active; 'I' for Inactive)
REMARK    1  A    between atoms: C_1  and  O_2
REMARK    2  A    between atoms: O_2  and  C_3
REMARK    3  A    between atoms: C_5  and  O_6
REMARK    4  A    between atoms: O_6  and  C_7
REMARK    5  A    between atoms: C_8  and  O_9
REMARK    6  A    between atoms: O_9  and  C_10
REMARK    7  A    between atoms: C_12  and  C_13
REMARK    8  A    between atoms: C_14  and  C_15
REMARK    9  A    between atoms: C_15  and  O_16
REMARK   10  A    between atoms: O_16  and  C_17
REMARK   11  A    between atoms: C_17  and  C_19
REMARK   12  A    between atoms: C_20  and  C_21
REMARK   13  A    between atoms: C_24  and  O_25
REMARK   14  A    between atoms: O_25  and  C_26
REMARK   15  A    between atoms: C_27  and  O_28
REMARK   16  A    between atoms: O_28  and  C_29
REMARK                            x       y       z     vdW  Elec       q    Type
REMARK                         _______ _______ _______ _____ _____    ______ ____
ROOT
ATOM      1  C   UNL     1       7.567   8.078  17.850  0.00  0.00    +0.000 C 
ENDROOT
BRANCH   1   3
ATOM      2  C   UNL     1       9.051   9.777  18.942  0.00  0.00    +0.000 C 
ATOM      3  C   UNL     1       8.175   9.446  17.976  0.00  0.00    +0.000 C 
BRANCH   2   9
ATOM      4  C   UNL     1       9.478  11.726  20.539  0.00  0.00    +0.000 A 
ATOM      5  C   UNL     1      10.019  13.001  20.734  0.00  0.00    +0.000 A 
ATOM      6  C   UNL     1      10.662  13.694  19.709  0.00  0.00    +0.000 A 
ATOM      7  C   UNL     1      10.808  13.097  18.452  0.00  0.00    +0.000 A 
ATOM      8  C   UNL     1      10.230  11.834  18.234  0.00  0.00    +0.000 A 
ATOM      9  C   UNL     1       9.537  11.143  19.257  0.00  0.00    +0.000 A 
BRANCH   4  11
ATOM     10  C   UNL     1       8.296  11.806  22.598  0.00  0.00    +0.000 C 
ATOM     11  O   UNL     1       8.898  11.021  21.568  0.00  0.00    +0.000 OA
ENDBRANCH   4  11
BRANCH   6  12
ATOM     12  O   UNL     1      11.158  14.903  20.123  0.00  0.00    +0.000 OA
ATOM     13  C   UNL     1      10.234  15.793  20.734  0.00  0.00    +0.000 C 
ENDBRANCH   6  12
BRANCH   7  14
ATOM     14  O   UNL     1      11.553  13.780  17.531  0.00  0.00    +0.000 OA
ATOM     15  C   UNL     1      12.146  13.065  16.460  0.00  0.00    +0.000 C 
ENDBRANCH   7  14
ENDBRANCH   2   9
ENDBRANCH   1   3
BRANCH   1  16
ATOM     16  O   UNL     1       8.051   7.426  16.669  0.00  0.00    +0.000 OA
BRANCH  16  17
ATOM     17  C   UNL     1       7.329   6.344  16.283  0.00  0.00    +0.000 C 
ATOM     18  O   UNL     1       7.591   5.578  15.365  0.00  0.00    +0.000 OA
BRANCH  17  19
ATOM     19  C   UNL     1       6.127   6.227  17.134  0.00  0.00    +0.000 C 
ATOM     20  C   UNL     1       5.998   5.169  17.949  0.00  0.00    +0.000 C 
BRANCH  20  21
ATOM     21  C   UNL     1       4.801   4.892  18.758  0.00  0.00    +0.000 A 
ATOM     22  C   UNL     1       4.583   3.624  19.295  0.00  0.00    +0.000 A 
ATOM     23  C   UNL     1       3.418   3.366  20.022  0.00  0.00    +0.000 A 
ATOM     24  C   UNL     1       2.454   4.365  20.226  0.00  0.00    +0.000 A 
ATOM     25  C   UNL     1       2.640   5.630  19.647  0.00  0.00    +0.000 A 
ATOM     26  C   UNL     1       3.811   5.870  18.916  0.00  0.00    +0.000 A 
BRANCH  24  27
ATOM     27  O   UNL     1       1.369   3.935  20.948  0.00  0.00    +0.000 OA
ATOM     28  C   UNL     1       1.506   2.694  21.631  0.00  0.00    +0.000 C 
ENDBRANCH  24  27
BRANCH  25  29
ATOM     29  O   UNL     1       1.649   6.566  19.781  0.00  0.00    +0.000 OA
ATOM     30  C   UNL     1       1.849   7.611  20.726  0.00  0.00    +0.000 C 
ENDBRANCH  25  29
ENDBRANCH  20  21
ENDBRANCH  17  19
ENDBRANCH  16  17
ENDBRANCH   1  16
TORSDOF 11
ENDMDL
MODEL 3
REMARK VINA RESULT:      -6.7      0.964      1.045
REMARK  Name = 
REMARK  16 active torsions:
REMARK  status: ('A' for Active; 'I' for Inactive)
REMARK    1  A    between atoms: C_1  and  O_2
REMARK    2  A    between atoms: O_2  and  C_3
REMARK    3  A    between atoms: C_5  and  O_6
REMARK    4  A    between atoms: O_6  and  C_7
REMARK    5  A    between atoms: C_8  and  O_9
REMARK    6  A    between atoms: O_9  and  C_10
REMARK    7  A    between atoms: C_12  and  C_13
REMARK    8  A    between atoms: C_14  and  C_15
REMARK    9  A    between atoms: C_15  and  O_16
REMARK   10  A    between atoms: O_16  and  C_17
REMARK   11  A    between atoms: C_17  and  C_19
REMARK   12  A    between atoms: C_20  and  C_21
REMARK   13  A    between atoms: C_24  and  O_25
REMARK   14  A    between atoms: O_25  and  C_26
REMARK   15  A    between atoms: C_27  and  O_28
REMARK   16  A    between atoms: O_28  and  C_29
REMARK                            x       y       z     vdW  Elec       q    Type
REMARK                         _______ _______ _______ _____ _____    ______ ____
ROOT
ATOM      1  C   UNL     1       1.717   4.513  20.391  0.00  0.00    +0.000 C 
ENDROOT
BRANCH   1   3
ATOM      2  C   UNL     1       1.190   6.882  21.017  0.00  0.00    +0.000 C 
ATOM      3  C   UNL     1       1.832   6.002  20.228  0.00  0.00    +0.000 C 
BRANCH   2   9
ATOM      4  C   UNL     1       1.267   8.974  19.549  0.00  0.00    +0.000 A 
ATOM      5  C   UNL     1       1.091  10.358  19.450  0.00  0.00    +0.000 A 
ATOM      6  C   UNL     1       0.695  11.131  20.540  0.00  0.00    +0.000 A 
ATOM      7  C   UNL     1       0.429  10.517  21.768  0.00  0.00    +0.000 A 
ATOM      8  C   UNL     1       0.644   9.132  21.890  0.00  0.00    +0.000 A 
ATOM      9  C   UNL     1       1.089   8.346  20.800  0.00  0.00    +0.000 A 
BRANCH   4  11
ATOM     10  C   UNL     1       2.576   8.764  17.579  0.00  0.00    +0.000 C 
ATOM     11  O   UNL     1       1.599   8.205  18.458  0.00  0.00    +0.000 OA
ENDBRANCH   4  11
BRANCH   6  12
ATOM     12  O   UNL     1       0.538  12.454  20.216  0.00  0.00    +0.000 OA
ATOM     13  C   UNL     1      -0.694  12.819  19.610  0.00  0.00    +0.000 C 
ENDBRANCH   6  12
BRANCH   7  14
ATOM     14  O   UNL     1      -0.071  11.315  22.759  0.00  0.00    +0.000 OA
ATOM     15  C   UNL     1      -1.450  11.231  23.080  0.00  0.00    +0.000 C 
ENDBRANCH   7  14
ENDBRANCH   2   9
ENDBRANCH   1   3
BRANCH   1  16
ATOM     16  O   UNL     1       1.747   3.870  19.112  0.00  0.00    +0.000 OA
BRANCH  16  17
ATOM     17  C   UNL     1       2.624   2.840  19.016  0.00  0.00    +0.000 C 
ATOM     18  O   UNL     1       2.478   1.709  19.461  0.00  0.00    +0.000 OA
BRANCH  17  19
ATOM     19  C   UNL     1       3.834   3.291  18.300  0.00  0.00    +0.000 C 
ATOM     20  C   UNL     1       3.710   4.126  17.257  0.00  0.00    +0.000 C 
BRANCH  20  21
ATOM     21  C   UNL     1       4.830   4.555  16.405  0.00  0.00    +0.000 A 
ATOM     22  C   UNL     1       5.041   3.967  15.158  0.00  0.00    +0.000 A 
ATOM     23  C   UNL     1       6.137   4.354  14.382  0.00  0.00    +0.000 A 
ATOM     24  C   UNL     1       7.037   5.331  14.834  0.00  0.00    +0.000 A 
ATOM     25  C   UNL     1       6.862   5.892  16.109  0.00  0.00    +0.000 A 
ATOM     26  C   UNL     1       5.761   5.489  16.876  0.00  0.00    +0.000 A 
BRANCH  24  27
ATOM     27  O   UNL     1       8.060   5.576  13.953  0.00  0.00    +0.000 OA
ATOM     28  C   UNL     1       7.880   5.117  12.618  0.00  0.00    +0.000 C 
ENDBRANCH  24  27
BRANCH  25  29
ATOM     29  O   UNL     1       7.798   6.780  16.570  0.00  0.00    +0.000 OA
ATOM     30  C   UNL     1       7.671   7.240  17.910  0.00  0.00    +0.000 C 
ENDBRANCH  25  29
ENDBRANCH  20  21
ENDBRANCH  17  19
ENDBRANCH  16  17
ENDBRANCH   1  16
TORSDOF 11
ENDMDL
MODEL 4
REMARK VINA RESULT:      -6.7      3.730     11.219
REMARK  Name = 
REMARK  16 active torsions:
REMARK  status: ('A' for Active; 'I' for Inactive)
REMARK    1  A    between atoms: C_1  and  O_2
REMARK    2  A    between atoms: O_2  and  C_3
REMARK    3  A    between atoms: C_5  and  O_6
REMARK    4  A    between atoms: O_6  and  C_7
REMARK    5  A    between atoms: C_8  and  O_9
REMARK    6  A    between atoms: O_9  and  C_10
REMARK    7  A    between atoms: C_12  and  C_13
REMARK    8  A    between atoms: C_14  and  C_15
REMARK    9  A    between atoms: C_15  and  O_16
REMARK   10  A    between atoms: O_16  and  C_17
REMARK   11  A    between atoms: C_17  and  C_19
REMARK   12  A    between atoms: C_20  and  C_21
REMARK   13  A    between atoms: C_24  and  O_25
REMARK   14  A    between atoms: O_25  and  C_26
REMARK   15  A    between atoms: C_27  and  O_28
REMARK   16  A    between atoms: O_28  and  C_29
REMARK                            x       y       z     vdW  Elec       q    Type
REMARK                         _______ _______ _______ _____ _____    ______ ____
ROOT
ATOM      1  C   UNL     1       0.735   9.456  20.816  0.00  0.00    +0.000 C 
ENDROOT
BRANCH   1   3
ATOM      2  C   UNL     1       2.094   7.690  19.669  0.00  0.00    +0.000 C 
ATOM      3  C   UNL     1       1.429   8.124  20.754  0.00  0.00    +0.000 C 
BRANCH   2   9
ATOM      4  C   UNL     1       3.516   5.974  18.416  0.00  0.00    +0.000 A 
ATOM      5  C   UNL     1       4.000   4.664  18.343  0.00  0.00    +0.000 A 
ATOM      6  C   UNL     1       3.671   3.702  19.298  0.00  0.00    +0.000 A 
ATOM      7  C   UNL     1       2.861   4.049  20.384  0.00  0.00    +0.000 A 
ATOM      8  C   UNL     1       2.335   5.352  20.443  0.00  0.00    +0.000 A 
ATOM      9  C   UNL     1       2.627   6.322  19.455  0.00  0.00    +0.000 A 
BRANCH   4  11
ATOM     10  C   UNL     1       5.033   6.625  16.708  0.00  0.00    +0.000 C 
ATOM     11  O   UNL     1       3.890   6.936  17.508  0.00  0.00    +0.000 OA
ENDBRANCH   4  11
BRANCH   6  12
ATOM     12  O   UNL     1       4.287   2.499  19.065  0.00  0.00    +0.000 OA
ATOM     13  C   UNL     1       3.529   1.523  18.362  0.00  0.00    +0.000 C 
ENDBRANCH   6  12
BRANCH   7  14
ATOM     14  O   UNL     1       2.679   3.093  21.344  0.00  0.00    +0.000 OA
ATOM     15  C   UNL     1       1.367   2.620  21.604  0.00  0.00    +0.000 C 
ENDBRANCH   7  14
ENDBRANCH   2   9
ENDBRANCH   1   3
BRANCH   1  16
ATOM     16  O   UNL     1      -0.421   9.375  21.658  0.00  0.00    +0.000 OA
BRANCH  16  17
ATOM     17  C   UNL     1      -0.255   9.895  22.900  0.00  0.00    +0.000 C 
ATOM     18  O   UNL     1       0.686   9.698  23.657  0.00  0.00    +0.000 OA
BRANCH  17  19
ATOM     19  C   UNL     1      -1.419  10.739  23.237  0.00  0.00    +0.000 C 
ATOM     20  C   UNL     1      -1.544  11.948  22.668  0.00  0.00    +0.000 C 
BRANCH  20  21
ATOM     21  C   UNL     1      -2.598  12.916  23.008  0.00  0.00    +0.000 A 
ATOM     22  C   UNL     1      -2.345  13.961  23.895  0.00  0.00    +0.000 A 
ATOM     23  C   UNL     1      -3.371  14.843  24.243  0.00  0.00    +0.000 A 
ATOM     24  C   UNL     1      -4.662  14.700  23.712  0.00  0.00    +0.000 A 
ATOM     25  C   UNL     1      -4.940  13.622  22.858  0.00  0.00    +0.000 A 
ATOM     26  C   UNL     1      -3.901  12.743  22.523  0.00  0.00    +0.000 A 
BRANCH  24  27
ATOM     27  O   UNL     1      -5.546  15.643  24.172  0.00  0.00    +0.000 OA
ATOM     28  C   UNL     1      -5.406  16.961  23.653  0.00  0.00    +0.000 C 
ENDBRANCH  24  27
BRANCH  25  29
ATOM     29  O   UNL     1      -6.225  13.446  22.418  0.00  0.00    +0.000 OA
ATOM     30  C   UNL     1      -6.582  14.020  21.167  0.00  0.00    +0.000 C 
ENDBRANCH  25  29
ENDBRANCH  20  21
ENDBRANCH  17  19
ENDBRANCH  16  17
ENDBRANCH   1  16
TORSDOF 11
ENDMDL
MODEL 5
REMARK VINA RESULT:      -6.6      3.604      6.326
REMARK  Name = 
REMARK  16 active torsions:
REMARK  status: ('A' for Active; 'I' for Inactive)
REMARK    1  A    between atoms: C_1  and  O_2
REMARK    2  A    between atoms: O_2  and  C_3
REMARK    3  A    between atoms: C_5  and  O_6
REMARK    4  A    between atoms: O_6  and  C_7
REMARK    5  A    between atoms: C_8  and  O_9
REMARK    6  A    between atoms: O_9  and  C_10
REMARK    7  A    between atoms: C_12  and  C_13
REMARK    8  A    between atoms: C_14  and  C_15
REMARK    9  A    between atoms: C_15  and  O_16
REMARK   10  A    between atoms: O_16  and  C_17
REMARK   11  A    between atoms: C_17  and  C_19
REMARK   12  A    between atoms: C_20  and  C_21
REMARK   13  A    between atoms: C_24  and  O_25
REMARK   14  A    between atoms: O_25  and  C_26
REMARK   15  A    between atoms: C_27  and  O_28
REMARK   16  A    between atoms: O_28  and  C_29
REMARK                            x       y       z     vdW  Elec       q    Type
REMARK                         _______ _______ _______ _____ _____    ______ ____
ROOT
ATOM      1  C   UNL     1       5.371   5.818  17.880  0.00  0.00    +0.000 C 
ENDROOT
BRANCH   1   3
ATOM      2  C   UNL     1       3.185   6.942  18.365  0.00  0.00    +0.000 C 
ATOM      3  C   UNL     1       4.281   6.293  18.797  0.00  0.00    +0.000 C 
BRANCH   2   9
ATOM      4  C   UNL     1       1.701   7.104  20.440  0.00  0.00    +0.000 A 
ATOM      5  C   UNL     1       0.785   7.853  21.186  0.00  0.00    +0.000 A 
ATOM      6  C   UNL     1       0.362   9.118  20.778  0.00  0.00    +0.000 A 
ATOM      7  C   UNL     1       0.882   9.681  19.608  0.00  0.00    +0.000 A 
ATOM      8  C   UNL     1       1.771   8.918  18.830  0.00  0.00    +0.000 A 
ATOM      9  C   UNL     1       2.171   7.616  19.213  0.00  0.00    +0.000 A 
BRANCH   4  11
ATOM     10  C   UNL     1       1.351   4.757  20.543  0.00  0.00    +0.000 C 
ATOM     11  O   UNL     1       2.163   5.884  20.876  0.00  0.00    +0.000 OA
ENDBRANCH   4  11
BRANCH   6  12
ATOM     12  O   UNL     1      -0.500   9.697  21.674  0.00  0.00    +0.000 OA
ATOM     13  C   UNL     1      -0.180   9.549  23.050  0.00  0.00    +0.000 C 
ENDBRANCH   6  12
BRANCH   7  14
ATOM     14  O   UNL     1       0.517  10.970  19.332  0.00  0.00    +0.000 OA
ATOM     15  C   UNL     1      -0.649  11.204  18.561  0.00  0.00    +0.000 C 
ENDBRANCH   7  14
ENDBRANCH   2   9
ENDBRANCH   1   3
BRANCH   1  16
ATOM     16  O   UNL     1       6.612   6.453  18.212  0.00  0.00    +0.000 OA
BRANCH  16  17
ATOM     17  C   UNL     1       7.322   6.901  17.146  0.00  0.00    +0.000 C 
ATOM     18  O   UNL     1       7.577   6.281  16.123  0.00  0.00    +0.000 OA
BRANCH  17  19
ATOM     19  C   UNL     1       7.785   8.279  17.410  0.00  0.00    +0.000 C 
ATOM     20  C   UNL     1       8.585   8.516  18.461  0.00  0.00    +0.000 C 
BRANCH  20  21
ATOM     21  C   UNL     1       9.018   9.857  18.883  0.00  0.00    +0.000 A 
ATOM     22  C   UNL     1       9.138  10.173  20.236  0.00  0.00    +0.000 A 
ATOM     23  C   UNL     1       9.506  11.465  20.619  0.00  0.00    +0.000 A 
ATOM     24  C   UNL     1       9.762  12.461  19.663  0.00  0.00    +0.000 A 
ATOM     25  C   UNL     1       9.594  12.166  18.301  0.00  0.00    +0.000 A 
ATOM     26  C   UNL     1       9.220  10.867  17.934  0.00  0.00    +0.000 A 
BRANCH  24  27
ATOM     27  O   UNL     1      10.095  13.671  20.215  0.00  0.00    +0.000 OA
ATOM     28  C   UNL     1       9.734  13.876  21.576  0.00  0.00    +0.000 C 
ENDBRANCH  24  27
BRANCH  25  29
ATOM     29  O   UNL     1       9.762  13.172  17.386  0.00  0.00    +0.000 OA
ATOM     30  C   UNL     1      11.080  13.424  16.913  0.00  0.00    +0.000 C 
ENDBRANCH  25  29
ENDBRANCH  20  21
ENDBRANCH  17  19
ENDBRANCH  16  17
ENDBRANCH   1  16
TORSDOF 11
ENDMDL
MODEL 6
REMARK VINA RESULT:      -6.5      4.064      7.570
REMARK  Name = 
REMARK  16 active torsions:
REMARK  status: ('A' for Active; 'I' for Inactive)
REMARK    1  A    between atoms: C_1  and  O_2
REMARK    2  A    between atoms: O_2  and  C_3
REMARK    3  A    between atoms: C_5  and  O_6
REMARK    4  A    between atoms: O_6  and  C_7
REMARK    5  A    between atoms: C_8  and  O_9
REMARK    6  A    between atoms: O_9  and  C_10
REMARK    7  A    between atoms: C_12  and  C_13
REMARK    8  A    between atoms: C_14  and  C_15
REMARK    9  A    between atoms: C_15  and  O_16
REMARK   10  A    between atoms: O_16  and  C_17
REMARK   11  A    between atoms: C_17  and  C_19
REMARK   12  A    between atoms: C_20  and  C_21
REMARK   13  A    between atoms: C_24  and  O_25
REMARK   14  A    between atoms: O_25  and  C_26
REMARK   15  A    between atoms: C_27  and  O_28
REMARK   16  A    between atoms: O_28  and  C_29
REMARK                            x       y       z     vdW  Elec       q    Type
REMARK                         _______ _______ _______ _____ _____    ______ ____
ROOT
ATOM      1  C   UNL     1       7.129   5.771  16.476  0.00  0.00    +0.000 C 
ENDROOT
BRANCH   1   3
ATOM      2  C   UNL     1       4.818   5.027  17.097  0.00  0.00    +0.000 C 
ATOM      3  C   UNL     1       6.115   5.184  17.417  0.00  0.00    +0.000 C 
BRANCH   2   9
ATOM      4  C   UNL     1       3.292   3.324  18.241  0.00  0.00    +0.000 A 
ATOM      5  C   UNL     1       2.288   3.078  19.184  0.00  0.00    +0.000 A 
ATOM      6  C   UNL     1       1.736   4.100  19.956  0.00  0.00    +0.000 A 
ATOM      7  C   UNL     1       2.211   5.408  19.820  0.00  0.00    +0.000 A 
ATOM      8  C   UNL     1       3.189   5.673  18.845  0.00  0.00    +0.000 A 
ATOM      9  C   UNL     1       3.723   4.650  18.025  0.00  0.00    +0.000 A 
BRANCH   4  11
ATOM     10  C   UNL     1       4.047   1.072  18.222  0.00  0.00    +0.000 C 
ATOM     11  O   UNL     1       3.877   2.307  17.524  0.00  0.00    +0.000 OA
ENDBRANCH   4  11
BRANCH   6  12
ATOM     12  O   UNL     1       0.803   3.637  20.848  0.00  0.00    +0.000 OA
ATOM     13  C   UNL     1       1.262   2.717  21.828  0.00  0.00    +0.000 C 
ENDBRANCH   6  12
BRANCH   7  14
ATOM     14  O   UNL     1       1.712   6.336  20.691  0.00  0.00    +0.000 OA
ATOM     15  C   UNL     1       1.804   7.711  20.359  0.00  0.00    +0.000 C 
ENDBRANCH   7  14
ENDBRANCH   2   9
ENDBRANCH   1   3
BRANCH   1  16
ATOM     16  O   UNL     1       7.854   6.825  17.122  0.00  0.00    +0.000 OA
BRANCH  16  17
ATOM     17  C   UNL     1       7.124   7.939  17.380  0.00  0.00    +0.000 C 
ATOM     18  O   UNL     1       5.903   8.024  17.418  0.00  0.00    +0.000 OA
BRANCH  17  19
ATOM     19  C   UNL     1       8.034   9.083  17.591  0.00  0.00    +0.000 C 
ATOM     20  C   UNL     1       8.675   9.208  18.764  0.00  0.00    +0.000 C 
BRANCH  20  21
ATOM     21  C   UNL     1       9.517  10.359  19.126  0.00  0.00    +0.000 A 
ATOM     22  C   UNL     1       9.446  10.920  20.400  0.00  0.00    +0.000 A 
ATOM     23  C   UNL     1      10.220  12.041  20.711  0.00  0.00    +0.000 A 
ATOM     24  C   UNL     1      11.076  12.619  19.762  0.00  0.00    +0.000 A 
ATOM     25  C   UNL     1      11.117  12.092  18.461  0.00  0.00    +0.000 A 
ATOM     26  C   UNL     1      10.331  10.970  18.164  0.00  0.00    +0.000 A 
BRANCH  24  27
ATOM     27  O   UNL     1      11.747  13.719  20.233  0.00  0.00    +0.000 OA
ATOM     28  C   UNL     1      11.013  14.936  20.301  0.00  0.00    +0.000 C 
ENDBRANCH  24  27
BRANCH  25  29
ATOM     29  O   UNL     1      11.891  12.721  17.522  0.00  0.00    +0.000 OA
ATOM     30  C   UNL     1      11.244  13.604  16.614  0.00  0.00    +0.000 C 
ENDBRANCH  25  29
ENDBRANCH  20  21
ENDBRANCH  17  19
ENDBRANCH  16  17
ENDBRANCH   1  16
TORSDOF 11
ENDMDL
MODEL 7
REMARK VINA RESULT:      -6.5      5.049      8.597
REMARK  Name = 
REMARK  16 active torsions:
REMARK  status: ('A' for Active; 'I' for Inactive)
REMARK    1  A    between atoms: C_1  and  O_2
REMARK    2  A    between atoms: O_2  and  C_3
REMARK    3  A    between atoms: C_5  and  O_6
REMARK    4  A    between atoms: O_6  and  C_7
REMARK    5  A    between atoms: C_8  and  O_9
REMARK    6  A    between atoms: O_9  and  C_10
REMARK    7  A    between atoms: C_12  and  C_13
REMARK    8  A    between atoms: C_14  and  C_15
REMARK    9  A    between atoms: C_15  and  O_16
REMARK   10  A    between atoms: O_16  and  C_17
REMARK   11  A    between atoms: C_17  and  C_19
REMARK   12  A    between atoms: C_20  and  C_21
REMARK   13  A    between atoms: C_24  and  O_25
REMARK   14  A    between atoms: O_25  and  C_26
REMARK   15  A    between atoms: C_27  and  O_28
REMARK   16  A    between atoms: O_28  and  C_29
REMARK                            x       y       z     vdW  Elec       q    Type
REMARK                         _______ _______ _______ _____ _____    ______ ____
ROOT
ATOM      1  C   UNL     1       7.679   7.142  16.927  0.00  0.00    +0.000 C 
ENDROOT
BRANCH   1   3
ATOM      2  C   UNL     1       5.359   6.607  17.707  0.00  0.00    +0.000 C 
ATOM      3  C   UNL     1       6.588   6.198  17.346  0.00  0.00    +0.000 C 
BRANCH   2   9
ATOM      4  C   UNL     1       2.941   6.142  18.394  0.00  0.00    +0.000 A 
ATOM      5  C   UNL     1       2.017   5.248  18.945  0.00  0.00    +0.000 A 
ATOM      6  C   UNL     1       2.391   3.976  19.379  0.00  0.00    +0.000 A 
ATOM      7  C   UNL     1       3.717   3.555  19.237  0.00  0.00    +0.000 A 
ATOM      8  C   UNL     1       4.661   4.462  18.723  0.00  0.00    +0.000 A 
ATOM      9  C   UNL     1       4.299   5.770  18.322  0.00  0.00    +0.000 A 
BRANCH   4  11
ATOM     10  C   UNL     1       2.008   8.273  18.872  0.00  0.00    +0.000 C 
ATOM     11  O   UNL     1       2.558   7.371  17.911  0.00  0.00    +0.000 OA
ENDBRANCH   4  11
BRANCH   6  12
ATOM     12  O   UNL     1       1.327   3.246  19.843  0.00  0.00    +0.000 OA
ATOM     13  C   UNL     1       0.601   2.498  18.878  0.00  0.00    +0.000 C 
ENDBRANCH   6  12
BRANCH   7  14
ATOM     14  O   UNL     1       3.988   2.257  19.571  0.00  0.00    +0.000 OA
ATOM     15  C   UNL     1       3.891   1.256  18.572  0.00  0.00    +0.000 C 
ENDBRANCH   7  14
ENDBRANCH   2   9
ENDBRANCH   1   3
BRANCH   1  16
ATOM     16  O   UNL     1       7.371   8.476  17.349  0.00  0.00    +0.000 OA
BRANCH  16  17
ATOM     17  C   UNL     1       8.296   9.039  18.167  0.00  0.00    +0.000 C 
ATOM     18  O   UNL     1       8.825   8.521  19.141  0.00  0.00    +0.000 OA
BRANCH  17  19
ATOM     19  C   UNL     1       8.567  10.421  17.721  0.00  0.00    +0.000 C 
ATOM     20  C   UNL     1       9.708  11.022  18.095  0.00  0.00    +0.000 C 
BRANCH  20  21
ATOM     21  C   UNL     1      10.035  12.426  17.803  0.00  0.00    +0.000 A 
ATOM     22  C   UNL     1      11.209  12.758  17.128  0.00  0.00    +0.000 A 
ATOM     23  C   UNL     1      11.526  14.099  16.900  0.00  0.00    +0.000 A 
ATOM     24  C   UNL     1      10.681  15.130  17.339  0.00  0.00    +0.000 A 
ATOM     25  C   UNL     1       9.523  14.808  18.064  0.00  0.00    +0.000 A 
ATOM     26  C   UNL     1       9.222  13.458  18.288  0.00  0.00    +0.000 A 
BRANCH  24  27
ATOM     27  O   UNL     1      11.154  16.383  17.044  0.00  0.00    +0.000 OA
ATOM     28  C   UNL     1      11.973  17.007  18.026  0.00  0.00    +0.000 C 
ENDBRANCH  24  27
BRANCH  25  29
ATOM     29  O   UNL     1       8.755  15.828  18.561  0.00  0.00    +0.000 OA
ATOM     30  C   UNL     1       8.330  15.739  19.915  0.00  0.00    +0.000 C 
ENDBRANCH  25  29
ENDBRANCH  20  21
ENDBRANCH  17  19
ENDBRANCH  16  17
ENDBRANCH   1  16
TORSDOF 11
ENDMDL
MODEL 8
REMARK VINA RESULT:      -6.5      2.889      9.279
REMARK  Name = 
REMARK  16 active torsions:
REMARK  status: ('A' for Active; 'I' for Inactive)
REMARK    1  A    between atoms: C_1  and  O_2
REMARK    2  A    between atoms: O_2  and  C_3
REMARK    3  A    between atoms: C_5  and  O_6
REMARK    4  A    between atoms: O_6  and  C_7
REMARK    5  A    between atoms: C_8  and  O_9
REMARK    6  A    between atoms: O_9  and  C_10
REMARK    7  A    between atoms: C_12  and  C_13
REMARK    8  A    between atoms: C_14  and  C_15
REMARK    9  A    between atoms: C_15  and  O_16
REMARK   10  A    between atoms: O_16  and  C_17
REMARK   11  A    between atoms: C_17  and  C_19
REMARK   12  A    between atoms: C_20  and  C_21
REMARK   13  A    between atoms: C_24  and  O_25
REMARK   14  A    between atoms: O_25  and  C_26
REMARK   15  A    between atoms: C_27  and  O_28
REMARK   16  A    between atoms: O_28  and  C_29
REMARK                            x       y       z     vdW  Elec       q    Type
REMARK                         _______ _______ _______ _____ _____    ______ ____
ROOT
ATOM      1  C   UNL     1       0.358   9.082  21.961  0.00  0.00    +0.000 C 
ENDROOT
BRANCH   1   3
ATOM      2  C   UNL     1       1.207   7.035  20.791  0.00  0.00    +0.000 C 
ATOM      3  C   UNL     1       1.296   8.354  21.041  0.00  0.00    +0.000 C 
BRANCH   2   9
ATOM      4  C   UNL     1       2.414   4.835  20.304  0.00  0.00    +0.000 A 
ATOM      5  C   UNL     1       3.341   4.141  19.520  0.00  0.00    +0.000 A 
ATOM      6  C   UNL     1       4.026   4.755  18.472  0.00  0.00    +0.000 A 
ATOM      7  C   UNL     1       3.767   6.094  18.162  0.00  0.00    +0.000 A 
ATOM      8  C   UNL     1       2.869   6.812  18.972  0.00  0.00    +0.000 A 
ATOM      9  C   UNL     1       2.203   6.209  20.065  0.00  0.00    +0.000 A 
BRANCH   4  11
ATOM     10  C   UNL     1       2.188   2.938  21.715  0.00  0.00    +0.000 C 
ATOM     11  O   UNL     1       1.695   4.211  21.297  0.00  0.00    +0.000 OA
ENDBRANCH   4  11
BRANCH   6  12
ATOM     12  O   UNL     1       4.851   3.887  17.804  0.00  0.00    +0.000 OA
ATOM     13  C   UNL     1       4.222   2.814  17.117  0.00  0.00    +0.000 C 
ENDBRANCH   6  12
BRANCH   7  14
ATOM     14  O   UNL     1       4.383   6.597  17.050  0.00  0.00    +0.000 OA
ATOM     15  C   UNL     1       5.729   7.033  17.146  0.00  0.00    +0.000 C 
ENDBRANCH   7  14
ENDBRANCH   2   9
ENDBRANCH   1   3
BRANCH   1  16
ATOM     16  O   UNL     1       0.827  10.416  22.193  0.00  0.00    +0.000 OA
BRANCH  16  17
ATOM     17  C   UNL     1      -0.045  11.393  21.838  0.00  0.00    +0.000 C 
ATOM     18  O   UNL     1      -0.368  12.366  22.506  0.00  0.00    +0.000 OA
BRANCH  17  19
ATOM     19  C   UNL     1      -0.590  11.099  20.497  0.00  0.00    +0.000 C 
ATOM     20  C   UNL     1      -1.690  11.743  20.077  0.00  0.00    +0.000 C 
BRANCH  20  21
ATOM     21  C   UNL     1      -2.382  11.456  18.811  0.00  0.00    +0.000 A 
ATOM     22  C   UNL     1      -1.663  11.079  17.677  0.00  0.00    +0.000 A 
ATOM     23  C   UNL     1      -2.332  10.855  16.471  0.00  0.00    +0.000 A 
ATOM     24  C   UNL     1      -3.724  11.001  16.375  0.00  0.00    +0.000 A 
ATOM     25  C   UNL     1      -4.451  11.429  17.497  0.00  0.00    +0.000 A 
ATOM     26  C   UNL     1      -3.764  11.654  18.698  0.00  0.00    +0.000 A 
BRANCH  24  27
ATOM     27  O   UNL     1      -4.211  10.756  15.116  0.00  0.00    +0.000 OA
ATOM     28  C   UNL     1      -3.355  10.052  14.224  0.00  0.00    +0.000 C 
ENDBRANCH  24  27
BRANCH  25  29
ATOM     29  O   UNL     1      -5.796  11.650  17.364  0.00  0.00    +0.000 OA
ATOM     30  C   UNL     1      -6.230  12.990  17.159  0.00  0.00    +0.000 C 
ENDBRANCH  25  29
ENDBRANCH  20  21
ENDBRANCH  17  19
ENDBRANCH  16  17
ENDBRANCH   1  16
TORSDOF 11
ENDMDL
MODEL 9
REMARK VINA RESULT:      -6.4      4.461      8.030
REMARK  Name = 
REMARK  16 active torsions:
REMARK  status: ('A' for Active; 'I' for Inactive)
REMARK    1  A    between atoms: C_1  and  O_2
REMARK    2  A    between atoms: O_2  and  C_3
REMARK    3  A    between atoms: C_5  and  O_6
REMARK    4  A    between atoms: O_6  and  C_7
REMARK    5  A    between atoms: C_8  and  O_9
REMARK    6  A    between atoms: O_9  and  C_10
REMARK    7  A    between atoms: C_12  and  C_13
REMARK    8  A    between atoms: C_14  and  C_15
REMARK    9  A    between atoms: C_15  and  O_16
REMARK   10  A    between atoms: O_16  and  C_17
REMARK   11  A    between atoms: C_17  and  C_19
REMARK   12  A    between atoms: C_20  and  C_21
REMARK   13  A    between atoms: C_24  and  O_25
REMARK   14  A    between atoms: O_25  and  C_26
REMARK   15  A    between atoms: C_27  and  O_28
REMARK   16  A    between atoms: O_28  and  C_29
REMARK                            x       y       z     vdW  Elec       q    Type
REMARK                         _______ _______ _______ _____ _____    ______ ____
ROOT
ATOM      1  C   UNL     1       8.163   5.927  18.839  0.00  0.00    +0.000 C 
ENDROOT
BRANCH   1   3
ATOM      2  C   UNL     1       5.658   5.852  18.846  0.00  0.00    +0.000 C 
ATOM      3  C   UNL     1       6.836   5.352  18.431  0.00  0.00    +0.000 C 
BRANCH   2   9
ATOM      4  C   UNL     1       3.856   4.723  17.427  0.00  0.00    +0.000 A 
ATOM      5  C   UNL     1       2.602   4.104  17.378  0.00  0.00    +0.000 A 
ATOM      6  C   UNL     1       1.822   3.926  18.520  0.00  0.00    +0.000 A 
ATOM      7  C   UNL     1       2.306   4.343  19.764  0.00  0.00    +0.000 A 
ATOM      8  C   UNL     1       3.546   5.004  19.818  0.00  0.00    +0.000 A 
ATOM      9  C   UNL     1       4.324   5.229  18.657  0.00  0.00    +0.000 A 
BRANCH   4  11
ATOM     10  C   UNL     1       5.279   3.641  15.864  0.00  0.00    +0.000 C 
ATOM     11  O   UNL     1       4.649   4.842  16.310  0.00  0.00    +0.000 OA
ENDBRANCH   4  11
BRANCH   6  12
ATOM     12  O   UNL     1       0.653   3.258  18.258  0.00  0.00    +0.000 OA
ATOM     13  C   UNL     1       0.595   1.897  18.661  0.00  0.00    +0.000 C 
ENDBRANCH   6  12
BRANCH   7  14
ATOM     14  O   UNL     1       1.545   4.029  20.855  0.00  0.00    +0.000 OA
ATOM     15  C   UNL     1       2.067   3.133  21.823  0.00  0.00    +0.000 C 
ENDBRANCH   7  14
ENDBRANCH   2   9
ENDBRANCH   1   3
BRANCH   1  16
ATOM     16  O   UNL     1       8.060   7.347  19.002  0.00  0.00    +0.000 OA
BRANCH  16  17
ATOM     17  C   UNL     1       8.016   8.049  17.843  0.00  0.00    +0.000 C 
ATOM     18  O   UNL     1       7.636   7.641  16.753  0.00  0.00    +0.000 OA
BRANCH  17  19
ATOM     19  C   UNL     1       8.532   9.413  18.076  0.00  0.00    +0.000 C 
ATOM     20  C   UNL     1       9.253   9.665  19.180  0.00  0.00    +0.000 C 
BRANCH  20  21
ATOM     21  C   UNL     1       9.725  11.003  19.569  0.00  0.00    +0.000 A 
ATOM     22  C   UNL     1       9.575  11.456  20.880  0.00  0.00    +0.000 A 
ATOM     23  C   UNL     1       9.987  12.747  21.221  0.00  0.00    +0.000 A 
ATOM     24  C   UNL     1      10.554  13.604  20.266  0.00  0.00    +0.000 A 
ATOM     25  C   UNL     1      10.662  13.176  18.934  0.00  0.00    +0.000 A 
ATOM     26  C   UNL     1      10.239  11.880  18.607  0.00  0.00    +0.000 A 
BRANCH  24  27
ATOM     27  O   UNL     1      10.886  14.836  20.771  0.00  0.00    +0.000 OA
ATOM     28  C   UNL     1       9.833  15.786  20.887  0.00  0.00    +0.000 C 
ENDBRANCH  24  27
BRANCH  25  29
ATOM     29  O   UNL     1      11.136  14.056  17.998  0.00  0.00    +0.000 OA
ATOM     30  C   UNL     1      11.389  13.559  16.689  0.00  0.00    +0.000 C 
ENDBRANCH  25  29
ENDBRANCH  20  21
ENDBRANCH  17  19
ENDBRANCH  16  17
ENDBRANCH   1  16
TORSDOF 11
ENDMDL
