MODEL 1
REMARK VINA RESULT:      -7.1      0.000      0.000
REMARK  Name = 
REMARK  13 active torsions:
REMARK  status: ('A' for Active; 'I' for Inactive)
REMARK    1  A    between atoms: C_1  and  N_2
REMARK    2  A    between atoms: C_3  and  C_5
REMARK    3  A    between atoms: C_7  and  C_8
REMARK    4  A    between atoms: C_8  and  S_9
REMARK    5  A    between atoms: S_9  and  C_10
REMARK    6  A    between atoms: N_13  and  C_14
REMARK    7  A    between atoms: C_14  and  C_15
REMARK    8  A    between atoms: C_15  and  O_16
REMARK    9  A    between atoms: C_17  and  C_18
REMARK   10  A    between atoms: C_20  and  C_21
REMARK   11  A    between atoms: C_24  and  O_25
REMARK   12  A    between atoms: O_25  and  C_26
REMARK   13  A    between atoms: C_29  and  C_30
REMARK                            x       y       z     vdW  Elec       q    Type
REMARK                         _______ _______ _______ _____ _____    ______ ____
ROOT
ATOM      1  C   UNL     1       0.087  10.157  18.465  0.00  0.00    +0.000 A 
ATOM      2  N   UNL     1      -0.821  10.034  17.433  0.00  0.00    +0.000 NA
ATOM      3  C   UNL     1      -2.104  10.470  17.557  0.00  0.00    +0.000 A 
ATOM      4  N   UNL     1      -3.087  10.094  16.648  0.00  0.00    +0.000 N 
ATOM      5  C   UNL     1      -2.457  11.266  18.676  0.00  0.00    +0.000 A 
ATOM      6  C   UNL     1      -1.515  11.508  19.724  0.00  0.00    +0.000 A 
ATOM      7  C   UNL     1      -0.234  10.869  19.624  0.00  0.00    +0.000 A 
ATOM      8  H   UNL     1      -4.018  10.073  17.060  0.00  0.00    +0.000 HD
ENDROOT
BRANCH   6   9
ATOM      9  C   UNL     1      -1.834  12.407  20.883  0.00  0.00    +0.000 A 
ATOM     10  C   UNL     1      -2.322  11.950  22.120  0.00  0.00    +0.000 A 
ATOM     11  C   UNL     1      -2.616  12.842  23.164  0.00  0.00    +0.000 A 
ATOM     12  C   UNL     1      -2.334  14.199  23.041  0.00  0.00    +0.000 A 
ATOM     13  C   UNL     1      -1.840  14.676  21.837  0.00  0.00    +0.000 A 
ATOM     14  C   UNL     1      -1.650  13.798  20.766  0.00  0.00    +0.000 A 
BRANCH  12  15
ATOM     15  O   UNL     1      -2.625  14.977  24.125  0.00  0.00    +0.000 OA
ATOM     16  C   UNL     1      -3.388  16.146  23.838  0.00  0.00    +0.000 C 
ENDBRANCH  12  15
ENDBRANCH   6   9
BRANCH   5  17
ATOM     17  C   UNL     1      -3.795  11.800  18.716  0.00  0.00    +0.000 C 
ATOM     18  N   UNL     1      -4.903  12.159  18.732  0.00  0.00    +0.000 NA
ENDBRANCH   5  17
BRANCH   7  19
ATOM     19  C   UNL     1       0.734  10.985  20.667  0.00  0.00    +0.000 C 
ATOM     20  N   UNL     1       1.515  11.057  21.521  0.00  0.00    +0.000 NA
ENDBRANCH   7  19
BRANCH   1  21
ATOM     21  S   UNL     1       1.691   9.391  18.100  0.00  0.00    +0.000 S 
BRANCH  21  22
ATOM     22  C   UNL     1       1.983   7.853  19.147  0.00  0.00    +0.000 C 
BRANCH  22  25
ATOM     23  C   UNL     1       4.477   5.810  17.146  0.00  0.00    +0.000 A 
ATOM     24  C   UNL     1       4.014   6.760  18.060  0.00  0.00    +0.000 A 
ATOM     25  C   UNL     1       2.717   6.669  18.540  0.00  0.00    +0.000 A 
ATOM     26  C   UNL     1       2.144   5.394  18.465  0.00  0.00    +0.000 A 
ATOM     27  C   UNL     1       2.803   4.390  17.758  0.00  0.00    +0.000 A 
ATOM     28  N   UNL     1       3.904   4.599  17.019  0.00  0.00    +0.000 NA
BRANCH  23  31
ATOM     29  C   UNL     1       7.284   4.980  17.260  0.00  0.00    +0.000 C 
ATOM     30  N   UNL     1       6.782   5.799  16.215  0.00  0.00    +0.000 N 
ATOM     31  C   UNL     1       5.467   6.163  16.058  0.00  0.00    +0.000 C 
ATOM     32  O   UNL     1       5.172   6.827  15.070  0.00  0.00    +0.000 OA
ATOM     33  H   UNL     1       7.328   5.926  15.372  0.00  0.00    +0.000 HD
ENDBRANCH  23  31
ENDBRANCH  22  25
ENDBRANCH  21  22
ENDBRANCH   1  21
BRANCH   4  34
ATOM     34  C   UNL     1      -3.135   9.431  15.330  0.00  0.00    +0.000 C 
BRANCH  34  35
ATOM     35  C   UNL     1      -3.359  10.226  14.043  0.00  0.00    +0.000 C 
BRANCH  35  36
ATOM     36  O   UNL     1      -2.485   9.776  12.997  0.00  0.00    +0.000 OA
ATOM     37  H   UNL     1      -1.710   9.367  13.415  0.00  0.00    +0.000 HD
ENDBRANCH  35  36
ENDBRANCH  34  35
ENDBRANCH   4  34
TORSDOF 11
ENDMDL
MODEL 2
REMARK VINA RESULT:      -6.9      1.859      2.304
REMARK  Name = 
REMARK  13 active torsions:
REMARK  status: ('A' for Active; 'I' for Inactive)
REMARK    1  A    between atoms: C_1  and  N_2
REMARK    2  A    between atoms: C_3  and  C_5
REMARK    3  A    between atoms: C_7  and  C_8
REMARK    4  A    between atoms: C_8  and  S_9
REMARK    5  A    between atoms: S_9  and  C_10
REMARK    6  A    between atoms: N_13  and  C_14
REMARK    7  A    between atoms: C_14  and  C_15
REMARK    8  A    between atoms: C_15  and  O_16
REMARK    9  A    between atoms: C_17  and  C_18
REMARK   10  A    between atoms: C_20  and  C_21
REMARK   11  A    between atoms: C_24  and  O_25
REMARK   12  A    between atoms: O_25  and  C_26
REMARK   13  A    between atoms: C_29  and  C_30
REMARK                            x       y       z     vdW  Elec       q    Type
REMARK                         _______ _______ _______ _____ _____    ______ ____
ROOT
ATOM      1  C   UNL     1      -0.435  11.461  19.004  0.00  0.00    +0.000 A 
ATOM      2  N   UNL     1      -1.165  11.021  17.918  0.00  0.00    +0.000 NA
ATOM      3  C   UNL     1      -2.525  11.066  17.910  0.00  0.00    +0.000 A 
ATOM      4  N   UNL     1      -3.265  10.370  16.960  0.00  0.00    +0.000 N 
ATOM      5  C   UNL     1      -3.199  11.779  18.934  0.00  0.00    +0.000 A 
ATOM      6  C   UNL     1      -2.472  12.341  20.028  0.00  0.00    +0.000 A 
ATOM      7  C   UNL     1      -1.057  12.105  20.076  0.00  0.00    +0.000 A 
ATOM      8  H   UNL     1      -4.186  10.097  17.301  0.00  0.00    +0.000 HD
ENDROOT
BRANCH   6   9
ATOM      9  C   UNL     1      -3.147  13.166  21.087  0.00  0.00    +0.000 A 
ATOM     10  C   UNL     1      -3.743  12.626  22.241  0.00  0.00    +0.000 A 
ATOM     11  C   UNL     1      -4.372  13.447  23.190  0.00  0.00    +0.000 A 
ATOM     12  C   UNL     1      -4.334  14.833  23.068  0.00  0.00    +0.000 A 
ATOM     13  C   UNL     1      -3.742  15.393  21.947  0.00  0.00    +0.000 A 
ATOM     14  C   UNL     1      -3.211  14.566  20.953  0.00  0.00    +0.000 A 
BRANCH  12  15
ATOM     15  O   UNL     1      -4.947  15.542  24.061  0.00  0.00    +0.000 OA
ATOM     16  C   UNL     1      -4.138  16.545  24.670  0.00  0.00    +0.000 C 
ENDBRANCH  12  15
ENDBRANCH   6   9
BRANCH   5  17
ATOM     17  C   UNL     1      -4.631  11.896  18.830  0.00  0.00    +0.000 C 
ATOM     18  N   UNL     1      -5.778  12.045  18.692  0.00  0.00    +0.000 NA
ENDBRANCH   5  17
BRANCH   7  19
ATOM     19  C   UNL     1      -0.269  12.554  21.178  0.00  0.00    +0.000 C 
ATOM     20  N   UNL     1       0.368  12.899  22.084  0.00  0.00    +0.000 NA
ENDBRANCH   7  19
BRANCH   1  21
ATOM     21  S   UNL     1       1.350  11.184  18.823  0.00  0.00    +0.000 S 
BRANCH  21  22
ATOM     22  C   UNL     1       1.717   9.593  17.883  0.00  0.00    +0.000 C 
BRANCH  22  25
ATOM     23  C   UNL     1       2.382   5.944  18.683  0.00  0.00    +0.000 A 
ATOM     24  C   UNL     1       2.553   7.192  18.079  0.00  0.00    +0.000 A 
ATOM     25  C   UNL     1       1.984   8.315  18.660  0.00  0.00    +0.000 A 
ATOM     26  C   UNL     1       1.710   8.202  20.028  0.00  0.00    +0.000 A 
ATOM     27  C   UNL     1       1.830   6.958  20.647  0.00  0.00    +0.000 A 
ATOM     28  N   UNL     1       2.063   5.815  19.984  0.00  0.00    +0.000 NA
BRANCH  23  31
ATOM     29  C   UNL     1       4.699   4.232  18.151  0.00  0.00    +0.000 C 
ATOM     30  N   UNL     1       3.418   3.957  17.605  0.00  0.00    +0.000 N 
ATOM     31  C   UNL     1       2.275   4.672  17.873  0.00  0.00    +0.000 C 
ATOM     32  O   UNL     1       1.226   4.278  17.373  0.00  0.00    +0.000 OA
ATOM     33  H   UNL     1       3.227   3.046  17.209  0.00  0.00    +0.000 HD
ENDBRANCH  23  31
ENDBRANCH  22  25
ENDBRANCH  21  22
ENDBRANCH   1  21
BRANCH   4  34
ATOM     34  C   UNL     1      -2.993   9.655  15.698  0.00  0.00    +0.000 C 
BRANCH  34  35
ATOM     35  C   UNL     1      -3.304  10.285  14.339  0.00  0.00    +0.000 C 
BRANCH  35  36
ATOM     36  O   UNL     1      -4.525   9.765  13.795  0.00  0.00    +0.000 OA
ATOM     37  H   UNL     1      -4.742  10.286  13.004  0.00  0.00    +0.000 HD
ENDBRANCH  35  36
ENDBRANCH  34  35
ENDBRANCH   4  34
TORSDOF 11
ENDMDL
MODEL 3
REMARK VINA RESULT:      -6.8      1.372      1.696
REMARK  Name = 
REMARK  13 active torsions:
REMARK  status: ('A' for Active; 'I' for Inactive)
REMARK    1  A    between atoms: C_1  and  N_2
REMARK    2  A    between atoms: C_3  and  C_5
REMARK    3  A    between atoms: C_7  and  C_8
REMARK    4  A    between atoms: C_8  and  S_9
REMARK    5  A    between atoms: S_9  and  C_10
REMARK    6  A    between atoms: N_13  and  C_14
REMARK    7  A    between atoms: C_14  and  C_15
REMARK    8  A    between atoms: C_15  and  O_16
REMARK    9  A    between atoms: C_17  and  C_18
REMARK   10  A    between atoms: C_20  and  C_21
REMARK   11  A    between atoms: C_24  and  O_25
REMARK   12  A    between atoms: O_25  and  C_26
REMARK   13  A    between atoms: C_29  and  C_30
REMARK                            x       y       z     vdW  Elec       q    Type
REMARK                         _______ _______ _______ _____ _____    ______ ____
ROOT
ATOM      1  C   UNL     1      -0.127   9.708  20.293  0.00  0.00    +0.000 A 
ATOM      2  N   UNL     1      -0.668   9.987  19.054  0.00  0.00    +0.000 NA
ATOM      3  C   UNL     1      -1.702  10.860  18.909  0.00  0.00    +0.000 A 
ATOM      4  N   UNL     1      -2.431  10.926  17.726  0.00  0.00    +0.000 N 
ATOM      5  C   UNL     1      -2.086  11.666  20.010  0.00  0.00    +0.000 A 
ATOM      6  C   UNL     1      -1.480  11.483  21.292  0.00  0.00    +0.000 A 
ATOM      7  C   UNL     1      -0.523  10.422  21.428  0.00  0.00    +0.000 A 
ATOM      8  H   UNL     1      -3.394  11.228  17.873  0.00  0.00    +0.000 HD
ENDROOT
BRANCH   6   9
ATOM      9  C   UNL     1      -1.810  12.370  22.458  0.00  0.00    +0.000 A 
ATOM     10  C   UNL     1      -1.036  13.478  22.845  0.00  0.00    +0.000 A 
ATOM     11  C   UNL     1      -1.387  14.264  23.954  0.00  0.00    +0.000 A 
ATOM     12  C   UNL     1      -2.574  14.031  24.643  0.00  0.00    +0.000 A 
ATOM     13  C   UNL     1      -3.364  12.953  24.275  0.00  0.00    +0.000 A 
ATOM     14  C   UNL     1      -2.954  12.111  23.238  0.00  0.00    +0.000 A 
BRANCH  12  15
ATOM     15  O   UNL     1      -2.841  14.871  25.686  0.00  0.00    +0.000 OA
ATOM     16  C   UNL     1      -1.877  15.901  25.889  0.00  0.00    +0.000 C 
ENDBRANCH  12  15
ENDBRANCH   6   9
BRANCH   5  17
ATOM     17  C   UNL     1      -3.111  12.654  19.786  0.00  0.00    +0.000 C 
ATOM     18  N   UNL     1      -3.979  13.420  19.663  0.00  0.00    +0.000 NA
ENDBRANCH   5  17
BRANCH   7  19
ATOM     19  C   UNL     1       0.064  10.113  22.691  0.00  0.00    +0.000 C 
ATOM     20  N   UNL     1       0.544   9.884  23.722  0.00  0.00    +0.000 NA
ENDBRANCH   7  19
BRANCH   1  21
ATOM     21  S   UNL     1       1.155   8.425  20.240  0.00  0.00    +0.000 S 
BRANCH  21  22
ATOM     22  C   UNL     1       1.877   8.232  18.511  0.00  0.00    +0.000 C 
BRANCH  22  25
ATOM     23  C   UNL     1       4.578   5.972  17.100  0.00  0.00    +0.000 A 
ATOM     24  C   UNL     1       4.018   7.045  17.798  0.00  0.00    +0.000 A 
ATOM     25  C   UNL     1       2.685   6.990  18.177  0.00  0.00    +0.000 A 
ATOM     26  C   UNL     1       2.146   5.702  18.271  0.00  0.00    +0.000 A 
ATOM     27  C   UNL     1       2.886   4.617  17.801  0.00  0.00    +0.000 A 
ATOM     28  N   UNL     1       4.043   4.738  17.132  0.00  0.00    +0.000 NA
BRANCH  23  31
ATOM     29  C   UNL     1       7.432   5.829  17.746  0.00  0.00    +0.000 C 
ATOM     30  N   UNL     1       6.970   6.161  16.446  0.00  0.00    +0.000 N 
ATOM     31  C   UNL     1       5.652   6.173  16.054  0.00  0.00    +0.000 C 
ATOM     32  O   UNL     1       5.409   6.423  14.878  0.00  0.00    +0.000 OA
ATOM     33  H   UNL     1       7.611   6.134  15.664  0.00  0.00    +0.000 HD
ENDBRANCH  23  31
ENDBRANCH  22  25
ENDBRANCH  21  22
ENDBRANCH   1  21
BRANCH   4  34
ATOM     34  C   UNL     1      -2.301  10.402  16.352  0.00  0.00    +0.000 C 
BRANCH  34  35
ATOM     35  C   UNL     1      -3.167  10.933  15.209  0.00  0.00    +0.000 C 
BRANCH  35  36
ATOM     36  O   UNL     1      -3.599   9.868  14.350  0.00  0.00    +0.000 OA
ATOM     37  H   UNL     1      -3.128   9.960  13.506  0.00  0.00    +0.000 HD
ENDBRANCH  35  36
ENDBRANCH  34  35
ENDBRANCH   4  34
TORSDOF 11
ENDMDL
MODEL 4
REMARK VINA RESULT:      -6.8      1.691      2.038
REMARK  Name = 
REMARK  13 active torsions:
REMARK  status: ('A' for Active; 'I' for Inactive)
REMARK    1  A    between atoms: C_1  and  N_2
REMARK    2  A    between atoms: C_3  and  C_5
REMARK    3  A    between atoms: C_7  and  C_8
REMARK    4  A    between atoms: C_8  and  S_9
REMARK    5  A    between atoms: S_9  and  C_10
REMARK    6  A    between atoms: N_13  and  C_14
REMARK    7  A    between atoms: C_14  and  C_15
REMARK    8  A    between atoms: C_15  and  O_16
REMARK    9  A    between atoms: C_17  and  C_18
REMARK   10  A    between atoms: C_20  and  C_21
REMARK   11  A    between atoms: C_24  and  O_25
REMARK   12  A    between atoms: O_25  and  C_26
REMARK   13  A    between atoms: C_29  and  C_30
REMARK                            x       y       z     vdW  Elec       q    Type
REMARK                         _______ _______ _______ _____ _____    ______ ____
ROOT
ATOM      1  C   UNL     1       0.411   9.708  18.826  0.00  0.00    +0.000 A 
ATOM      2  N   UNL     1      -0.434   9.787  17.737  0.00  0.00    +0.000 NA
ATOM      3  C   UNL     1      -1.638  10.416  17.815  0.00  0.00    +0.000 A 
ATOM      4  N   UNL     1      -2.605  10.252  16.829  0.00  0.00    +0.000 N 
ATOM      5  C   UNL     1      -1.938  11.196  18.961  0.00  0.00    +0.000 A 
ATOM      6  C   UNL     1      -1.042  11.226  20.075  0.00  0.00    +0.000 A 
ATOM      7  C   UNL     1       0.128  10.398  20.008  0.00  0.00    +0.000 A 
ATOM      8  H   UNL     1      -3.554  10.357  17.185  0.00  0.00    +0.000 HD
ENDROOT
BRANCH   6   9
ATOM      9  C   UNL     1      -1.294  12.101  21.270  0.00  0.00    +0.000 A 
ATOM     10  C   UNL     1      -0.779  13.402  21.412  0.00  0.00    +0.000 A 
ATOM     11  C   UNL     1      -1.037  14.167  22.560  0.00  0.00    +0.000 A 
ATOM     12  C   UNL     1      -1.899  13.700  23.549  0.00  0.00    +0.000 A 
ATOM     13  C   UNL     1      -2.431  12.425  23.428  0.00  0.00    +0.000 A 
ATOM     14  C   UNL     1      -2.085  11.627  22.334  0.00  0.00    +0.000 A 
BRANCH  12  15
ATOM     15  O   UNL     1      -2.110  14.534  24.608  0.00  0.00    +0.000 OA
ATOM     16  C   UNL     1      -2.525  15.853  24.261  0.00  0.00    +0.000 C 
ENDBRANCH  12  15
ENDBRANCH   6   9
BRANCH   5  17
ATOM     17  C   UNL     1      -3.176  11.933  18.958  0.00  0.00    +0.000 C 
ATOM     18  N   UNL     1      -4.213  12.462  18.941  0.00  0.00    +0.000 NA
ENDBRANCH   5  17
BRANCH   7  19
ATOM     19  C   UNL     1       1.029  10.300  21.110  0.00  0.00    +0.000 C 
ATOM     20  N   UNL     1       1.750  10.203  22.014  0.00  0.00    +0.000 NA
ENDBRANCH   7  19
BRANCH   1  21
ATOM     21  S   UNL     1       1.897   8.717  18.505  0.00  0.00    +0.000 S 
BRANCH  21  22
ATOM     22  C   UNL     1       2.082   7.316  19.751  0.00  0.00    +0.000 C 
BRANCH  22  25
ATOM     23  C   UNL     1       3.489   3.837  19.192  0.00  0.00    +0.000 A 
ATOM     24  C   UNL     1       3.034   4.955  19.896  0.00  0.00    +0.000 A 
ATOM     25  C   UNL     1       2.241   5.890  19.249  0.00  0.00    +0.000 A 
ATOM     26  C   UNL     1       1.561   5.416  18.122  0.00  0.00    +0.000 A 
ATOM     27  C   UNL     1       1.869   4.151  17.622  0.00  0.00    +0.000 A 
ATOM     28  N   UNL     1       2.883   3.398  18.074  0.00  0.00    +0.000 NA
BRANCH  23  31
ATOM     29  C   UNL     1       5.974   4.881  18.044  0.00  0.00    +0.000 C 
ATOM     30  N   UNL     1       5.948   3.710  18.846  0.00  0.00    +0.000 N 
ATOM     31  C   UNL     1       4.835   3.208  19.476  0.00  0.00    +0.000 C 
ATOM     32  O   UNL     1       4.979   2.218  20.186  0.00  0.00    +0.000 OA
ATOM     33  H   UNL     1       6.812   3.342  19.222  0.00  0.00    +0.000 HD
ENDBRANCH  23  31
ENDBRANCH  22  25
ENDBRANCH  21  22
ENDBRANCH   1  21
BRANCH   4  34
ATOM     34  C   UNL     1      -2.667   9.678  15.470  0.00  0.00    +0.000 C 
BRANCH  34  35
ATOM     35  C   UNL     1      -3.649  10.207  14.423  0.00  0.00    +0.000 C 
BRANCH  35  36
ATOM     36  O   UNL     1      -3.142  10.014  13.095  0.00  0.00    +0.000 OA
ATOM     37  H   UNL     1      -3.838   9.581  12.573  0.00  0.00    +0.000 HD
ENDBRANCH  35  36
ENDBRANCH  34  35
ENDBRANCH   4  34
TORSDOF 11
ENDMDL
MODEL 5
REMARK VINA RESULT:      -6.7      1.400      2.301
REMARK  Name = 
REMARK  13 active torsions:
REMARK  status: ('A' for Active; 'I' for Inactive)
REMARK    1  A    between atoms: C_1  and  N_2
REMARK    2  A    between atoms: C_3  and  C_5
REMARK    3  A    between atoms: C_7  and  C_8
REMARK    4  A    between atoms: C_8  and  S_9
REMARK    5  A    between atoms: S_9  and  C_10
REMARK    6  A    between atoms: N_13  and  C_14
REMARK    7  A    between atoms: C_14  and  C_15
REMARK    8  A    between atoms: C_15  and  O_16
REMARK    9  A    between atoms: C_17  and  C_18
REMARK   10  A    between atoms: C_20  and  C_21
REMARK   11  A    between atoms: C_24  and  O_25
REMARK   12  A    between atoms: O_25  and  C_26
REMARK   13  A    between atoms: C_29  and  C_30
REMARK                            x       y       z     vdW  Elec       q    Type
REMARK                         _______ _______ _______ _____ _____    ______ ____
ROOT
ATOM      1  C   UNL     1       0.188  10.198  18.435  0.00  0.00    +0.000 A 
ATOM      2  N   UNL     1      -0.734  10.114  17.411  0.00  0.00    +0.000 NA
ATOM      3  C   UNL     1      -2.016  10.541  17.570  0.00  0.00    +0.000 A 
ATOM      4  N   UNL     1      -3.010  10.200  16.659  0.00  0.00    +0.000 N 
ATOM      5  C   UNL     1      -2.356  11.289  18.726  0.00  0.00    +0.000 A 
ATOM      6  C   UNL     1      -1.401  11.489  19.770  0.00  0.00    +0.000 A 
ATOM      7  C   UNL     1      -0.120  10.860  19.626  0.00  0.00    +0.000 A 
ATOM      8  H   UNL     1      -3.936  10.158  17.083  0.00  0.00    +0.000 HD
ENDROOT
BRANCH   6   9
ATOM      9  C   UNL     1      -1.707  12.339  20.970  0.00  0.00    +0.000 A 
ATOM     10  C   UNL     1      -1.529  13.734  21.010  0.00  0.00    +0.000 A 
ATOM     11  C   UNL     1      -1.819  14.474  22.166  0.00  0.00    +0.000 A 
ATOM     12  C   UNL     1      -2.392  13.863  23.278  0.00  0.00    +0.000 A 
ATOM     13  C   UNL     1      -2.591  12.491  23.261  0.00  0.00    +0.000 A 
ATOM     14  C   UNL     1      -2.201  11.744  22.146  0.00  0.00    +0.000 A 
BRANCH  12  15
ATOM     15  O   UNL     1      -2.667  14.676  24.339  0.00  0.00    +0.000 OA
ATOM     16  C   UNL     1      -1.618  15.572  24.697  0.00  0.00    +0.000 C 
ENDBRANCH  12  15
ENDBRANCH   6   9
BRANCH   5  17
ATOM     17  C   UNL     1      -3.695  11.816  18.806  0.00  0.00    +0.000 C 
ATOM     18  N   UNL     1      -4.783  12.210  18.941  0.00  0.00    +0.000 NA
ENDBRANCH   5  17
BRANCH   7  19
ATOM     19  C   UNL     1       0.861  10.935  20.660  0.00  0.00    +0.000 C 
ATOM     20  N   UNL     1       1.664  11.018  21.494  0.00  0.00    +0.000 NA
ENDBRANCH   7  19
BRANCH   1  21
ATOM     21  S   UNL     1       1.789   9.452  18.017  0.00  0.00    +0.000 S 
BRANCH  21  22
ATOM     22  C   UNL     1       2.047   7.811  18.905  0.00  0.00    +0.000 C 
BRANCH  22  25
ATOM     23  C   UNL     1       2.905   4.324  17.682  0.00  0.00    +0.000 A 
ATOM     24  C   UNL     1       2.121   5.448  17.950  0.00  0.00    +0.000 A 
ATOM     25  C   UNL     1       2.735   6.670  18.175  0.00  0.00    +0.000 A 
ATOM     26  C   UNL     1       4.024   6.794  17.645  0.00  0.00    +0.000 A 
ATOM     27  C   UNL     1       4.660   5.667  17.127  0.00  0.00    +0.000 A 
ATOM     28  N   UNL     1       4.167   4.423  17.224  0.00  0.00    +0.000 NA
BRANCH  23  31
ATOM     29  C   UNL     1       3.091   3.481  20.482  0.00  0.00    +0.000 C 
ATOM     30  N   UNL     1       2.680   2.594  19.453  0.00  0.00    +0.000 N 
ATOM     31  C   UNL     1       2.499   2.940  18.136  0.00  0.00    +0.000 C 
ATOM     32  O   UNL     1       2.083   2.076  17.372  0.00  0.00    +0.000 OA
ATOM     33  H   UNL     1       2.229   1.721  19.696  0.00  0.00    +0.000 HD
ENDBRANCH  23  31
ENDBRANCH  22  25
ENDBRANCH  21  22
ENDBRANCH   1  21
BRANCH   4  34
ATOM     34  C   UNL     1      -3.074   9.591  15.316  0.00  0.00    +0.000 C 
BRANCH  34  35
ATOM     35  C   UNL     1      -3.863  10.244  14.179  0.00  0.00    +0.000 C 
BRANCH  35  36
ATOM     36  O   UNL     1      -3.317   9.891  12.900  0.00  0.00    +0.000 OA
ATOM     37  H   UNL     1      -4.050   9.857  12.265  0.00  0.00    +0.000 HD
ENDBRANCH  35  36
ENDBRANCH  34  35
ENDBRANCH   4  34
TORSDOF 11
ENDMDL
MODEL 6
REMARK VINA RESULT:      -6.7      1.927      2.802
REMARK  Name = 
REMARK  13 active torsions:
REMARK  status: ('A' for Active; 'I' for Inactive)
REMARK    1  A    between atoms: C_1  and  N_2
REMARK    2  A    between atoms: C_3  and  C_5
REMARK    3  A    between atoms: C_7  and  C_8
REMARK    4  A    between atoms: C_8  and  S_9
REMARK    5  A    between atoms: S_9  and  C_10
REMARK    6  A    between atoms: N_13  and  C_14
REMARK    7  A    between atoms: C_14  and  C_15
REMARK    8  A    between atoms: C_15  and  O_16
REMARK    9  A    between atoms: C_17  and  C_18
REMARK   10  A    between atoms: C_20  and  C_21
REMARK   11  A    between atoms: C_24  and  O_25
REMARK   12  A    between atoms: O_25  and  C_26
REMARK   13  A    between atoms: C_29  and  C_30
REMARK                            x       y       z     vdW  Elec       q    Type
REMARK                         _______ _______ _______ _____ _____    ______ ____
ROOT
ATOM      1  C   UNL     1      -0.024   9.645  20.301  0.00  0.00    +0.000 A 
ATOM      2  N   UNL     1      -0.550   9.898  19.050  0.00  0.00    +0.000 NA
ATOM      3  C   UNL     1      -1.598  10.750  18.877  0.00  0.00    +0.000 A 
ATOM      4  N   UNL     1      -2.310  10.787  17.683  0.00  0.00    +0.000 N 
ATOM      5  C   UNL     1      -2.013  11.562  19.962  0.00  0.00    +0.000 A 
ATOM      6  C   UNL     1      -1.424  11.407  21.255  0.00  0.00    +0.000 A 
ATOM      7  C   UNL     1      -0.450  10.366  21.419  0.00  0.00    +0.000 A 
ATOM      8  H   UNL     1      -3.280  11.073  17.811  0.00  0.00    +0.000 HD
ENDROOT
BRANCH   6   9
ATOM      9  C   UNL     1      -1.789  12.303  22.404  0.00  0.00    +0.000 A 
ATOM     10  C   UNL     1      -1.032  13.421  22.798  0.00  0.00    +0.000 A 
ATOM     11  C   UNL     1      -1.415  14.214  23.891  0.00  0.00    +0.000 A 
ATOM     12  C   UNL     1      -2.616  13.979  24.555  0.00  0.00    +0.000 A 
ATOM     13  C   UNL     1      -3.389  12.891  24.179  0.00  0.00    +0.000 A 
ATOM     14  C   UNL     1      -2.948  12.042  23.159  0.00  0.00    +0.000 A 
BRANCH  12  15
ATOM     15  O   UNL     1      -2.914  14.827  25.582  0.00  0.00    +0.000 OA
ATOM     16  C   UNL     1      -3.198  16.168  25.191  0.00  0.00    +0.000 C 
ENDBRANCH  12  15
ENDBRANCH   6   9
BRANCH   5  17
ATOM     17  C   UNL     1      -3.052  12.528  19.709  0.00  0.00    +0.000 C 
ATOM     18  N   UNL     1      -3.905  13.273  19.437  0.00  0.00    +0.000 NA
ENDBRANCH   5  17
BRANCH   7  19
ATOM     19  C   UNL     1       0.123  10.084  22.696  0.00  0.00    +0.000 C 
ATOM     20  N   UNL     1       0.609   9.853  23.723  0.00  0.00    +0.000 NA
ENDBRANCH   7  19
BRANCH   1  21
ATOM     21  S   UNL     1       1.281   8.384  20.284  0.00  0.00    +0.000 S 
BRANCH  21  22
ATOM     22  C   UNL     1       2.095   8.246  18.591  0.00  0.00    +0.000 C 
BRANCH  22  25
ATOM     23  C   UNL     1       2.408   4.502  18.059  0.00  0.00    +0.000 A 
ATOM     24  C   UNL     1       1.813   5.766  18.069  0.00  0.00    +0.000 A 
ATOM     25  C   UNL     1       2.614   6.896  18.123  0.00  0.00    +0.000 A 
ATOM     26  C   UNL     1       3.928   6.716  17.676  0.00  0.00    +0.000 A 
ATOM     27  C   UNL     1       4.387   5.426  17.411  0.00  0.00    +0.000 A 
ATOM     28  N   UNL     1       3.687   4.315  17.686  0.00  0.00    +0.000 NA
BRANCH  23  31
ATOM     29  C   UNL     1       2.354   4.152  20.967  0.00  0.00    +0.000 C 
ATOM     30  N   UNL     1       1.830   3.175  20.081  0.00  0.00    +0.000 N 
ATOM     31  C   UNL     1       1.754   3.306  18.715  0.00  0.00    +0.000 C 
ATOM     32  O   UNL     1       1.220   2.400  18.084  0.00  0.00    +0.000 OA
ATOM     33  H   UNL     1       1.227   2.445  20.439  0.00  0.00    +0.000 HD
ENDBRANCH  23  31
ENDBRANCH  22  25
ENDBRANCH  21  22
ENDBRANCH   1  21
BRANCH   4  34
ATOM     34  C   UNL     1      -2.148  10.248  16.318  0.00  0.00    +0.000 C 
BRANCH  34  35
ATOM     35  C   UNL     1      -3.088  10.656  15.182  0.00  0.00    +0.000 C 
BRANCH  35  36
ATOM     36  O   UNL     1      -2.711  10.027  13.948  0.00  0.00    +0.000 OA
ATOM     37  H   UNL     1      -2.730  10.705  13.253  0.00  0.00    +0.000 HD
ENDBRANCH  35  36
ENDBRANCH  34  35
ENDBRANCH   4  34
TORSDOF 11
ENDMDL
MODEL 7
REMARK VINA RESULT:      -6.7      1.019      1.327
REMARK  Name = 
REMARK  13 active torsions:
REMARK  status: ('A' for Active; 'I' for Inactive)
REMARK    1  A    between atoms: C_1  and  N_2
REMARK    2  A    between atoms: C_3  and  C_5
REMARK    3  A    between atoms: C_7  and  C_8
REMARK    4  A    between atoms: C_8  and  S_9
REMARK    5  A    between atoms: S_9  and  C_10
REMARK    6  A    between atoms: N_13  and  C_14
REMARK    7  A    between atoms: C_14  and  C_15
REMARK    8  A    between atoms: C_15  and  O_16
REMARK    9  A    between atoms: C_17  and  C_18
REMARK   10  A    between atoms: C_20  and  C_21
REMARK   11  A    between atoms: C_24  and  O_25
REMARK   12  A    between atoms: O_25  and  C_26
REMARK   13  A    between atoms: C_29  and  C_30
REMARK                            x       y       z     vdW  Elec       q    Type
REMARK                         _______ _______ _______ _____ _____    ______ ____
ROOT
ATOM      1  C   UNL     1       0.096  10.497  18.465  0.00  0.00    +0.000 A 
ATOM      2  N   UNL     1      -0.827  10.277  17.464  0.00  0.00    +0.000 NA
ATOM      3  C   UNL     1      -2.130  10.643  17.604  0.00  0.00    +0.000 A 
ATOM      4  N   UNL     1      -3.111  10.171  16.738  0.00  0.00    +0.000 N 
ATOM      5  C   UNL     1      -2.503  11.464  18.698  0.00  0.00    +0.000 A 
ATOM      6  C   UNL     1      -1.552  11.805  19.710  0.00  0.00    +0.000 A 
ATOM      7  C   UNL     1      -0.238  11.239  19.602  0.00  0.00    +0.000 A 
ATOM      8  H   UNL     1      -4.030  10.113  17.176  0.00  0.00    +0.000 HD
ENDROOT
BRANCH   6   9
ATOM      9  C   UNL     1      -1.896  12.734  20.838  0.00  0.00    +0.000 A 
ATOM     10  C   UNL     1      -1.865  14.137  20.738  0.00  0.00    +0.000 A 
ATOM     11  C   UNL     1      -2.183  14.955  21.833  0.00  0.00    +0.000 A 
ATOM     12  C   UNL     1      -2.641  14.401  23.025  0.00  0.00    +0.000 A 
ATOM     13  C   UNL     1      -2.695  13.021  23.148  0.00  0.00    +0.000 A 
ATOM     14  C   UNL     1      -2.274  12.211  22.089  0.00  0.00    +0.000 A 
BRANCH  12  15
ATOM     15  O   UNL     1      -2.957  15.283  24.019  0.00  0.00    +0.000 OA
ATOM     16  C   UNL     1      -3.134  14.700  25.307  0.00  0.00    +0.000 C 
ENDBRANCH  12  15
ENDBRANCH   6   9
BRANCH   5  17
ATOM     17  C   UNL     1      -3.869  11.920  18.751  0.00  0.00    +0.000 C 
ATOM     18  N   UNL     1      -4.991  12.232  18.744  0.00  0.00    +0.000 NA
ENDBRANCH   5  17
BRANCH   7  19
ATOM     19  C   UNL     1       0.746  11.456  20.613  0.00  0.00    +0.000 C 
ATOM     20  N   UNL     1       1.543  11.654  21.431  0.00  0.00    +0.000 NA
ENDBRANCH   7  19
BRANCH   1  21
ATOM     21  S   UNL     1       1.734   9.811  18.090  0.00  0.00    +0.000 S 
BRANCH  21  22
ATOM     22  C   UNL     1       1.673   7.940  17.876  0.00  0.00    +0.000 C 
BRANCH  22  25
ATOM     23  C   UNL     1       5.070   6.265  17.651  0.00  0.00    +0.000 A 
ATOM     24  C   UNL     1       4.126   7.295  17.620  0.00  0.00    +0.000 A 
ATOM     25  C   UNL     1       2.896   7.111  18.231  0.00  0.00    +0.000 A 
ATOM     26  C   UNL     1       2.868   6.132  19.230  0.00  0.00    +0.000 A 
ATOM     27  C   UNL     1       3.974   5.299  19.400  0.00  0.00    +0.000 A 
ATOM     28  N   UNL     1       5.028   5.283  18.570  0.00  0.00    +0.000 NA
BRANCH  23  31
ATOM     29  C   UNL     1       7.754   7.438  17.601  0.00  0.00    +0.000 C 
ATOM     30  N   UNL     1       7.248   6.668  16.522  0.00  0.00    +0.000 N 
ATOM     31  C   UNL     1       6.032   6.028  16.509  0.00  0.00    +0.000 C 
ATOM     32  O   UNL     1       5.756   5.348  15.526  0.00  0.00    +0.000 OA
ATOM     33  H   UNL     1       7.882   6.320  15.814  0.00  0.00    +0.000 HD
ENDBRANCH  23  31
ENDBRANCH  22  25
ENDBRANCH  21  22
ENDBRANCH   1  21
BRANCH   4  34
ATOM     34  C   UNL     1      -3.151   9.450  15.451  0.00  0.00    +0.000 C 
BRANCH  34  35
ATOM     35  C   UNL     1      -3.525  10.159  14.148  0.00  0.00    +0.000 C 
BRANCH  35  36
ATOM     36  O   UNL     1      -4.798   9.709  13.661  0.00  0.00    +0.000 OA
ATOM     37  H   UNL     1      -5.457   9.880  14.353  0.00  0.00    +0.000 HD
ENDBRANCH  35  36
ENDBRANCH  34  35
ENDBRANCH   4  34
TORSDOF 11
ENDMDL
MODEL 8
REMARK VINA RESULT:      -6.7      2.155      2.902
REMARK  Name = 
REMARK  13 active torsions:
REMARK  status: ('A' for Active; 'I' for Inactive)
REMARK    1  A    between atoms: C_1  and  N_2
REMARK    2  A    between atoms: C_3  and  C_5
REMARK    3  A    between atoms: C_7  and  C_8
REMARK    4  A    between atoms: C_8  and  S_9
REMARK    5  A    between atoms: S_9  and  C_10
REMARK    6  A    between atoms: N_13  and  C_14
REMARK    7  A    between atoms: C_14  and  C_15
REMARK    8  A    between atoms: C_15  and  O_16
REMARK    9  A    between atoms: C_17  and  C_18
REMARK   10  A    between atoms: C_20  and  C_21
REMARK   11  A    between atoms: C_24  and  O_25
REMARK   12  A    between atoms: O_25  and  C_26
REMARK   13  A    between atoms: C_29  and  C_30
REMARK                            x       y       z     vdW  Elec       q    Type
REMARK                         _______ _______ _______ _____ _____    ______ ____
ROOT
ATOM      1  C   UNL     1       0.086   9.435  20.299  0.00  0.00    +0.000 A 
ATOM      2  N   UNL     1      -0.425   9.622  19.031  0.00  0.00    +0.000 NA
ATOM      3  C   UNL     1      -1.459  10.477  18.799  0.00  0.00    +0.000 A 
ATOM      4  N   UNL     1      -2.161  10.454  17.599  0.00  0.00    +0.000 N 
ATOM      5  C   UNL     1      -1.871  11.358  19.831  0.00  0.00    +0.000 A 
ATOM      6  C   UNL     1      -1.295  11.270  21.136  0.00  0.00    +0.000 A 
ATOM      7  C   UNL     1      -0.338  10.227  21.370  0.00  0.00    +0.000 A 
ATOM      8  H   UNL     1      -3.128  10.760  17.701  0.00  0.00    +0.000 HD
ENDROOT
BRANCH   6   9
ATOM      9  C   UNL     1      -1.656  12.237  22.227  0.00  0.00    +0.000 A 
ATOM     10  C   UNL     1      -2.795  12.111  23.043  0.00  0.00    +0.000 A 
ATOM     11  C   UNL     1      -3.088  13.056  24.039  0.00  0.00    +0.000 A 
ATOM     12  C   UNL     1      -2.201  14.092  24.320  0.00  0.00    +0.000 A 
ATOM     13  C   UNL     1      -1.063  14.232  23.540  0.00  0.00    +0.000 A 
ATOM     14  C   UNL     1      -0.833  13.350  22.481  0.00  0.00    +0.000 A 
BRANCH  12  15
ATOM     15  O   UNL     1      -2.562  14.937  25.329  0.00  0.00    +0.000 OA
ATOM     16  C   UNL     1      -3.660  15.795  25.031  0.00  0.00    +0.000 C 
ENDBRANCH  12  15
ENDBRANCH   6   9
BRANCH   5  17
ATOM     17  C   UNL     1      -2.894  12.321  19.512  0.00  0.00    +0.000 C 
ATOM     18  N   UNL     1      -3.754  13.084  19.324  0.00  0.00    +0.000 NA
ENDBRANCH   5  17
BRANCH   7  19
ATOM     19  C   UNL     1       0.221  10.012  22.665  0.00  0.00    +0.000 C 
ATOM     20  N   UNL     1       0.657   9.849  23.728  0.00  0.00    +0.000 NA
ENDBRANCH   7  19
BRANCH   1  21
ATOM     21  S   UNL     1       1.374   8.158  20.368  0.00  0.00    +0.000 S 
BRANCH  21  22
ATOM     22  C   UNL     1       2.149   7.858  18.677  0.00  0.00    +0.000 C 
BRANCH  22  25
ATOM     23  C   UNL     1       1.957   4.090  18.268  0.00  0.00    +0.000 A 
ATOM     24  C   UNL     1       1.536   5.422  18.237  0.00  0.00    +0.000 A 
ATOM     25  C   UNL     1       2.481   6.436  18.253  0.00  0.00    +0.000 A 
ATOM     26  C   UNL     1       3.756   6.068  17.810  0.00  0.00    +0.000 A 
ATOM     27  C   UNL     1       4.038   4.721  17.586  0.00  0.00    +0.000 A 
ATOM     28  N   UNL     1       3.198   3.722  17.899  0.00  0.00    +0.000 NA
BRANCH  23  31
ATOM     29  C   UNL     1       2.152   3.615  21.152  0.00  0.00    +0.000 C 
ATOM     30  N   UNL     1       1.351   2.804  20.307  0.00  0.00    +0.000 N 
ATOM     31  C   UNL     1       1.154   3.014  18.964  0.00  0.00    +0.000 C 
ATOM     32  O   UNL     1       0.385   2.262  18.375  0.00  0.00    +0.000 OA
ATOM     33  H   UNL     1       0.658   2.189  20.714  0.00  0.00    +0.000 HD
ENDBRANCH  23  31
ENDBRANCH  22  25
ENDBRANCH  21  22
ENDBRANCH   1  21
BRANCH   4  34
ATOM     34  C   UNL     1      -1.996   9.834  16.269  0.00  0.00    +0.000 C 
BRANCH  34  35
ATOM     35  C   UNL     1      -2.889  10.223  15.090  0.00  0.00    +0.000 C 
BRANCH  35  36
ATOM     36  O   UNL     1      -3.376  11.566  15.230  0.00  0.00    +0.000 OA
ATOM     37  H   UNL     1      -3.570  11.713  16.170  0.00  0.00    +0.000 HD
ENDBRANCH  35  36
ENDBRANCH  34  35
ENDBRANCH   4  34
TORSDOF 11
ENDMDL
MODEL 9
REMARK VINA RESULT:      -6.7      1.459      1.743
REMARK  Name = 
REMARK  13 active torsions:
REMARK  status: ('A' for Active; 'I' for Inactive)
REMARK    1  A    between atoms: C_1  and  N_2
REMARK    2  A    between atoms: C_3  and  C_5
REMARK    3  A    between atoms: C_7  and  C_8
REMARK    4  A    between atoms: C_8  and  S_9
REMARK    5  A    between atoms: S_9  and  C_10
REMARK    6  A    between atoms: N_13  and  C_14
REMARK    7  A    between atoms: C_14  and  C_15
REMARK    8  A    between atoms: C_15  and  O_16
REMARK    9  A    between atoms: C_17  and  C_18
REMARK   10  A    between atoms: C_20  and  C_21
REMARK   11  A    between atoms: C_24  and  O_25
REMARK   12  A    between atoms: O_25  and  C_26
REMARK   13  A    between atoms: C_29  and  C_30
REMARK                            x       y       z     vdW  Elec       q    Type
REMARK                         _______ _______ _______ _____ _____    ______ ____
ROOT
ATOM      1  C   UNL     1      -0.514  10.901  18.960  0.00  0.00    +0.000 A 
ATOM      2  N   UNL     1      -1.165  10.616  17.777  0.00  0.00    +0.000 NA
ATOM      3  C   UNL     1      -2.487  10.895  17.607  0.00  0.00    +0.000 A 
ATOM      4  N   UNL     1      -3.209  10.357  16.548  0.00  0.00    +0.000 N 
ATOM      5  C   UNL     1      -3.154  11.693  18.572  0.00  0.00    +0.000 A 
ATOM      6  C   UNL     1      -2.485  12.099  19.768  0.00  0.00    +0.000 A 
ATOM      7  C   UNL     1      -1.148  11.621  19.975  0.00  0.00    +0.000 A 
ATOM      8  H   UNL     1      -4.198  10.239  16.764  0.00  0.00    +0.000 HD
ENDROOT
BRANCH   6   9
ATOM      9  C   UNL     1      -3.139  13.006  20.771  0.00  0.00    +0.000 A 
ATOM     10  C   UNL     1      -2.986  14.404  20.782  0.00  0.00    +0.000 A 
ATOM     11  C   UNL     1      -3.611  15.199  21.755  0.00  0.00    +0.000 A 
ATOM     12  C   UNL     1      -4.488  14.636  22.678  0.00  0.00    +0.000 A 
ATOM     13  C   UNL     1      -4.668  13.262  22.683  0.00  0.00    +0.000 A 
ATOM     14  C   UNL     1      -3.959  12.464  21.779  0.00  0.00    +0.000 A 
BRANCH  12  15
ATOM     15  O   UNL     1      -5.071  15.500  23.561  0.00  0.00    +0.000 OA
ATOM     16  C   UNL     1      -6.054  16.363  22.996  0.00  0.00    +0.000 C 
ENDBRANCH  12  15
ENDBRANCH   6   9
BRANCH   5  17
ATOM     17  C   UNL     1      -4.522  12.056  18.302  0.00  0.00    +0.000 C 
ATOM     18  N   UNL     1      -5.638  12.357  18.160  0.00  0.00    +0.000 NA
ENDBRANCH   5  17
BRANCH   7  19
ATOM     19  C   UNL     1      -0.440  11.906  21.181  0.00  0.00    +0.000 C 
ATOM     20  N   UNL     1       0.153  12.146  22.149  0.00  0.00    +0.000 NA
ENDBRANCH   7  19
BRANCH   1  21
ATOM     21  S   UNL     1       1.207  10.324  18.983  0.00  0.00    +0.000 S 
BRANCH  21  22
ATOM     22  C   UNL     1       1.461   8.843  17.847  0.00  0.00    +0.000 C 
BRANCH  22  25
ATOM     23  C   UNL     1       4.528   6.626  17.577  0.00  0.00    +0.000 A 
ATOM     24  C   UNL     1       3.769   7.798  17.558  0.00  0.00    +0.000 A 
ATOM     25  C   UNL     1       2.534   7.821  18.186  0.00  0.00    +0.000 A 
ATOM     26  C   UNL     1       2.358   6.859  19.188  0.00  0.00    +0.000 A 
ATOM     27  C   UNL     1       3.313   5.854  19.343  0.00  0.00    +0.000 A 
ATOM     28  N   UNL     1       4.338   5.664  18.498  0.00  0.00    +0.000 NA
BRANCH  23  31
ATOM     29  C   UNL     1       7.396   7.228  17.546  0.00  0.00    +0.000 C 
ATOM     30  N   UNL     1       6.743   6.611  16.446  0.00  0.00    +0.000 N 
ATOM     31  C   UNL     1       5.422   6.234  16.422  0.00  0.00    +0.000 C 
ATOM     32  O   UNL     1       5.012   5.656  15.420  0.00  0.00    +0.000 OA
ATOM     33  H   UNL     1       7.293   6.164  15.724  0.00  0.00    +0.000 HD
ENDBRANCH  23  31
ENDBRANCH  22  25
ENDBRANCH  21  22
ENDBRANCH   1  21
BRANCH   4  34
ATOM     34  C   UNL     1      -2.905   9.631  15.299  0.00  0.00    +0.000 C 
BRANCH  34  35
ATOM     35  C   UNL     1      -3.399  10.135  13.942  0.00  0.00    +0.000 C 
BRANCH  35  36
ATOM     36  O   UNL     1      -4.749   9.716  13.693  0.00  0.00    +0.000 OA
ATOM     37  H   UNL     1      -4.751   8.747  13.632  0.00  0.00    +0.000 HD
ENDBRANCH  35  36
ENDBRANCH  34  35
ENDBRANCH   4  34
TORSDOF 11
ENDMDL
