MODEL 1
REMARK VINA RESULT:      -7.7      0.000      0.000
REMARK  Name = 
REMARK  3 active torsions:
REMARK  status: ('A' for Active; 'I' for Inactive)
REMARK    1  A    between atoms: C_4  and  C_5
REMARK    2  A    between atoms: C_5  and  N_6
REMARK    3  A    between atoms: C_5  and  C_13
REMARK                            x       y       z     vdW  Elec       q    Type
REMARK                         _______ _______ _______ _____ _____    ______ ____
ROOT
ATOM      1  C   UNL     1       3.206   6.370  18.849  0.00  0.00    +0.000 C 
ENDROOT
BRANCH   1   2
ATOM      2  N   UNL     1       3.744   6.213  17.512  0.00  0.00    +0.000 NA
ATOM      3  C   UNL     1       4.980   6.007  17.176  0.00  0.00    +0.000 C 
ATOM      4  C   UNL     1       6.150   6.022  18.145  0.00  0.00    +0.000 C 
ATOM      5  C   UNL     1       6.979   4.749  17.987  0.00  0.00    +0.000 C 
ATOM      6  C   UNL     1       7.395   4.595  16.517  0.00  0.00    +0.000 C 
ATOM      7  C   UNL     1       6.153   4.508  15.619  0.00  0.00    +0.000 C 
ATOM      8  N   UNL     1       5.255   5.630  15.831  0.00  0.00    +0.000 N 
ATOM      9  H   UNL     1       4.453   5.671  15.181  0.00  0.00    +0.000 HD
ENDBRANCH   1   2
BRANCH   1  13
ATOM     10  C   UNL     1       0.833   2.855  19.834  0.00  0.00    +0.000 A 
ATOM     11  C   UNL     1       1.389   3.623  20.854  0.00  0.00    +0.000 A 
ATOM     12  C   UNL     1       2.141   4.754  20.546  0.00  0.00    +0.000 A 
ATOM     13  C   UNL     1       2.352   5.148  19.199  0.00  0.00    +0.000 A 
ATOM     14  C   UNL     1       1.775   4.365  18.181  0.00  0.00    +0.000 A 
ATOM     15  C   UNL     1       1.025   3.225  18.500  0.00  0.00    +0.000 A 
ENDBRANCH   1  13
BRANCH   1  16
ATOM     16  C   UNL     1       2.355   7.608  18.868  0.00  0.00    +0.000 A 
ATOM     17  C   UNL     1       2.066   8.416  17.775  0.00  0.00    +0.000 A 
ATOM     18  C   UNL     1       1.253   9.510  18.100  0.00  0.00    +0.000 A 
ATOM     19  C   UNL     1       0.910   9.567  19.444  0.00  0.00    +0.000 A 
ATOM     20  S   UNL     1       1.603   8.251  20.230  0.00  0.00    +0.000 S 
ENDBRANCH   1  16
TORSDOF 3
ENDMDL
MODEL 2
REMARK VINA RESULT:      -7.7      0.252      1.131
REMARK  Name = 
REMARK  3 active torsions:
REMARK  status: ('A' for Active; 'I' for Inactive)
REMARK    1  A    between atoms: C_4  and  C_5
REMARK    2  A    between atoms: C_5  and  N_6
REMARK    3  A    between atoms: C_5  and  C_13
REMARK                            x       y       z     vdW  Elec       q    Type
REMARK                         _______ _______ _______ _____ _____    ______ ____
ROOT
ATOM      1  C   UNL     1       3.166   6.555  18.825  0.00  0.00    +0.000 C 
ENDROOT
BRANCH   1   2
ATOM      2  N   UNL     1       3.717   6.495  17.486  0.00  0.00    +0.000 NA
ATOM      3  C   UNL     1       4.933   6.198  17.143  0.00  0.00    +0.000 C 
ATOM      4  C   UNL     1       6.073   5.974  18.122  0.00  0.00    +0.000 C 
ATOM      5  C   UNL     1       6.767   4.646  17.826  0.00  0.00    +0.000 C 
ATOM      6  C   UNL     1       7.201   4.618  16.354  0.00  0.00    +0.000 C 
ATOM      7  C   UNL     1       5.979   4.770  15.437  0.00  0.00    +0.000 C 
ATOM      8  N   UNL     1       5.200   5.951  15.767  0.00  0.00    +0.000 N 
ATOM      9  H   UNL     1       4.423   6.152  15.117  0.00  0.00    +0.000 HD
ENDBRANCH   1   2
BRANCH   1  13
ATOM     10  C   UNL     1       0.827   2.967  19.606  0.00  0.00    +0.000 A 
ATOM     11  C   UNL     1       1.211   3.272  18.304  0.00  0.00    +0.000 A 
ATOM     12  C   UNL     1       1.968   4.414  18.048  0.00  0.00    +0.000 A 
ATOM     13  C   UNL     1       2.363   5.280  19.100  0.00  0.00    +0.000 A 
ATOM     14  C   UNL     1       1.973   4.951  20.412  0.00  0.00    +0.000 A 
ATOM     15  C   UNL     1       1.207   3.804  20.659  0.00  0.00    +0.000 A 
ENDBRANCH   1  13
BRANCH   1  16
ATOM     16  C   UNL     1       2.263   7.752  18.907  0.00  0.00    +0.000 A 
ATOM     17  C   UNL     1       1.862   8.547  17.839  0.00  0.00    +0.000 A 
ATOM     18  C   UNL     1       1.025   9.602  18.221  0.00  0.00    +0.000 A 
ATOM     19  C   UNL     1       0.773   9.644  19.586  0.00  0.00    +0.000 A 
ATOM     20  S   UNL     1       1.578   8.361  20.318  0.00  0.00    +0.000 S 
ENDBRANCH   1  16
TORSDOF 3
ENDMDL
MODEL 3
REMARK VINA RESULT:      -7.5      0.771      1.005
REMARK  Name = 
REMARK  3 active torsions:
REMARK  status: ('A' for Active; 'I' for Inactive)
REMARK    1  A    between atoms: C_4  and  C_5
REMARK    2  A    between atoms: C_5  and  N_6
REMARK    3  A    between atoms: C_5  and  C_13
REMARK                            x       y       z     vdW  Elec       q    Type
REMARK                         _______ _______ _______ _____ _____    ______ ____
ROOT
ATOM      1  C   UNL     1       3.118   6.553  19.017  0.00  0.00    +0.000 C 
ENDROOT
BRANCH   1   2
ATOM      2  N   UNL     1       3.660   6.576  17.673  0.00  0.00    +0.000 NA
ATOM      3  C   UNL     1       4.862   6.258  17.300  0.00  0.00    +0.000 C 
ATOM      4  C   UNL     1       5.996   5.917  18.250  0.00  0.00    +0.000 C 
ATOM      5  C   UNL     1       6.636   4.589  17.847  0.00  0.00    +0.000 C 
ATOM      6  C   UNL     1       7.062   4.658  16.374  0.00  0.00    +0.000 C 
ATOM      7  C   UNL     1       5.842   4.927  15.481  0.00  0.00    +0.000 C 
ATOM      8  N   UNL     1       5.112   6.108  15.906  0.00  0.00    +0.000 N 
ATOM      9  H   UNL     1       4.340   6.388  15.280  0.00  0.00    +0.000 HD
ENDBRANCH   1   2
BRANCH   1  13
ATOM     10  C   UNL     1       0.827   2.891  19.560  0.00  0.00    +0.000 A 
ATOM     11  C   UNL     1       1.216   3.635  20.670  0.00  0.00    +0.000 A 
ATOM     12  C   UNL     1       1.940   4.813  20.503  0.00  0.00    +0.000 A 
ATOM     13  C   UNL     1       2.292   5.278  19.210  0.00  0.00    +0.000 A 
ATOM     14  C   UNL     1       1.883   4.518  18.098  0.00  0.00    +0.000 A 
ATOM     15  C   UNL     1       1.159   3.331  18.276  0.00  0.00    +0.000 A 
ENDBRANCH   1  13
BRANCH   1  16
ATOM     16  C   UNL     1       2.239   7.759  19.188  0.00  0.00    +0.000 A 
ATOM     17  C   UNL     1       1.613   8.153  20.365  0.00  0.00    +0.000 A 
ATOM     18  C   UNL     1       0.846   9.316  20.218  0.00  0.00    +0.000 A 
ATOM     19  C   UNL     1       0.862   9.832  18.930  0.00  0.00    +0.000 A 
ATOM     20  S   UNL     1       1.839   8.853  17.972  0.00  0.00    +0.000 S 
ENDBRANCH   1  16
TORSDOF 3
ENDMDL
MODEL 4
REMARK VINA RESULT:      -7.5      1.627      4.086
REMARK  Name = 
REMARK  3 active torsions:
REMARK  status: ('A' for Active; 'I' for Inactive)
REMARK    1  A    between atoms: C_4  and  C_5
REMARK    2  A    between atoms: C_5  and  N_6
REMARK    3  A    between atoms: C_5  and  C_13
REMARK                            x       y       z     vdW  Elec       q    Type
REMARK                         _______ _______ _______ _____ _____    ______ ____
ROOT
ATOM      1  C   UNL     1       3.017   5.737  18.746  0.00  0.00    +0.000 C 
ENDROOT
BRANCH   1   2
ATOM      2  N   UNL     1       4.334   5.718  19.351  0.00  0.00    +0.000 NA
ATOM      3  C   UNL     1       5.386   5.082  18.937  0.00  0.00    +0.000 C 
ATOM      4  C   UNL     1       5.399   4.104  17.775  0.00  0.00    +0.000 C 
ATOM      5  C   UNL     1       6.508   4.473  16.792  0.00  0.00    +0.000 C 
ATOM      6  C   UNL     1       7.844   4.558  17.543  0.00  0.00    +0.000 C 
ATOM      7  C   UNL     1       7.766   5.624  18.646  0.00  0.00    +0.000 C 
ATOM      8  N   UNL     1       6.639   5.400  19.534  0.00  0.00    +0.000 N 
ATOM      9  H   UNL     1       6.599   6.032  20.350  0.00  0.00    +0.000 HD
ENDBRANCH   1   2
BRANCH   1  13
ATOM     10  C   UNL     1       1.068   9.556  19.501  0.00  0.00    +0.000 A 
ATOM     11  C   UNL     1       1.229   8.643  20.540  0.00  0.00    +0.000 A 
ATOM     12  C   UNL     1       1.860   7.424  20.307  0.00  0.00    +0.000 A 
ATOM     13  C   UNL     1       2.352   7.089  19.020  0.00  0.00    +0.000 A 
ATOM     14  C   UNL     1       2.190   8.027  17.983  0.00  0.00    +0.000 A 
ATOM     15  C   UNL     1       1.548   9.249  18.225  0.00  0.00    +0.000 A 
ENDBRANCH   1  13
BRANCH   1  16
ATOM     16  C   UNL     1       2.203   4.635  19.362  0.00  0.00    +0.000 A 
ATOM     17  C   UNL     1       1.297   3.819  18.694  0.00  0.00    +0.000 A 
ATOM     18  C   UNL     1       0.676   2.885  19.532  0.00  0.00    +0.000 A 
ATOM     19  C   UNL     1       1.085   2.969  20.856  0.00  0.00    +0.000 A 
ATOM     20  S   UNL     1       2.229   4.195  20.986  0.00  0.00    +0.000 S 
ENDBRANCH   1  16
TORSDOF 3
ENDMDL
MODEL 5
REMARK VINA RESULT:      -7.4      1.996      5.120
REMARK  Name = 
REMARK  3 active torsions:
REMARK  status: ('A' for Active; 'I' for Inactive)
REMARK    1  A    between atoms: C_4  and  C_5
REMARK    2  A    between atoms: C_5  and  N_6
REMARK    3  A    between atoms: C_5  and  C_13
REMARK                            x       y       z     vdW  Elec       q    Type
REMARK                         _______ _______ _______ _____ _____    ______ ____
ROOT
ATOM      1  C   UNL     1       2.637   6.149  18.318  0.00  0.00    +0.000 C 
ENDROOT
BRANCH   1   2
ATOM      2  N   UNL     1       2.327   7.032  19.425  0.00  0.00    +0.000 NA
ATOM      3  C   UNL     1       1.905   8.257  19.366  0.00  0.00    +0.000 C 
ATOM      4  C   UNL     1       1.775   9.062  18.084  0.00  0.00    +0.000 C 
ATOM      5  C   UNL     1       0.376   9.668  17.984  0.00  0.00    +0.000 C 
ATOM      6  C   UNL     1       0.083  10.478  19.255  0.00  0.00    +0.000 C 
ATOM      7  C   UNL     1       0.158   9.571  20.492  0.00  0.00    +0.000 C 
ATOM      8  N   UNL     1       1.421   8.858  20.563  0.00  0.00    +0.000 N 
ATOM      9  H   UNL     1       1.561   8.310  21.427  0.00  0.00    +0.000 HD
ENDBRANCH   1   2
BRANCH   1  13
ATOM     10  C   UNL     1       1.225   2.136  19.245  0.00  0.00    +0.000 A 
ATOM     11  C   UNL     1       1.855   2.385  18.029  0.00  0.00    +0.000 A 
ATOM     12  C   UNL     1       2.318   3.664  17.730  0.00  0.00    +0.000 A 
ATOM     13  C   UNL     1       2.162   4.732  18.651  0.00  0.00    +0.000 A 
ATOM     14  C   UNL     1       1.532   4.461  19.880  0.00  0.00    +0.000 A 
ATOM     15  C   UNL     1       1.064   3.172  20.170  0.00  0.00    +0.000 A 
ENDBRANCH   1  13
BRANCH   1  16
ATOM     16  C   UNL     1       4.125   6.154  18.117  0.00  0.00    +0.000 A 
ATOM     17  C   UNL     1       4.811   6.817  17.106  0.00  0.00    +0.000 A 
ATOM     18  C   UNL     1       6.197   6.630  17.166  0.00  0.00    +0.000 A 
ATOM     19  C   UNL     1       6.603   5.817  18.216  0.00  0.00    +0.000 A 
ATOM     20  S   UNL     1       5.241   5.340  19.080  0.00  0.00    +0.000 S 
ENDBRANCH   1  16
TORSDOF 3
ENDMDL
MODEL 6
REMARK VINA RESULT:      -7.4      3.042      6.292
REMARK  Name = 
REMARK  3 active torsions:
REMARK  status: ('A' for Active; 'I' for Inactive)
REMARK    1  A    between atoms: C_4  and  C_5
REMARK    2  A    between atoms: C_5  and  N_6
REMARK    3  A    between atoms: C_5  and  C_13
REMARK                            x       y       z     vdW  Elec       q    Type
REMARK                         _______ _______ _______ _____ _____    ______ ____
ROOT
ATOM      1  C   UNL     1       5.333   5.003  15.969  0.00  0.00    +0.000 C 
ENDROOT
BRANCH   1   2
ATOM      2  N   UNL     1       4.998   3.776  16.663  0.00  0.00    +0.000 NA
ATOM      3  C   UNL     1       4.028   3.581  17.503  0.00  0.00    +0.000 C 
ATOM      4  C   UNL     1       3.112   4.673  18.028  0.00  0.00    +0.000 C 
ATOM      5  C   UNL     1       1.651   4.267  17.842  0.00  0.00    +0.000 C 
ATOM      6  C   UNL     1       1.418   2.897  18.495  0.00  0.00    +0.000 C 
ATOM      7  C   UNL     1       2.327   1.840  17.850  0.00  0.00    +0.000 C 
ATOM      8  N   UNL     1       3.723   2.241  17.874  0.00  0.00    +0.000 N 
ATOM      9  H   UNL     1       4.385   1.522  17.542  0.00  0.00    +0.000 HD
ENDBRANCH   1   2
BRANCH   1  13
ATOM     10  C   UNL     1       7.165   4.085  12.128  0.00  0.00    +0.000 A 
ATOM     11  C   UNL     1       7.787   4.978  12.995  0.00  0.00    +0.000 A 
ATOM     12  C   UNL     1       7.211   5.269  14.230  0.00  0.00    +0.000 A 
ATOM     13  C   UNL     1       5.991   4.664  14.628  0.00  0.00    +0.000 A 
ATOM     14  C   UNL     1       5.381   3.756  13.743  0.00  0.00    +0.000 A 
ATOM     15  C   UNL     1       5.964   3.475  12.500  0.00  0.00    +0.000 A 
ENDBRANCH   1  13
BRANCH   1  16
ATOM     16  C   UNL     1       6.292   5.779  16.825  0.00  0.00    +0.000 A 
ATOM     17  C   UNL     1       6.433   7.162  16.845  0.00  0.00    +0.000 A 
ATOM     18  C   UNL     1       7.417   7.602  17.738  0.00  0.00    +0.000 A 
ATOM     19  C   UNL     1       8.054   6.571  18.415  0.00  0.00    +0.000 A 
ATOM     20  S   UNL     1       7.386   5.110  17.914  0.00  0.00    +0.000 S 
ENDBRANCH   1  16
TORSDOF 3
ENDMDL
MODEL 7
REMARK VINA RESULT:      -7.4      1.623      4.224
REMARK  Name = 
REMARK  3 active torsions:
REMARK  status: ('A' for Active; 'I' for Inactive)
REMARK    1  A    between atoms: C_4  and  C_5
REMARK    2  A    between atoms: C_5  and  N_6
REMARK    3  A    between atoms: C_5  and  C_13
REMARK                            x       y       z     vdW  Elec       q    Type
REMARK                         _______ _______ _______ _____ _____    ______ ____
ROOT
ATOM      1  C   UNL     1       3.015   5.730  18.694  0.00  0.00    +0.000 C 
ENDROOT
BRANCH   1   2
ATOM      2  N   UNL     1       4.323   5.739  19.318  0.00  0.00    +0.000 NA
ATOM      3  C   UNL     1       5.383   5.092  18.943  0.00  0.00    +0.000 C 
ATOM      4  C   UNL     1       5.416   4.072  17.818  0.00  0.00    +0.000 C 
ATOM      5  C   UNL     1       6.538   4.407  16.838  0.00  0.00    +0.000 C 
ATOM      6  C   UNL     1       7.862   4.526  17.604  0.00  0.00    +0.000 C 
ATOM      7  C   UNL     1       7.765   5.632  18.665  0.00  0.00    +0.000 C 
ATOM      8  N   UNL     1       6.626   5.437  19.545  0.00  0.00    +0.000 N 
ATOM      9  H   UNL     1       6.573   6.099  20.336  0.00  0.00    +0.000 HD
ENDBRANCH   1   2
BRANCH   1  13
ATOM     10  C   UNL     1       1.092   9.560  19.463  0.00  0.00    +0.000 A 
ATOM     11  C   UNL     1       1.510   9.242  18.174  0.00  0.00    +0.000 A 
ATOM     12  C   UNL     1       2.117   8.014  17.919  0.00  0.00    +0.000 A 
ATOM     13  C   UNL     1       2.317   7.068  18.957  0.00  0.00    +0.000 A 
ATOM     14  C   UNL     1       1.881   7.402  20.253  0.00  0.00    +0.000 A 
ATOM     15  C   UNL     1       1.277   8.642  20.501  0.00  0.00    +0.000 A 
ENDBRANCH   1  13
BRANCH   1  16
ATOM     16  C   UNL     1       2.215   4.612  19.298  0.00  0.00    +0.000 A 
ATOM     17  C   UNL     1       1.329   3.782  18.619  0.00  0.00    +0.000 A 
ATOM     18  C   UNL     1       0.718   2.833  19.449  0.00  0.00    +0.000 A 
ATOM     19  C   UNL     1       1.115   2.919  20.776  0.00  0.00    +0.000 A 
ATOM     20  S   UNL     1       2.236   4.164  20.921  0.00  0.00    +0.000 S 
ENDBRANCH   1  16
TORSDOF 3
ENDMDL
MODEL 8
REMARK VINA RESULT:      -7.4      1.978      5.013
REMARK  Name = 
REMARK  3 active torsions:
REMARK  status: ('A' for Active; 'I' for Inactive)
REMARK    1  A    between atoms: C_4  and  C_5
REMARK    2  A    between atoms: C_5  and  N_6
REMARK    3  A    between atoms: C_5  and  C_13
REMARK                            x       y       z     vdW  Elec       q    Type
REMARK                         _______ _______ _______ _____ _____    ______ ____
ROOT
ATOM      1  C   UNL     1       2.691   6.111  18.217  0.00  0.00    +0.000 C 
ENDROOT
BRANCH   1   2
ATOM      2  N   UNL     1       2.374   6.945  19.359  0.00  0.00    +0.000 NA
ATOM      3  C   UNL     1       1.961   8.176  19.350  0.00  0.00    +0.000 C 
ATOM      4  C   UNL     1       1.853   9.038  18.105  0.00  0.00    +0.000 C 
ATOM      5  C   UNL     1       0.461   9.660  18.016  0.00  0.00    +0.000 C 
ATOM      6  C   UNL     1       0.157  10.413  19.318  0.00  0.00    +0.000 C 
ATOM      7  C   UNL     1       0.210   9.450  20.513  0.00  0.00    +0.000 C 
ATOM      8  N   UNL     1       1.467   8.725  20.567  0.00  0.00    +0.000 N 
ATOM      9  H   UNL     1       1.591   8.137  21.407  0.00  0.00    +0.000 HD
ENDBRANCH   1   2
BRANCH   1  13
ATOM     10  C   UNL     1       1.344   2.043  18.986  0.00  0.00    +0.000 A 
ATOM     11  C   UNL     1       1.002   3.064  19.868  0.00  0.00    +0.000 A 
ATOM     12  C   UNL     1       1.421   4.369  19.623  0.00  0.00    +0.000 A 
ATOM     13  C   UNL     1       2.196   4.685  18.477  0.00  0.00    +0.000 A 
ATOM     14  C   UNL     1       2.526   3.643  17.591  0.00  0.00    +0.000 A 
ATOM     15  C   UNL     1       2.104   2.331  17.849  0.00  0.00    +0.000 A 
ENDBRANCH   1  13
BRANCH   1  16
ATOM     16  C   UNL     1       4.182   6.108  18.039  0.00  0.00    +0.000 A 
ATOM     17  C   UNL     1       4.880   6.695  16.990  0.00  0.00    +0.000 A 
ATOM     18  C   UNL     1       6.267   6.521  17.085  0.00  0.00    +0.000 A 
ATOM     19  C   UNL     1       6.659   5.793  18.201  0.00  0.00    +0.000 A 
ATOM     20  S   UNL     1       5.286   5.377  19.079  0.00  0.00    +0.000 S 
ENDBRANCH   1  16
TORSDOF 3
ENDMDL
MODEL 9
REMARK VINA RESULT:      -7.3      3.036      6.317
REMARK  Name = 
REMARK  3 active torsions:
REMARK  status: ('A' for Active; 'I' for Inactive)
REMARK    1  A    between atoms: C_4  and  C_5
REMARK    2  A    between atoms: C_5  and  N_6
REMARK    3  A    between atoms: C_5  and  C_13
REMARK                            x       y       z     vdW  Elec       q    Type
REMARK                         _______ _______ _______ _____ _____    ______ ____
ROOT
ATOM      1  C   UNL     1       5.310   5.024  15.996  0.00  0.00    +0.000 C 
ENDROOT
BRANCH   1   2
ATOM      2  N   UNL     1       4.986   3.789  16.682  0.00  0.00    +0.000 NA
ATOM      3  C   UNL     1       4.020   3.580  17.522  0.00  0.00    +0.000 C 
ATOM      4  C   UNL     1       3.096   4.660  18.057  0.00  0.00    +0.000 C 
ATOM      5  C   UNL     1       1.638   4.243  17.872  0.00  0.00    +0.000 C 
ATOM      6  C   UNL     1       1.418   2.867  18.514  0.00  0.00    +0.000 C 
ATOM      7  C   UNL     1       2.334   1.823  17.860  0.00  0.00    +0.000 C 
ATOM      8  N   UNL     1       3.727   2.234  17.884  0.00  0.00    +0.000 N 
ATOM      9  H   UNL     1       4.394   1.523  17.545  0.00  0.00    +0.000 HD
ENDBRANCH   1   2
BRANCH   1  13
ATOM     10  C   UNL     1       7.155   4.057  12.174  0.00  0.00    +0.000 A 
ATOM     11  C   UNL     1       5.935   3.482  12.518  0.00  0.00    +0.000 A 
ATOM     12  C   UNL     1       5.335   3.795  13.736  0.00  0.00    +0.000 A 
ATOM     13  C   UNL     1       5.945   4.701  14.641  0.00  0.00    +0.000 A 
ATOM     14  C   UNL     1       7.174   5.280  14.272  0.00  0.00    +0.000 A 
ATOM     15  C   UNL     1       7.773   4.955  13.048  0.00  0.00    +0.000 A 
ENDBRANCH   1  13
BRANCH   1  16
ATOM     16  C   UNL     1       6.283   5.790  16.845  0.00  0.00    +0.000 A 
ATOM     17  C   UNL     1       6.445   7.171  16.857  0.00  0.00    +0.000 A 
ATOM     18  C   UNL     1       7.439   7.601  17.745  0.00  0.00    +0.000 A 
ATOM     19  C   UNL     1       8.063   6.564  18.424  0.00  0.00    +0.000 A 
ATOM     20  S   UNL     1       7.372   5.111  17.934  0.00  0.00    +0.000 S 
ENDBRANCH   1  16
TORSDOF 3
ENDMDL
