MODEL 1
REMARK VINA RESULT:      -9.0      0.000      0.000
REMARK  Name = 
REMARK  9 active torsions:
REMARK  status: ('A' for Active; 'I' for Inactive)
REMARK    1  A    between atoms: C_1  and  C_2
REMARK    2  A    between atoms: C_6  and  C_7
REMARK    3  A    between atoms: C_8  and  N_9
REMARK    4  A    between atoms: C_10  and  C_12
REMARK    5  A    between atoms: C_12  and  S_13
REMARK    6  A    between atoms: S_13  and  C_14
REMARK    7  A    between atoms: C_16  and  C_17
REMARK    8  A    between atoms: C_17  and  O_18
REMARK    9  A    between atoms: O_18  and  C_19
REMARK                            x       y       z     vdW  Elec       q    Type
REMARK                         _______ _______ _______ _____ _____    ______ ____
ROOT
ATOM      1  C   UNL     1       2.930   5.728  18.458  0.00  0.00    +0.000 A 
ATOM      2  N   UNL     1       3.830   5.931  17.473  0.00  0.00    +0.000 NA
ATOM      3  C   UNL     1       4.210   4.857  16.761  0.00  0.00    +0.000 A 
ATOM      4  N   UNL     1       3.743   3.617  16.969  0.00  0.00    +0.000 NA
ATOM      5  C   UNL     1       2.835   3.435  17.933  0.00  0.00    +0.000 A 
ATOM      6  C   UNL     1       2.318   2.156  18.110  0.00  0.00    +0.000 A 
ATOM      7  C   UNL     1       1.339   1.877  19.062  0.00  0.00    +0.000 A 
ATOM      8  C   UNL     1       0.858   2.899  19.867  0.00  0.00    +0.000 A 
ATOM      9  C   UNL     1       1.358   4.189  19.709  0.00  0.00    +0.000 A 
ATOM     10  C   UNL     1       2.357   4.477  18.740  0.00  0.00    +0.000 A 
ENDROOT
BRANCH   1  11
ATOM     11  S   UNL     1       2.452   7.264  19.253  0.00  0.00    +0.000 S 
BRANCH  11  12
ATOM     12  C   UNL     1       2.406   8.419  17.852  0.00  0.00    +0.000 C 
BRANCH  12  14
ATOM     13  N   UNL     1       0.494   9.580  18.885  0.00  0.00    +0.000 N 
ATOM     14  C   UNL     1       1.593   9.683  18.058  0.00  0.00    +0.000 C 
ATOM     15  O   UNL     1       2.008  10.742  17.585  0.00  0.00    +0.000 OA
ATOM     16  H   UNL     1       0.432   8.768  19.487  0.00  0.00    +0.000 HD
BRANCH  13  24
ATOM     17  C   UNL     1       0.832  11.409  21.140  0.00  0.00    +0.000 C 
ATOM     18  C   UNL     1      -0.363  11.431  20.222  0.00  0.00    +0.000 A 
ATOM     19  C   UNL     1      -1.350  12.402  20.458  0.00  0.00    +0.000 A 
ATOM     20  C   UNL     1      -2.442  12.529  19.607  0.00  0.00    +0.000 A 
ATOM     21  C   UNL     1      -2.552  11.700  18.498  0.00  0.00    +0.000 A 
ATOM     22  C   UNL     1      -1.573  10.734  18.214  0.00  0.00    +0.000 A 
ATOM     23  C   UNL     1      -1.834   9.818  17.051  0.00  0.00    +0.000 C 
ATOM     24  C   UNL     1      -0.464  10.605  19.082  0.00  0.00    +0.000 A 
ENDBRANCH  13  24
ENDBRANCH  12  14
ENDBRANCH  11  12
ENDBRANCH   1  11
BRANCH   3  25
ATOM     25  C   UNL     1       5.182   5.055  15.617  0.00  0.00    +0.000 C 
BRANCH  25  26
ATOM     26  O   UNL     1       6.520   4.715  16.002  0.00  0.00    +0.000 OA
BRANCH  26  27
ATOM     27  C   UNL     1       7.078   5.555  16.931  0.00  0.00    +0.000 A 
ATOM     28  C   UNL     1       7.518   4.949  18.110  0.00  0.00    +0.000 A 
ATOM     29  C   UNL     1       8.098   5.712  19.127  0.00  0.00    +0.000 A 
ATOM     30  C   UNL     1       8.256   7.087  18.962  0.00  0.00    +0.000 A 
ATOM     31  C   UNL     1       7.842   7.694  17.779  0.00  0.00    +0.000 A 
ATOM     32  C   UNL     1       7.260   6.930  16.764  0.00  0.00    +0.000 A 
ENDBRANCH  26  27
ENDBRANCH  25  26
ENDBRANCH   3  25
TORSDOF 7
ENDMDL
MODEL 2
REMARK VINA RESULT:      -8.9      0.316      1.809
REMARK  Name = 
REMARK  9 active torsions:
REMARK  status: ('A' for Active; 'I' for Inactive)
REMARK    1  A    between atoms: C_1  and  C_2
REMARK    2  A    between atoms: C_6  and  C_7
REMARK    3  A    between atoms: C_8  and  N_9
REMARK    4  A    between atoms: C_10  and  C_12
REMARK    5  A    between atoms: C_12  and  S_13
REMARK    6  A    between atoms: S_13  and  C_14
REMARK    7  A    between atoms: C_16  and  C_17
REMARK    8  A    between atoms: C_17  and  O_18
REMARK    9  A    between atoms: O_18  and  C_19
REMARK                            x       y       z     vdW  Elec       q    Type
REMARK                         _______ _______ _______ _____ _____    ______ ____
ROOT
ATOM      1  C   UNL     1       2.890   5.796  18.581  0.00  0.00    +0.000 A 
ATOM      2  N   UNL     1       3.789   6.058  17.609  0.00  0.00    +0.000 NA
ATOM      3  C   UNL     1       4.160   5.030  16.827  0.00  0.00    +0.000 A 
ATOM      4  N   UNL     1       3.685   3.782  16.954  0.00  0.00    +0.000 NA
ATOM      5  C   UNL     1       2.779   3.543  17.906  0.00  0.00    +0.000 A 
ATOM      6  C   UNL     1       2.254   2.259  18.000  0.00  0.00    +0.000 A 
ATOM      7  C   UNL     1       1.274   1.925  18.935  0.00  0.00    +0.000 A 
ATOM      8  C   UNL     1       0.802   2.894  19.806  0.00  0.00    +0.000 A 
ATOM      9  C   UNL     1       1.310   4.189  19.732  0.00  0.00    +0.000 A 
ATOM     10  C   UNL     1       2.310   4.534  18.782  0.00  0.00    +0.000 A 
ENDROOT
BRANCH   1  11
ATOM     11  S   UNL     1       2.424   7.280  19.477  0.00  0.00    +0.000 S 
BRANCH  11  12
ATOM     12  C   UNL     1       2.255   8.495  18.138  0.00  0.00    +0.000 C 
BRANCH  12  14
ATOM     13  N   UNL     1       0.223   9.459  19.145  0.00  0.00    +0.000 N 
ATOM     14  C   UNL     1       1.383   9.700  18.439  0.00  0.00    +0.000 C 
ATOM     15  O   UNL     1       1.800  10.823  18.149  0.00  0.00    +0.000 OA
ATOM     16  H   UNL     1       0.140   8.571  19.626  0.00  0.00    +0.000 HD
BRANCH  13  24
ATOM     17  C   UNL     1      -1.829   9.906  17.112  0.00  0.00    +0.000 C 
ATOM     18  C   UNL     1      -1.720  10.717  18.378  0.00  0.00    +0.000 A 
ATOM     19  C   UNL     1      -2.675  11.724  18.593  0.00  0.00    +0.000 A 
ATOM     20  C   UNL     1      -2.681  12.460  19.772  0.00  0.00    +0.000 A 
ATOM     21  C   UNL     1      -1.744  12.187  20.761  0.00  0.00    +0.000 A 
ATOM     22  C   UNL     1      -0.788  11.171  20.593  0.00  0.00    +0.000 A 
ATOM     23  C   UNL     1       0.246  11.022  21.675  0.00  0.00    +0.000 C 
ATOM     24  C   UNL     1      -0.783  10.424  19.393  0.00  0.00    +0.000 A 
ENDBRANCH  13  24
ENDBRANCH  12  14
ENDBRANCH  11  12
ENDBRANCH   1  11
BRANCH   3  25
ATOM     25  C   UNL     1       5.131   5.297  15.696  0.00  0.00    +0.000 C 
BRANCH  25  26
ATOM     26  O   UNL     1       6.444   4.814  16.008  0.00  0.00    +0.000 OA
BRANCH  26  27
ATOM     27  C   UNL     1       7.069   5.478  17.031  0.00  0.00    +0.000 A 
ATOM     28  C   UNL     1       7.223   6.855  16.856  0.00  0.00    +0.000 A 
ATOM     29  C   UNL     1       7.851   7.629  17.835  0.00  0.00    +0.000 A 
ATOM     30  C   UNL     1       8.316   7.031  19.004  0.00  0.00    +0.000 A 
ATOM     31  C   UNL     1       8.144   5.663  19.197  0.00  0.00    +0.000 A 
ATOM     32  C   UNL     1       7.518   4.888  18.216  0.00  0.00    +0.000 A 
ENDBRANCH  26  27
ENDBRANCH  25  26
ENDBRANCH   3  25
TORSDOF 7
ENDMDL
MODEL 3
REMARK VINA RESULT:      -8.7      1.585      3.069
REMARK  Name = 
REMARK  9 active torsions:
REMARK  status: ('A' for Active; 'I' for Inactive)
REMARK    1  A    between atoms: C_1  and  C_2
REMARK    2  A    between atoms: C_6  and  C_7
REMARK    3  A    between atoms: C_8  and  N_9
REMARK    4  A    between atoms: C_10  and  C_12
REMARK    5  A    between atoms: C_12  and  S_13
REMARK    6  A    between atoms: S_13  and  C_14
REMARK    7  A    between atoms: C_16  and  C_17
REMARK    8  A    between atoms: C_17  and  O_18
REMARK    9  A    between atoms: O_18  and  C_19
REMARK                            x       y       z     vdW  Elec       q    Type
REMARK                         _______ _______ _______ _____ _____    ______ ____
ROOT
ATOM      1  C   UNL     1       2.986   5.922  18.689  0.00  0.00    +0.000 A 
ATOM      2  N   UNL     1       3.936   6.388  17.850  0.00  0.00    +0.000 NA
ATOM      3  C   UNL     1       4.593   5.482  17.107  0.00  0.00    +0.000 A 
ATOM      4  N   UNL     1       4.353   4.163  17.149  0.00  0.00    +0.000 NA
ATOM      5  C   UNL     1       3.394   3.719  17.966  0.00  0.00    +0.000 A 
ATOM      6  C   UNL     1       3.117   2.356  17.966  0.00  0.00    +0.000 A 
ATOM      7  C   UNL     1       2.108   1.805  18.756  0.00  0.00    +0.000 A 
ATOM      8  C   UNL     1       1.351   2.631  19.572  0.00  0.00    +0.000 A 
ATOM      9  C   UNL     1       1.608   4.000  19.590  0.00  0.00    +0.000 A 
ATOM     10  C   UNL     1       2.637   4.565  18.788  0.00  0.00    +0.000 A 
ENDROOT
BRANCH   1  11
ATOM     11  S   UNL     1       2.134   7.253  19.539  0.00  0.00    +0.000 S 
BRANCH  11  12
ATOM     12  C   UNL     1       2.247   8.608  18.335  0.00  0.00    +0.000 C 
BRANCH  12  14
ATOM     13  N   UNL     1       0.160   9.548  19.248  0.00  0.00    +0.000 N 
ATOM     14  C   UNL     1       1.346   9.801  18.590  0.00  0.00    +0.000 C 
ATOM     15  O   UNL     1       1.757  10.928  18.310  0.00  0.00    +0.000 OA
ATOM     16  H   UNL     1       0.070   8.662  19.731  0.00  0.00    +0.000 HD
BRANCH  13  24
ATOM     17  C   UNL     1      -1.817   9.942  17.131  0.00  0.00    +0.000 C 
ATOM     18  C   UNL     1      -1.771  10.766  18.392  0.00  0.00    +0.000 A 
ATOM     19  C   UNL     1      -2.749  11.761  18.558  0.00  0.00    +0.000 A 
ATOM     20  C   UNL     1      -2.812  12.509  19.728  0.00  0.00    +0.000 A 
ATOM     21  C   UNL     1      -1.910  12.261  20.755  0.00  0.00    +0.000 A 
ATOM     22  C   UNL     1      -0.934  11.259  20.636  0.00  0.00    +0.000 A 
ATOM     23  C   UNL     1       0.060  11.136  21.759  0.00  0.00    +0.000 C 
ATOM     24  C   UNL     1      -0.869  10.500  19.445  0.00  0.00    +0.000 A 
ENDBRANCH  13  24
ENDBRANCH  12  14
ENDBRANCH  11  12
ENDBRANCH   1  11
BRANCH   3  25
ATOM     25  C   UNL     1       5.632   5.974  16.121  0.00  0.00    +0.000 C 
BRANCH  25  26
ATOM     26  O   UNL     1       6.575   4.944  15.798  0.00  0.00    +0.000 OA
BRANCH  26  27
ATOM     27  C   UNL     1       6.628   4.614  14.468  0.00  0.00    +0.000 A 
ATOM     28  C   UNL     1       7.611   5.266  13.721  0.00  0.00    +0.000 A 
ATOM     29  C   UNL     1       7.751   5.009  12.354  0.00  0.00    +0.000 A 
ATOM     30  C   UNL     1       6.915   4.085  11.731  0.00  0.00    +0.000 A 
ATOM     31  C   UNL     1       5.949   3.413  12.475  0.00  0.00    +0.000 A 
ATOM     32  C   UNL     1       5.808   3.673  13.842  0.00  0.00    +0.000 A 
ENDBRANCH  26  27
ENDBRANCH  25  26
ENDBRANCH   3  25
TORSDOF 7
ENDMDL
MODEL 4
REMARK VINA RESULT:      -8.6      1.652      2.604
REMARK  Name = 
REMARK  9 active torsions:
REMARK  status: ('A' for Active; 'I' for Inactive)
REMARK    1  A    between atoms: C_1  and  C_2
REMARK    2  A    between atoms: C_6  and  C_7
REMARK    3  A    between atoms: C_8  and  N_9
REMARK    4  A    between atoms: C_10  and  C_12
REMARK    5  A    between atoms: C_12  and  S_13
REMARK    6  A    between atoms: S_13  and  C_14
REMARK    7  A    between atoms: C_16  and  C_17
REMARK    8  A    between atoms: C_17  and  O_18
REMARK    9  A    between atoms: O_18  and  C_19
REMARK                            x       y       z     vdW  Elec       q    Type
REMARK                         _______ _______ _______ _____ _____    ______ ____
ROOT
ATOM      1  C   UNL     1       2.877   5.945  18.983  0.00  0.00    +0.000 A 
ATOM      2  N   UNL     1       3.791   6.144  18.010  0.00  0.00    +0.000 NA
ATOM      3  C   UNL     1       4.211   5.061  17.334  0.00  0.00    +0.000 A 
ATOM      4  N   UNL     1       3.770   3.816  17.567  0.00  0.00    +0.000 NA
ATOM      5  C   UNL     1       2.848   3.637  18.518  0.00  0.00    +0.000 A 
ATOM      6  C   UNL     1       2.359   2.351  18.719  0.00  0.00    +0.000 A 
ATOM      7  C   UNL     1       1.368   2.073  19.660  0.00  0.00    +0.000 A 
ATOM      8  C   UNL     1       0.847   3.102  20.428  0.00  0.00    +0.000 A 
ATOM      9  C   UNL     1       1.318   4.401  20.245  0.00  0.00    +0.000 A 
ATOM     10  C   UNL     1       2.329   4.688  19.288  0.00  0.00    +0.000 A 
ENDROOT
BRANCH   1  11
ATOM     11  S   UNL     1       2.346   7.489  19.727  0.00  0.00    +0.000 S 
BRANCH  11  12
ATOM     12  C   UNL     1       2.073   8.539  18.270  0.00  0.00    +0.000 C 
BRANCH  12  14
ATOM     13  N   UNL     1      -0.009   9.581  19.080  0.00  0.00    +0.000 N 
ATOM     14  C   UNL     1       1.224   9.777  18.492  0.00  0.00    +0.000 C 
ATOM     15  O   UNL     1       1.710  10.883  18.252  0.00  0.00    +0.000 OA
ATOM     16  H   UNL     1      -0.173   8.696  19.545  0.00  0.00    +0.000 HD
BRANCH  13  24
ATOM     17  C   UNL     1       0.028  11.233  21.491  0.00  0.00    +0.000 C 
ATOM     18  C   UNL     1      -1.045  11.322  20.436  0.00  0.00    +0.000 A 
ATOM     19  C   UNL     1      -2.065  12.269  20.621  0.00  0.00    +0.000 A 
ATOM     20  C   UNL     1      -3.046  12.458  19.654  0.00  0.00    +0.000 A 
ATOM     21  C   UNL     1      -3.009  11.716  18.480  0.00  0.00    +0.000 A 
ATOM     22  C   UNL     1      -1.991  10.777  18.248  0.00  0.00    +0.000 A 
ATOM     23  C   UNL     1      -2.095   9.951  16.995  0.00  0.00    +0.000 C 
ATOM     24  C   UNL     1      -0.995  10.585  19.234  0.00  0.00    +0.000 A 
ENDBRANCH  13  24
ENDBRANCH  12  14
ENDBRANCH  11  12
ENDBRANCH   1  11
BRANCH   3  25
ATOM     25  C   UNL     1       5.200   5.253  16.204  0.00  0.00    +0.000 C 
BRANCH  25  26
ATOM     26  O   UNL     1       5.308   4.074  15.397  0.00  0.00    +0.000 OA
BRANCH  26  27
ATOM     27  C   UNL     1       6.050   4.229  14.255  0.00  0.00    +0.000 A 
ATOM     28  C   UNL     1       5.647   3.460  13.161  0.00  0.00    +0.000 A 
ATOM     29  C   UNL     1       6.335   3.537  11.947  0.00  0.00    +0.000 A 
ATOM     30  C   UNL     1       7.423   4.397  11.817  0.00  0.00    +0.000 A 
ATOM     31  C   UNL     1       7.815   5.185  12.896  0.00  0.00    +0.000 A 
ATOM     32  C   UNL     1       7.128   5.106  14.111  0.00  0.00    +0.000 A 
ENDBRANCH  26  27
ENDBRANCH  25  26
ENDBRANCH   3  25
TORSDOF 7
ENDMDL
MODEL 5
REMARK VINA RESULT:      -8.6      2.097      3.110
REMARK  Name = 
REMARK  9 active torsions:
REMARK  status: ('A' for Active; 'I' for Inactive)
REMARK    1  A    between atoms: C_1  and  C_2
REMARK    2  A    between atoms: C_6  and  C_7
REMARK    3  A    between atoms: C_8  and  N_9
REMARK    4  A    between atoms: C_10  and  C_12
REMARK    5  A    between atoms: C_12  and  S_13
REMARK    6  A    between atoms: S_13  and  C_14
REMARK    7  A    between atoms: C_16  and  C_17
REMARK    8  A    between atoms: C_17  and  O_18
REMARK    9  A    between atoms: O_18  and  C_19
REMARK                            x       y       z     vdW  Elec       q    Type
REMARK                         _______ _______ _______ _____ _____    ______ ____
ROOT
ATOM      1  C   UNL     1       2.842   5.913  18.888  0.00  0.00    +0.000 A 
ATOM      2  N   UNL     1       3.808   6.326  18.040  0.00  0.00    +0.000 NA
ATOM      3  C   UNL     1       4.268   5.427  17.154  0.00  0.00    +0.000 A 
ATOM      4  N   UNL     1       3.819   4.166  17.064  0.00  0.00    +0.000 NA
ATOM      5  C   UNL     1       2.846   3.778  17.894  0.00  0.00    +0.000 A 
ATOM      6  C   UNL     1       2.351   2.486  17.760  0.00  0.00    +0.000 A 
ATOM      7  C   UNL     1       1.310   2.005  18.554  0.00  0.00    +0.000 A 
ATOM      8  C   UNL     1       0.743   2.832  19.512  0.00  0.00    +0.000 A 
ATOM      9  C   UNL     1       1.220   4.132  19.665  0.00  0.00    +0.000 A 
ATOM     10  C   UNL     1       2.282   4.625  18.859  0.00  0.00    +0.000 A 
ENDROOT
BRANCH   1  11
ATOM     11  S   UNL     1       2.266   7.245  19.944  0.00  0.00    +0.000 S 
BRANCH  11  12
ATOM     12  C   UNL     1       1.727   8.485  18.731  0.00  0.00    +0.000 C 
BRANCH  12  14
ATOM     13  N   UNL     1       1.264  10.172  20.466  0.00  0.00    +0.000 N 
ATOM     14  C   UNL     1       0.867   9.613  19.269  0.00  0.00    +0.000 C 
ATOM     15  O   UNL     1      -0.053  10.044  18.573  0.00  0.00    +0.000 OA
ATOM     16  H   UNL     1       2.207   9.983  20.784  0.00  0.00    +0.000 HD
BRANCH  13  24
ATOM     17  C   UNL     1      -0.497   9.245  22.608  0.00  0.00    +0.000 C 
ATOM     18  C   UNL     1      -0.410  10.683  22.165  0.00  0.00    +0.000 A 
ATOM     19  C   UNL     1      -1.206  11.623  22.839  0.00  0.00    +0.000 A 
ATOM     20  C   UNL     1      -1.122  12.977  22.534  0.00  0.00    +0.000 A 
ATOM     21  C   UNL     1      -0.228  13.411  21.563  0.00  0.00    +0.000 A 
ATOM     22  C   UNL     1       0.602  12.504  20.885  0.00  0.00    +0.000 A 
ATOM     23  C   UNL     1       1.461  13.058  19.781  0.00  0.00    +0.000 C 
ATOM     24  C   UNL     1       0.515  11.127  21.195  0.00  0.00    +0.000 A 
ENDBRANCH  13  24
ENDBRANCH  12  14
ENDBRANCH  11  12
ENDBRANCH   1  11
BRANCH   3  25
ATOM     25  C   UNL     1       5.318   5.868  16.156  0.00  0.00    +0.000 C 
BRANCH  25  26
ATOM     26  O   UNL     1       6.270   4.828  15.903  0.00  0.00    +0.000 OA
BRANCH  26  27
ATOM     27  C   UNL     1       6.588   4.652  14.581  0.00  0.00    +0.000 A 
ATOM     28  C   UNL     1       5.848   3.682  13.903  0.00  0.00    +0.000 A 
ATOM     29  C   UNL     1       6.092   3.417  12.553  0.00  0.00    +0.000 A 
ATOM     30  C   UNL     1       7.070   4.136  11.869  0.00  0.00    +0.000 A 
ATOM     31  C   UNL     1       7.795   5.122  12.532  0.00  0.00    +0.000 A 
ATOM     32  C   UNL     1       7.552   5.384  13.884  0.00  0.00    +0.000 A 
ENDBRANCH  26  27
ENDBRANCH  25  26
ENDBRANCH   3  25
TORSDOF 7
ENDMDL
MODEL 6
REMARK VINA RESULT:      -8.6      1.491      2.591
REMARK  Name = 
REMARK  9 active torsions:
REMARK  status: ('A' for Active; 'I' for Inactive)
REMARK    1  A    between atoms: C_1  and  C_2
REMARK    2  A    between atoms: C_6  and  C_7
REMARK    3  A    between atoms: C_8  and  N_9
REMARK    4  A    between atoms: C_10  and  C_12
REMARK    5  A    between atoms: C_12  and  S_13
REMARK    6  A    between atoms: S_13  and  C_14
REMARK    7  A    between atoms: C_16  and  C_17
REMARK    8  A    between atoms: C_17  and  O_18
REMARK    9  A    between atoms: O_18  and  C_19
REMARK                            x       y       z     vdW  Elec       q    Type
REMARK                         _______ _______ _______ _____ _____    ______ ____
ROOT
ATOM      1  C   UNL     1       3.284   5.543  18.811  0.00  0.00    +0.000 A 
ATOM      2  N   UNL     1       4.465   5.650  18.167  0.00  0.00    +0.000 NA
ATOM      3  C   UNL     1       4.956   4.535  17.600  0.00  0.00    +0.000 A 
ATOM      4  N   UNL     1       4.338   3.344  17.633  0.00  0.00    +0.000 NA
ATOM      5  C   UNL     1       3.159   3.259  18.255  0.00  0.00    +0.000 A 
ATOM      6  C   UNL     1       2.501   2.034  18.241  0.00  0.00    +0.000 A 
ATOM      7  C   UNL     1       1.248   1.858  18.828  0.00  0.00    +0.000 A 
ATOM      8  C   UNL     1       0.628   2.931  19.450  0.00  0.00    +0.000 A 
ATOM      9  C   UNL     1       1.265   4.170  19.476  0.00  0.00    +0.000 A 
ATOM     10  C   UNL     1       2.543   4.353  18.880  0.00  0.00    +0.000 A 
ENDROOT
BRANCH   1  11
ATOM     11  S   UNL     1       2.715   7.129  19.431  0.00  0.00    +0.000 S 
BRANCH  11  12
ATOM     12  C   UNL     1       2.173   7.959  17.909  0.00  0.00    +0.000 C 
BRANCH  12  14
ATOM     13  N   UNL     1       0.368   9.330  18.877  0.00  0.00    +0.000 N 
ATOM     14  C   UNL     1       1.501   9.307  18.090  0.00  0.00    +0.000 C 
ATOM     15  O   UNL     1       2.051  10.312  17.636  0.00  0.00    +0.000 OA
ATOM     16  H   UNL     1       0.193   8.530  19.473  0.00  0.00    +0.000 HD
BRANCH  13  24
ATOM     17  C   UNL     1       0.818  11.100  21.159  0.00  0.00    +0.000 C 
ATOM     18  C   UNL     1      -0.327  11.262  20.192  0.00  0.00    +0.000 A 
ATOM     19  C   UNL     1      -1.206  12.338  20.396  0.00  0.00    +0.000 A 
ATOM     20  C   UNL     1      -2.240  12.592  19.502  0.00  0.00    +0.000 A 
ATOM     21  C   UNL     1      -2.398  11.785  18.382  0.00  0.00    +0.000 A 
ATOM     22  C   UNL     1      -1.524  10.714  18.131  0.00  0.00    +0.000 A 
ATOM     23  C   UNL     1      -1.839   9.838  16.950  0.00  0.00    +0.000 C 
ATOM     24  C   UNL     1      -0.474  10.456  19.042  0.00  0.00    +0.000 A 
ENDBRANCH  13  24
ENDBRANCH  12  14
ENDBRANCH  11  12
ENDBRANCH   1  11
BRANCH   3  25
ATOM     25  C   UNL     1       6.255   4.628  16.829  0.00  0.00    +0.000 C 
BRANCH  25  26
ATOM     26  O   UNL     1       6.141   5.527  15.718  0.00  0.00    +0.000 OA
BRANCH  26  27
ATOM     27  C   UNL     1       6.339   4.947  14.491  0.00  0.00    +0.000 A 
ATOM     28  C   UNL     1       7.474   5.369  13.797  0.00  0.00    +0.000 A 
ATOM     29  C   UNL     1       7.769   4.847  12.534  0.00  0.00    +0.000 A 
ATOM     30  C   UNL     1       6.935   3.887  11.966  0.00  0.00    +0.000 A 
ATOM     31  C   UNL     1       5.815   3.443  12.664  0.00  0.00    +0.000 A 
ATOM     32  C   UNL     1       5.519   3.968  13.925  0.00  0.00    +0.000 A 
ENDBRANCH  26  27
ENDBRANCH  25  26
ENDBRANCH   3  25
TORSDOF 7
ENDMDL
MODEL 7
REMARK VINA RESULT:      -8.4      2.292      8.264
REMARK  Name = 
REMARK  9 active torsions:
REMARK  status: ('A' for Active; 'I' for Inactive)
REMARK    1  A    between atoms: C_1  and  C_2
REMARK    2  A    between atoms: C_6  and  C_7
REMARK    3  A    between atoms: C_8  and  N_9
REMARK    4  A    between atoms: C_10  and  C_12
REMARK    5  A    between atoms: C_12  and  S_13
REMARK    6  A    between atoms: S_13  and  C_14
REMARK    7  A    between atoms: C_16  and  C_17
REMARK    8  A    between atoms: C_17  and  O_18
REMARK    9  A    between atoms: O_18  and  C_19
REMARK                            x       y       z     vdW  Elec       q    Type
REMARK                         _______ _______ _______ _____ _____    ______ ____
ROOT
ATOM      1  C   UNL     1       4.753   5.436  18.697  0.00  0.00    +0.000 A 
ATOM      2  N   UNL     1       4.208   6.666  18.585  0.00  0.00    +0.000 NA
ATOM      3  C   UNL     1       2.907   6.730  18.255  0.00  0.00    +0.000 A 
ATOM      4  N   UNL     1       2.134   5.654  18.044  0.00  0.00    +0.000 NA
ATOM      5  C   UNL     1       2.682   4.443  18.181  0.00  0.00    +0.000 A 
ATOM      6  C   UNL     1       1.863   3.333  18.010  0.00  0.00    +0.000 A 
ATOM      7  C   UNL     1       2.335   2.030  18.173  0.00  0.00    +0.000 A 
ATOM      8  C   UNL     1       3.662   1.822  18.513  0.00  0.00    +0.000 A 
ATOM      9  C   UNL     1       4.504   2.917  18.692  0.00  0.00    +0.000 A 
ATOM     10  C   UNL     1       4.027   4.247  18.526  0.00  0.00    +0.000 A 
ENDROOT
BRANCH   1  11
ATOM     11  S   UNL     1       6.464   5.511  19.234  0.00  0.00    +0.000 S 
BRANCH  11  12
ATOM     12  C   UNL     1       7.300   6.146  17.752  0.00  0.00    +0.000 C 
BRANCH  12  14
ATOM     13  N   UNL     1       6.926   5.663  15.364  0.00  0.00    +0.000 N 
ATOM     14  C   UNL     1       7.386   5.191  16.576  0.00  0.00    +0.000 C 
ATOM     15  O   UNL     1       7.957   4.110  16.728  0.00  0.00    +0.000 OA
ATOM     16  H   UNL     1       6.794   6.663  15.268  0.00  0.00    +0.000 HD
BRANCH  13  24
ATOM     17  C   UNL     1       8.840   6.036  13.186  0.00  0.00    +0.000 C 
ATOM     18  C   UNL     1       7.648   5.117  13.100  0.00  0.00    +0.000 A 
ATOM     19  C   UNL     1       7.469   4.389  11.913  0.00  0.00    +0.000 A 
ATOM     20  C   UNL     1       6.435   3.468  11.790  0.00  0.00    +0.000 A 
ATOM     21  C   UNL     1       5.576   3.249  12.860  0.00  0.00    +0.000 A 
ATOM     22  C   UNL     1       5.738   3.940  14.072  0.00  0.00    +0.000 A 
ATOM     23  C   UNL     1       4.697   3.709  15.134  0.00  0.00    +0.000 C 
ATOM     24  C   UNL     1       6.789   4.877  14.194  0.00  0.00    +0.000 A 
ENDBRANCH  13  24
ENDBRANCH  12  14
ENDBRANCH  11  12
ENDBRANCH   1  11
BRANCH   3  25
ATOM     25  C   UNL     1       2.250   8.091  18.166  0.00  0.00    +0.000 C 
BRANCH  25  26
ATOM     26  O   UNL     1       1.963   8.619  19.467  0.00  0.00    +0.000 OA
BRANCH  26  27
ATOM     27  C   UNL     1       0.896   9.479  19.513  0.00  0.00    +0.000 A 
ATOM     28  C   UNL     1       0.322   9.798  18.281  0.00  0.00    +0.000 A 
ATOM     29  C   UNL     1      -0.768  10.670  18.210  0.00  0.00    +0.000 A 
ATOM     30  C   UNL     1      -1.299  11.216  19.376  0.00  0.00    +0.000 A 
ATOM     31  C   UNL     1      -0.748  10.883  20.610  0.00  0.00    +0.000 A 
ATOM     32  C   UNL     1       0.344  10.013  20.680  0.00  0.00    +0.000 A 
ENDBRANCH  26  27
ENDBRANCH  25  26
ENDBRANCH   3  25
TORSDOF 7
ENDMDL
MODEL 8
REMARK VINA RESULT:      -8.4      1.451      2.025
REMARK  Name = 
REMARK  9 active torsions:
REMARK  status: ('A' for Active; 'I' for Inactive)
REMARK    1  A    between atoms: C_1  and  C_2
REMARK    2  A    between atoms: C_6  and  C_7
REMARK    3  A    between atoms: C_8  and  N_9
REMARK    4  A    between atoms: C_10  and  C_12
REMARK    5  A    between atoms: C_12  and  S_13
REMARK    6  A    between atoms: S_13  and  C_14
REMARK    7  A    between atoms: C_16  and  C_17
REMARK    8  A    between atoms: C_17  and  O_18
REMARK    9  A    between atoms: O_18  and  C_19
REMARK                            x       y       z     vdW  Elec       q    Type
REMARK                         _______ _______ _______ _____ _____    ______ ____
ROOT
ATOM      1  C   UNL     1       2.952   5.828  18.670  0.00  0.00    +0.000 A 
ATOM      2  N   UNL     1       3.845   6.107  17.697  0.00  0.00    +0.000 NA
ATOM      3  C   UNL     1       4.165   5.109  16.857  0.00  0.00    +0.000 A 
ATOM      4  N   UNL     1       3.647   3.874  16.929  0.00  0.00    +0.000 NA
ATOM      5  C   UNL     1       2.748   3.618  17.883  0.00  0.00    +0.000 A 
ATOM      6  C   UNL     1       2.178   2.350  17.919  0.00  0.00    +0.000 A 
ATOM      7  C   UNL     1       1.201   2.003  18.853  0.00  0.00    +0.000 A 
ATOM      8  C   UNL     1       0.778   2.941  19.781  0.00  0.00    +0.000 A 
ATOM      9  C   UNL     1       1.332   4.220  19.765  0.00  0.00    +0.000 A 
ATOM     10  C   UNL     1       2.329   4.577  18.816  0.00  0.00    +0.000 A 
ENDROOT
BRANCH   1  11
ATOM     11  S   UNL     1       2.554   7.278  19.649  0.00  0.00    +0.000 S 
BRANCH  11  12
ATOM     12  C   UNL     1       1.778   8.366  18.419  0.00  0.00    +0.000 C 
BRANCH  12  14
ATOM     13  N   UNL     1       1.284   9.997  20.199  0.00  0.00    +0.000 N 
ATOM     14  C   UNL     1       0.918   9.487  18.971  0.00  0.00    +0.000 C 
ATOM     15  O   UNL     1       0.026   9.957  18.261  0.00  0.00    +0.000 OA
ATOM     16  H   UNL     1       2.214   9.783  20.539  0.00  0.00    +0.000 HD
BRANCH  13  24
ATOM     17  C   UNL     1       1.569  12.839  19.573  0.00  0.00    +0.000 C 
ATOM     18  C   UNL     1       0.728  12.316  20.709  0.00  0.00    +0.000 A 
ATOM     19  C   UNL     1       0.031  13.252  21.490  0.00  0.00    +0.000 A 
ATOM     20  C   UNL     1      -0.822  12.838  22.506  0.00  0.00    +0.000 A 
ATOM     21  C   UNL     1      -1.003  11.482  22.745  0.00  0.00    +0.000 A 
ATOM     22  C   UNL     1      -0.342  10.515  21.970  0.00  0.00    +0.000 A 
ATOM     23  C   UNL     1      -0.523   9.077  22.372  0.00  0.00    +0.000 C 
ATOM     24  C   UNL     1       0.526  10.938  20.937  0.00  0.00    +0.000 A 
ENDBRANCH  13  24
ENDBRANCH  12  14
ENDBRANCH  11  12
ENDBRANCH   1  11
BRANCH   3  25
ATOM     25  C   UNL     1       5.127   5.399  15.725  0.00  0.00    +0.000 C 
BRANCH  25  26
ATOM     26  O   UNL     1       6.451   4.943  16.032  0.00  0.00    +0.000 OA
BRANCH  26  27
ATOM     27  C   UNL     1       7.078   5.639  17.033  0.00  0.00    +0.000 A 
ATOM     28  C   UNL     1       7.243   7.007  16.809  0.00  0.00    +0.000 A 
ATOM     29  C   UNL     1       7.874   7.811  17.761  0.00  0.00    +0.000 A 
ATOM     30  C   UNL     1       8.329   7.252  18.953  0.00  0.00    +0.000 A 
ATOM     31  C   UNL     1       8.145   5.893  19.195  0.00  0.00    +0.000 A 
ATOM     32  C   UNL     1       7.517   5.088  18.240  0.00  0.00    +0.000 A 
ENDBRANCH  26  27
ENDBRANCH  25  26
ENDBRANCH   3  25
TORSDOF 7
ENDMDL
MODEL 9
REMARK VINA RESULT:      -8.4      2.979      6.100
REMARK  Name = 
REMARK  9 active torsions:
REMARK  status: ('A' for Active; 'I' for Inactive)
REMARK    1  A    between atoms: C_1  and  C_2
REMARK    2  A    between atoms: C_6  and  C_7
REMARK    3  A    between atoms: C_8  and  N_9
REMARK    4  A    between atoms: C_10  and  C_12
REMARK    5  A    between atoms: C_12  and  S_13
REMARK    6  A    between atoms: S_13  and  C_14
REMARK    7  A    between atoms: C_16  and  C_17
REMARK    8  A    between atoms: C_17  and  O_18
REMARK    9  A    between atoms: O_18  and  C_19
REMARK                            x       y       z     vdW  Elec       q    Type
REMARK                         _______ _______ _______ _____ _____    ______ ____
ROOT
ATOM      1  C   UNL     1       0.240  11.056  19.362  0.00  0.00    +0.000 A 
ATOM      2  N   UNL     1       0.895  10.352  18.414  0.00  0.00    +0.000 NA
ATOM      3  C   UNL     1       1.437   9.180  18.788  0.00  0.00    +0.000 A 
ATOM      4  N   UNL     1       1.355   8.680  20.030  0.00  0.00    +0.000 NA
ATOM      5  C   UNL     1       0.684   9.376  20.951  0.00  0.00    +0.000 A 
ATOM      6  C   UNL     1       0.560   8.827  22.222  0.00  0.00    +0.000 A 
ATOM      7  C   UNL     1      -0.156   9.460  23.238  0.00  0.00    +0.000 A 
ATOM      8  C   UNL     1      -0.766  10.679  22.986  0.00  0.00    +0.000 A 
ATOM      9  C   UNL     1      -0.659  11.251  21.720  0.00  0.00    +0.000 A 
ATOM     10  C   UNL     1       0.071  10.609  20.682  0.00  0.00    +0.000 A 
ENDROOT
BRANCH   1  11
ATOM     11  S   UNL     1      -0.507  12.544  18.692  0.00  0.00    +0.000 S 
BRANCH  11  12
ATOM     12  C   UNL     1      -1.832  11.868  17.649  0.00  0.00    +0.000 C 
BRANCH  12  14
ATOM     13  N   UNL     1      -3.917  12.543  18.775  0.00  0.00    +0.000 N 
ATOM     14  C   UNL     1      -3.118  11.497  18.363  0.00  0.00    +0.000 C 
ATOM     15  O   UNL     1      -3.437  10.309  18.435  0.00  0.00    +0.000 OA
ATOM     16  H   UNL     1      -3.740  13.456  18.376  0.00  0.00    +0.000 HD
BRANCH  13  24
ATOM     17  C   UNL     1      -6.477  11.987  17.478  0.00  0.00    +0.000 C 
ATOM     18  C   UNL     1      -6.328  12.230  18.958  0.00  0.00    +0.000 A 
ATOM     19  C   UNL     1      -7.486  12.162  19.750  0.00  0.00    +0.000 A 
ATOM     20  C   UNL     1      -7.414  12.303  21.131  0.00  0.00    +0.000 A 
ATOM     21  C   UNL     1      -6.180  12.495  21.741  0.00  0.00    +0.000 A 
ATOM     22  C   UNL     1      -4.997  12.544  20.985  0.00  0.00    +0.000 A 
ATOM     23  C   UNL     1      -3.726  12.858  21.726  0.00  0.00    +0.000 C 
ATOM     24  C   UNL     1      -5.073  12.402  19.581  0.00  0.00    +0.000 A 
ENDBRANCH  13  24
ENDBRANCH  12  14
ENDBRANCH  11  12
ENDBRANCH   1  11
BRANCH   3  25
ATOM     25  C   UNL     1       2.138   8.342  17.740  0.00  0.00    +0.000 C 
BRANCH  25  26
ATOM     26  O   UNL     1       3.154   7.517  18.324  0.00  0.00    +0.000 OA
BRANCH  26  27
ATOM     27  C   UNL     1       3.090   6.194  17.968  0.00  0.00    +0.000 A 
ATOM     28  C   UNL     1       4.240   5.670  17.375  0.00  0.00    +0.000 A 
ATOM     29  C   UNL     1       4.283   4.333  16.969  0.00  0.00    +0.000 A 
ATOM     30  C   UNL     1       3.178   3.509  17.169  0.00  0.00    +0.000 A 
ATOM     31  C   UNL     1       2.036   4.019  17.782  0.00  0.00    +0.000 A 
ATOM     32  C   UNL     1       1.993   5.357  18.186  0.00  0.00    +0.000 A 
ENDBRANCH  26  27
ENDBRANCH  25  26
ENDBRANCH   3  25
TORSDOF 7
ENDMDL
