MODEL 1
REMARK VINA RESULT:      -5.7      0.000      0.000
REMARK  Name = 
REMARK  9 active torsions:
REMARK  status: ('A' for Active; 'I' for Inactive)
REMARK    1  A    between atoms: C_1  and  C_2
REMARK    2  A    between atoms: C_2  and  N_3
REMARK    3  A    between atoms: N_3  and  C_4
REMARK    4  A    between atoms: N_3  and  C_6
REMARK    5  A    between atoms: C_4  and  C_5
REMARK    6  A    between atoms: C_8  and  C_9
REMARK    7  A    between atoms: C_15  and  C_16
REMARK    8  A    between atoms: C_18  and  N_19
REMARK    9  A    between atoms: C_20  and  C_21
REMARK                            x       y       z     vdW  Elec       q    Type
REMARK                         _______ _______ _______ _____ _____    ______ ____
ROOT
ATOM      1  C   UNL     1       5.749   3.994  14.126  0.00  0.00    +0.000 A 
ATOM      2  N   UNL     1       4.840   3.484  14.999  0.00  0.00    +0.000 NA
ATOM      3  C   UNL     1       4.814   3.899  16.302  0.00  0.00    +0.000 A 
ATOM      4  C   UNL     1       5.748   4.827  16.780  0.00  0.00    +0.000 A 
ATOM      5  C   UNL     1       6.775   5.280  15.932  0.00  0.00    +0.000 A 
ATOM      6  C   UNL     1       6.736   4.886  14.577  0.00  0.00    +0.000 A 
ENDROOT
BRANCH   3   7
ATOM      7  C   UNL     1       3.678   3.367  17.109  0.00  0.00    +0.000 A 
ATOM      8  C   UNL     1       3.761   2.162  17.836  0.00  0.00    +0.000 A 
ATOM      9  C   UNL     1       2.758   1.766  18.729  0.00  0.00    +0.000 A 
ATOM     10  C   UNL     1       1.607   2.530  18.864  0.00  0.00    +0.000 A 
ATOM     11  C   UNL     1       1.452   3.677  18.092  0.00  0.00    +0.000 A 
ATOM     12  C   UNL     1       2.476   4.090  17.228  0.00  0.00    +0.000 A 
ENDBRANCH   3   7
BRANCH   5  13
ATOM     13  N   UNL     1       7.669   6.295  16.363  0.00  0.00    +0.000 N 
ATOM     14  H   UNL     1       7.658   7.165  15.832  0.00  0.00    +0.000 HD
ATOM     15  H   UNL     1       7.699   6.477  17.367  0.00  0.00    +0.000 HD
ENDBRANCH   5  13
BRANCH   4  16
ATOM     16  C   UNL     1       5.679   5.355  18.113  0.00  0.00    +0.000 C 
ATOM     17  N   UNL     1       5.586   5.716  19.210  0.00  0.00    +0.000 NA
ENDBRANCH   4  16
BRANCH   6  18
ATOM     18  C   UNL     1       7.758   5.373  13.698  0.00  0.00    +0.000 C 
ATOM     19  N   UNL     1       8.587   5.836  13.028  0.00  0.00    +0.000 NA
ENDBRANCH   6  18
BRANCH   1  20
ATOM     20  N   UNL     1       5.637   3.621  12.788  0.00  0.00    +0.000 N 
BRANCH  20  22
ATOM     21  C   UNL     1       7.355   2.528  11.319  0.00  0.00    +0.000 C 
ATOM     22  C   UNL     1       6.259   2.362  12.359  0.00  0.00    +0.000 C 
ENDBRANCH  20  22
BRANCH  20  23
ATOM     23  C   UNL     1       4.523   4.135  11.973  0.00  0.00    +0.000 C 
ATOM     24  C   UNL     1       3.875   3.068  11.102  0.00  0.00    +0.000 C 
ENDBRANCH  20  23
ENDBRANCH   1  20
TORSDOF 7
ENDMDL
MODEL 2
REMARK VINA RESULT:      -5.6      2.665      7.175
REMARK  Name = 
REMARK  9 active torsions:
REMARK  status: ('A' for Active; 'I' for Inactive)
REMARK    1  A    between atoms: C_1  and  C_2
REMARK    2  A    between atoms: C_2  and  N_3
REMARK    3  A    between atoms: N_3  and  C_4
REMARK    4  A    between atoms: N_3  and  C_6
REMARK    5  A    between atoms: C_4  and  C_5
REMARK    6  A    between atoms: C_8  and  C_9
REMARK    7  A    between atoms: C_15  and  C_16
REMARK    8  A    between atoms: C_18  and  N_19
REMARK    9  A    between atoms: C_20  and  C_21
REMARK                            x       y       z     vdW  Elec       q    Type
REMARK                         _______ _______ _______ _____ _____    ______ ____
ROOT
ATOM      1  C   UNL     1       2.917   4.480  19.437  0.00  0.00    +0.000 A 
ATOM      2  N   UNL     1       4.118   5.111  19.342  0.00  0.00    +0.000 NA
ATOM      3  C   UNL     1       4.873   5.007  18.207  0.00  0.00    +0.000 A 
ATOM      4  C   UNL     1       4.451   4.215  17.131  0.00  0.00    +0.000 A 
ATOM      5  C   UNL     1       3.273   3.455  17.248  0.00  0.00    +0.000 A 
ATOM      6  C   UNL     1       2.481   3.634  18.403  0.00  0.00    +0.000 A 
ENDROOT
BRANCH   3   7
ATOM      7  C   UNL     1       6.094   5.864  18.183  0.00  0.00    +0.000 A 
ATOM      8  C   UNL     1       6.223   6.981  17.333  0.00  0.00    +0.000 A 
ATOM      9  C   UNL     1       7.292   7.877  17.446  0.00  0.00    +0.000 A 
ATOM     10  C   UNL     1       8.304   7.639  18.367  0.00  0.00    +0.000 A 
ATOM     11  C   UNL     1       8.255   6.496  19.158  0.00  0.00    +0.000 A 
ATOM     12  C   UNL     1       7.162   5.621  19.068  0.00  0.00    +0.000 A 
ENDBRANCH   3   7
BRANCH   5  13
ATOM     13  N   UNL     1       2.774   2.726  16.136  0.00  0.00    +0.000 N 
ATOM     14  H   UNL     1       1.909   2.209  16.285  0.00  0.00    +0.000 HD
ATOM     15  H   UNL     1       2.761   3.217  15.241  0.00  0.00    +0.000 HD
ENDBRANCH   5  13
BRANCH   4  16
ATOM     16  C   UNL     1       5.174   4.170  15.892  0.00  0.00    +0.000 C 
ATOM     17  N   UNL     1       5.766   4.057  14.902  0.00  0.00    +0.000 NA
ENDBRANCH   4  16
BRANCH   6  18
ATOM     18  C   UNL     1       1.261   2.891  18.513  0.00  0.00    +0.000 C 
ATOM     19  N   UNL     1       0.279   2.270  18.524  0.00  0.00    +0.000 NA
ENDBRANCH   6  18
BRANCH   1  20
ATOM     20  N   UNL     1       2.143   4.731  20.569  0.00  0.00    +0.000 N 
BRANCH  20  22
ATOM     21  C   UNL     1       1.687   2.640  21.881  0.00  0.00    +0.000 C 
ATOM     22  C   UNL     1       2.424   3.966  21.790  0.00  0.00    +0.000 C 
ENDBRANCH  20  22
BRANCH  20  23
ATOM     23  C   UNL     1       1.475   6.034  20.727  0.00  0.00    +0.000 C 
ATOM     24  C   UNL     1       2.126   7.144  19.912  0.00  0.00    +0.000 C 
ENDBRANCH  20  23
ENDBRANCH   1  20
TORSDOF 7
ENDMDL
MODEL 3
REMARK VINA RESULT:      -5.6      0.145      1.031
REMARK  Name = 
REMARK  9 active torsions:
REMARK  status: ('A' for Active; 'I' for Inactive)
REMARK    1  A    between atoms: C_1  and  C_2
REMARK    2  A    between atoms: C_2  and  N_3
REMARK    3  A    between atoms: N_3  and  C_4
REMARK    4  A    between atoms: N_3  and  C_6
REMARK    5  A    between atoms: C_4  and  C_5
REMARK    6  A    between atoms: C_8  and  C_9
REMARK    7  A    between atoms: C_15  and  C_16
REMARK    8  A    between atoms: C_18  and  N_19
REMARK    9  A    between atoms: C_20  and  C_21
REMARK                            x       y       z     vdW  Elec       q    Type
REMARK                         _______ _______ _______ _____ _____    ______ ____
ROOT
ATOM      1  C   UNL     1       5.746   4.029  14.138  0.00  0.00    +0.000 A 
ATOM      2  N   UNL     1       4.855   3.540  15.041  0.00  0.00    +0.000 NA
ATOM      3  C   UNL     1       4.866   3.973  16.338  0.00  0.00    +0.000 A 
ATOM      4  C   UNL     1       5.821   4.897  16.780  0.00  0.00    +0.000 A 
ATOM      5  C   UNL     1       6.830   5.329  15.899  0.00  0.00    +0.000 A 
ATOM      6  C   UNL     1       6.753   4.917  14.551  0.00  0.00    +0.000 A 
ENDROOT
BRANCH   3   7
ATOM      7  C   UNL     1       3.746   3.463  17.181  0.00  0.00    +0.000 A 
ATOM      8  C   UNL     1       2.544   4.177  17.362  0.00  0.00    +0.000 A 
ATOM      9  C   UNL     1       1.437   3.613  18.004  0.00  0.00    +0.000 A 
ATOM     10  C   UNL     1       1.526   2.339  18.551  0.00  0.00    +0.000 A 
ATOM     11  C   UNL     1       2.727   1.642  18.471  0.00  0.00    +0.000 A 
ATOM     12  C   UNL     1       3.822   2.198  17.793  0.00  0.00    +0.000 A 
ENDBRANCH   3   7
BRANCH   5  13
ATOM     13  N   UNL     1       7.745   6.340  16.295  0.00  0.00    +0.000 N 
ATOM     14  H   UNL     1       7.427   7.303  16.195  0.00  0.00    +0.000 HD
ATOM     15  H   UNL     1       8.219   6.199  17.188  0.00  0.00    +0.000 HD
ENDBRANCH   5  13
BRANCH   4  16
ATOM     16  C   UNL     1       5.791   5.444  18.107  0.00  0.00    +0.000 C 
ATOM     17  N   UNL     1       5.835   5.848  19.192  0.00  0.00    +0.000 NA
ENDBRANCH   4  16
BRANCH   6  18
ATOM     18  C   UNL     1       7.757   5.382  13.641  0.00  0.00    +0.000 C 
ATOM     19  N   UNL     1       8.611   5.787  12.965  0.00  0.00    +0.000 NA
ENDBRANCH   6  18
BRANCH   1  20
ATOM     20  N   UNL     1       5.598   3.639  12.808  0.00  0.00    +0.000 N 
BRANCH  20  22
ATOM     21  C   UNL     1       7.345   2.559  11.365  0.00  0.00    +0.000 C 
ATOM     22  C   UNL     1       6.222   2.383  12.374  0.00  0.00    +0.000 C 
ENDBRANCH  20  22
BRANCH  20  23
ATOM     23  C   UNL     1       4.451   4.129  12.024  0.00  0.00    +0.000 C 
ATOM     24  C   UNL     1       3.871   3.077  11.089  0.00  0.00    +0.000 C 
ENDBRANCH  20  23
ENDBRANCH   1  20
TORSDOF 7
ENDMDL
MODEL 4
REMARK VINA RESULT:      -5.5      3.383      5.732
REMARK  Name = 
REMARK  9 active torsions:
REMARK  status: ('A' for Active; 'I' for Inactive)
REMARK    1  A    between atoms: C_1  and  C_2
REMARK    2  A    between atoms: C_2  and  N_3
REMARK    3  A    between atoms: N_3  and  C_4
REMARK    4  A    between atoms: N_3  and  C_6
REMARK    5  A    between atoms: C_4  and  C_5
REMARK    6  A    between atoms: C_8  and  C_9
REMARK    7  A    between atoms: C_15  and  C_16
REMARK    8  A    between atoms: C_18  and  N_19
REMARK    9  A    between atoms: C_20  and  C_21
REMARK                            x       y       z     vdW  Elec       q    Type
REMARK                         _______ _______ _______ _____ _____    ______ ____
ROOT
ATOM      1  C   UNL     1       5.924   6.574  17.591  0.00  0.00    +0.000 A 
ATOM      2  N   UNL     1       4.844   7.285  18.013  0.00  0.00    +0.000 NA
ATOM      3  C   UNL     1       3.597   6.725  18.018  0.00  0.00    +0.000 A 
ATOM      4  C   UNL     1       3.392   5.421  17.549  0.00  0.00    +0.000 A 
ATOM      5  C   UNL     1       4.468   4.705  16.993  0.00  0.00    +0.000 A 
ATOM      6  C   UNL     1       5.754   5.283  17.063  0.00  0.00    +0.000 A 
ENDROOT
BRANCH   3   7
ATOM      7  C   UNL     1       2.533   7.565  18.639  0.00  0.00    +0.000 A 
ATOM      8  C   UNL     1       2.134   7.416  19.983  0.00  0.00    +0.000 A 
ATOM      9  C   UNL     1       1.267   8.323  20.603  0.00  0.00    +0.000 A 
ATOM     10  C   UNL     1       0.714   9.366  19.872  0.00  0.00    +0.000 A 
ATOM     11  C   UNL     1       1.014   9.488  18.519  0.00  0.00    +0.000 A 
ATOM     12  C   UNL     1       1.914   8.600  17.912  0.00  0.00    +0.000 A 
ENDBRANCH   3   7
BRANCH   5  13
ATOM     13  N   UNL     1       4.305   3.349  16.606  0.00  0.00    +0.000 N 
ATOM     14  H   UNL     1       3.704   3.177  15.801  0.00  0.00    +0.000 HD
ATOM     15  H   UNL     1       5.155   2.785  16.558  0.00  0.00    +0.000 HD
ENDBRANCH   5  13
BRANCH   4  16
ATOM     16  C   UNL     1       2.113   4.775  17.637  0.00  0.00    +0.000 C 
ATOM     17  N   UNL     1       1.093   4.225  17.637  0.00  0.00    +0.000 NA
ENDBRANCH   4  16
BRANCH   6  18
ATOM     18  C   UNL     1       6.861   4.543  16.532  0.00  0.00    +0.000 C 
ATOM     19  N   UNL     1       7.800   4.012  16.102  0.00  0.00    +0.000 NA
ENDBRANCH   6  18
BRANCH   1  20
ATOM     20  N   UNL     1       7.179   7.162  17.731  0.00  0.00    +0.000 N 
BRANCH  20  22
ATOM     21  C   UNL     1       8.416   9.299  18.183  0.00  0.00    +0.000 C 
ATOM     22  C   UNL     1       7.326   8.585  17.401  0.00  0.00    +0.000 C 
ENDBRANCH  20  22
BRANCH  20  23
ATOM     23  C   UNL     1       8.162   6.580  18.662  0.00  0.00    +0.000 C 
ATOM     24  C   UNL     1       7.524   5.730  19.752  0.00  0.00    +0.000 C 
ENDBRANCH  20  23
ENDBRANCH   1  20
TORSDOF 7
ENDMDL
MODEL 5
REMARK VINA RESULT:      -5.4      4.785      7.458
REMARK  Name = 
REMARK  9 active torsions:
REMARK  status: ('A' for Active; 'I' for Inactive)
REMARK    1  A    between atoms: C_1  and  C_2
REMARK    2  A    between atoms: C_2  and  N_3
REMARK    3  A    between atoms: N_3  and  C_4
REMARK    4  A    between atoms: N_3  and  C_6
REMARK    5  A    between atoms: C_4  and  C_5
REMARK    6  A    between atoms: C_8  and  C_9
REMARK    7  A    between atoms: C_15  and  C_16
REMARK    8  A    between atoms: C_18  and  N_19
REMARK    9  A    between atoms: C_20  and  C_21
REMARK                            x       y       z     vdW  Elec       q    Type
REMARK                         _______ _______ _______ _____ _____    ______ ____
ROOT
ATOM      1  C   UNL     1       2.152   5.457  19.655  0.00  0.00    +0.000 A 
ATOM      2  N   UNL     1       1.630   6.478  20.386  0.00  0.00    +0.000 NA
ATOM      3  C   UNL     1       1.715   7.768  19.943  0.00  0.00    +0.000 A 
ATOM      4  C   UNL     1       2.378   8.077  18.749  0.00  0.00    +0.000 A 
ATOM      5  C   UNL     1       3.033   7.058  18.033  0.00  0.00    +0.000 A 
ATOM      6  C   UNL     1       2.871   5.728  18.479  0.00  0.00    +0.000 A 
ENDROOT
BRANCH   3   7
ATOM      7  C   UNL     1       0.976   8.767  20.769  0.00  0.00    +0.000 A 
ATOM      8  C   UNL     1       0.053   9.677  20.217  0.00  0.00    +0.000 A 
ATOM      9  C   UNL     1      -0.762  10.483  21.019  0.00  0.00    +0.000 A 
ATOM     10  C   UNL     1      -0.623  10.455  22.400  0.00  0.00    +0.000 A 
ATOM     11  C   UNL     1       0.343   9.635  22.974  0.00  0.00    +0.000 A 
ATOM     12  C   UNL     1       1.131   8.801  22.168  0.00  0.00    +0.000 A 
ENDBRANCH   3   7
BRANCH   5  13
ATOM     13  N   UNL     1       3.623   7.330  16.771  0.00  0.00    +0.000 N 
ATOM     14  H   UNL     1       3.409   6.676  16.020  0.00  0.00    +0.000 HD
ATOM     15  H   UNL     1       3.571   8.296  16.444  0.00  0.00    +0.000 HD
ENDBRANCH   5  13
BRANCH   4  16
ATOM     16  C   UNL     1       2.394   9.409  18.211  0.00  0.00    +0.000 C 
ATOM     17  N   UNL     1       2.402  10.451  17.707  0.00  0.00    +0.000 NA
ENDBRANCH   4  16
BRANCH   6  18
ATOM     18  C   UNL     1       3.505   4.680  17.734  0.00  0.00    +0.000 C 
ATOM     19  N   UNL     1       4.034   3.885  17.073  0.00  0.00    +0.000 NA
ENDBRANCH   6  18
BRANCH   1  20
ATOM     20  N   UNL     1       1.920   4.158  20.102  0.00  0.00    +0.000 N 
BRANCH  20  22
ATOM     21  C   UNL     1       1.858   2.563  22.040  0.00  0.00    +0.000 C 
ATOM     22  C   UNL     1       2.557   3.724  21.351  0.00  0.00    +0.000 C 
ENDBRANCH  20  22
BRANCH  20  23
ATOM     23  C   UNL     1       0.701   3.445  19.683  0.00  0.00    +0.000 C 
ATOM     24  C   UNL     1       0.967   2.358  18.651  0.00  0.00    +0.000 C 
ENDBRANCH  20  23
ENDBRANCH   1  20
TORSDOF 7
ENDMDL
MODEL 6
REMARK VINA RESULT:      -5.4      0.326      1.267
REMARK  Name = 
REMARK  9 active torsions:
REMARK  status: ('A' for Active; 'I' for Inactive)
REMARK    1  A    between atoms: C_1  and  C_2
REMARK    2  A    between atoms: C_2  and  N_3
REMARK    3  A    between atoms: N_3  and  C_4
REMARK    4  A    between atoms: N_3  and  C_6
REMARK    5  A    between atoms: C_4  and  C_5
REMARK    6  A    between atoms: C_8  and  C_9
REMARK    7  A    between atoms: C_15  and  C_16
REMARK    8  A    between atoms: C_18  and  N_19
REMARK    9  A    between atoms: C_20  and  C_21
REMARK                            x       y       z     vdW  Elec       q    Type
REMARK                         _______ _______ _______ _____ _____    ______ ____
ROOT
ATOM      1  C   UNL     1       5.784   3.946  14.107  0.00  0.00    +0.000 A 
ATOM      2  N   UNL     1       4.889   3.424  14.989  0.00  0.00    +0.000 NA
ATOM      3  C   UNL     1       4.844   3.865  16.282  0.00  0.00    +0.000 A 
ATOM      4  C   UNL     1       5.744   4.834  16.744  0.00  0.00    +0.000 A 
ATOM      5  C   UNL     1       6.758   5.304  15.889  0.00  0.00    +0.000 A 
ATOM      6  C   UNL     1       6.738   4.881  14.543  0.00  0.00    +0.000 A 
ENDROOT
BRANCH   3   7
ATOM      7  C   UNL     1       3.724   3.312  17.096  0.00  0.00    +0.000 A 
ATOM      8  C   UNL     1       3.841   2.121  17.841  0.00  0.00    +0.000 A 
ATOM      9  C   UNL     1       2.850   1.708  18.739  0.00  0.00    +0.000 A 
ATOM     10  C   UNL     1       1.676   2.439  18.862  0.00  0.00    +0.000 A 
ATOM     11  C   UNL     1       1.488   3.570  18.073  0.00  0.00    +0.000 A 
ATOM     12  C   UNL     1       2.500   4.000  17.204  0.00  0.00    +0.000 A 
ENDBRANCH   3   7
BRANCH   5  13
ATOM     13  N   UNL     1       7.616   6.357  16.303  0.00  0.00    +0.000 N 
ATOM     14  H   UNL     1       7.217   7.295  16.297  0.00  0.00    +0.000 HD
ATOM     15  H   UNL     1       8.160   6.194  17.151  0.00  0.00    +0.000 HD
ENDBRANCH   5  13
BRANCH   4  16
ATOM     16  C   UNL     1       5.652   5.387  18.066  0.00  0.00    +0.000 C 
ATOM     17  N   UNL     1       5.557   5.763  19.157  0.00  0.00    +0.000 NA
ENDBRANCH   4  16
BRANCH   6  18
ATOM     18  C   UNL     1       7.746   5.384  13.657  0.00  0.00    +0.000 C 
ATOM     19  N   UNL     1       8.595   5.831  13.002  0.00  0.00    +0.000 NA
ENDBRANCH   6  18
BRANCH   1  20
ATOM     20  N   UNL     1       5.691   3.542  12.777  0.00  0.00    +0.000 N 
BRANCH  20  22
ATOM     21  C   UNL     1       3.812   3.148  11.159  0.00  0.00    +0.000 C 
ATOM     22  C   UNL     1       4.655   4.149  11.933  0.00  0.00    +0.000 C 
ENDBRANCH  20  22
BRANCH  20  23
ATOM     23  C   UNL     1       6.870   2.977  12.098  0.00  0.00    +0.000 C 
ATOM     24  C   UNL     1       6.585   1.650  11.408  0.00  0.00    +0.000 C 
ENDBRANCH  20  23
ENDBRANCH   1  20
TORSDOF 7
ENDMDL
MODEL 7
REMARK VINA RESULT:      -5.3      2.613      7.251
REMARK  Name = 
REMARK  9 active torsions:
REMARK  status: ('A' for Active; 'I' for Inactive)
REMARK    1  A    between atoms: C_1  and  C_2
REMARK    2  A    between atoms: C_2  and  N_3
REMARK    3  A    between atoms: N_3  and  C_4
REMARK    4  A    between atoms: N_3  and  C_6
REMARK    5  A    between atoms: C_4  and  C_5
REMARK    6  A    between atoms: C_8  and  C_9
REMARK    7  A    between atoms: C_15  and  C_16
REMARK    8  A    between atoms: C_18  and  N_19
REMARK    9  A    between atoms: C_20  and  C_21
REMARK                            x       y       z     vdW  Elec       q    Type
REMARK                         _______ _______ _______ _____ _____    ______ ____
ROOT
ATOM      1  C   UNL     1       3.145   4.299  19.458  0.00  0.00    +0.000 A 
ATOM      2  N   UNL     1       4.319   4.976  19.346  0.00  0.00    +0.000 NA
ATOM      3  C   UNL     1       4.995   5.009  18.158  0.00  0.00    +0.000 A 
ATOM      4  C   UNL     1       4.519   4.313  17.039  0.00  0.00    +0.000 A 
ATOM      5  C   UNL     1       3.372   3.506  17.158  0.00  0.00    +0.000 A 
ATOM      6  C   UNL     1       2.660   3.545  18.377  0.00  0.00    +0.000 A 
ENDROOT
BRANCH   3   7
ATOM      7  C   UNL     1       6.189   5.903  18.138  0.00  0.00    +0.000 A 
ATOM      8  C   UNL     1       6.278   7.033  17.299  0.00  0.00    +0.000 A 
ATOM      9  C   UNL     1       7.319   7.961  17.416  0.00  0.00    +0.000 A 
ATOM     10  C   UNL     1       8.343   7.745  18.329  0.00  0.00    +0.000 A 
ATOM     11  C   UNL     1       8.333   6.592  19.108  0.00  0.00    +0.000 A 
ATOM     12  C   UNL     1       7.268   5.685  19.014  0.00  0.00    +0.000 A 
ENDBRANCH   3   7
BRANCH   5  13
ATOM     13  N   UNL     1       2.815   2.874  16.015  0.00  0.00    +0.000 N 
ATOM     14  H   UNL     1       2.198   3.444  15.438  0.00  0.00    +0.000 HD
ATOM     15  H   UNL     1       3.458   2.328  15.440  0.00  0.00    +0.000 HD
ENDBRANCH   5  13
BRANCH   4  16
ATOM     16  C   UNL     1       5.154   4.413  15.755  0.00  0.00    +0.000 C 
ATOM     17  N   UNL     1       5.721   4.538  14.753  0.00  0.00    +0.000 NA
ENDBRANCH   4  16
BRANCH   6  18
ATOM     18  C   UNL     1       1.470   2.754  18.493  0.00  0.00    +0.000 C 
ATOM     19  N   UNL     1       0.477   2.153  18.525  0.00  0.00    +0.000 NA
ENDBRANCH   6  18
BRANCH   1  20
ATOM     20  N   UNL     1       2.447   4.412  20.659  0.00  0.00    +0.000 N 
BRANCH  20  22
ATOM     21  C   UNL     1       1.551   6.756  20.705  0.00  0.00    +0.000 C 
ATOM     22  C   UNL     1       1.254   5.266  20.697  0.00  0.00    +0.000 C 
ENDBRANCH  20  22
BRANCH  20  23
ATOM     23  C   UNL     1       2.544   3.341  21.666  0.00  0.00    +0.000 C 
ATOM     24  C   UNL     1       1.214   2.651  21.936  0.00  0.00    +0.000 C 
ENDBRANCH  20  23
ENDBRANCH   1  20
TORSDOF 7
ENDMDL
MODEL 8
REMARK VINA RESULT:      -5.3      0.341      1.626
REMARK  Name = 
REMARK  9 active torsions:
REMARK  status: ('A' for Active; 'I' for Inactive)
REMARK    1  A    between atoms: C_1  and  C_2
REMARK    2  A    between atoms: C_2  and  N_3
REMARK    3  A    between atoms: N_3  and  C_4
REMARK    4  A    between atoms: N_3  and  C_6
REMARK    5  A    between atoms: C_4  and  C_5
REMARK    6  A    between atoms: C_8  and  C_9
REMARK    7  A    between atoms: C_15  and  C_16
REMARK    8  A    between atoms: C_18  and  N_19
REMARK    9  A    between atoms: C_20  and  C_21
REMARK                            x       y       z     vdW  Elec       q    Type
REMARK                         _______ _______ _______ _____ _____    ______ ____
ROOT
ATOM      1  C   UNL     1       5.769   3.966  14.137  0.00  0.00    +0.000 A 
ATOM      2  N   UNL     1       4.883   3.481  15.048  0.00  0.00    +0.000 NA
ATOM      3  C   UNL     1       4.876   3.947  16.333  0.00  0.00    +0.000 A 
ATOM      4  C   UNL     1       5.808   4.904  16.756  0.00  0.00    +0.000 A 
ATOM      5  C   UNL     1       6.813   5.335  15.871  0.00  0.00    +0.000 A 
ATOM      6  C   UNL     1       6.753   4.887  14.534  0.00  0.00    +0.000 A 
ENDROOT
BRANCH   3   7
ATOM      7  C   UNL     1       3.763   3.434  17.183  0.00  0.00    +0.000 A 
ATOM      8  C   UNL     1       2.550   4.133  17.350  0.00  0.00    +0.000 A 
ATOM      9  C   UNL     1       1.450   3.562  18.000  0.00  0.00    +0.000 A 
ATOM     10  C   UNL     1       1.558   2.299  18.568  0.00  0.00    +0.000 A 
ATOM     11  C   UNL     1       2.770   1.620  18.502  0.00  0.00    +0.000 A 
ATOM     12  C   UNL     1       3.857   2.180  17.816  0.00  0.00    +0.000 A 
ENDBRANCH   3   7
BRANCH   5  13
ATOM     13  N   UNL     1       7.703   6.376  16.245  0.00  0.00    +0.000 N 
ATOM     14  H   UNL     1       7.880   6.484  17.243  0.00  0.00    +0.000 HD
ATOM     15  H   UNL     1       8.567   6.449  15.708  0.00  0.00    +0.000 HD
ENDBRANCH   5  13
BRANCH   4  16
ATOM     16  C   UNL     1       5.758   5.483  18.069  0.00  0.00    +0.000 C 
ATOM     17  N   UNL     1       5.766   5.894  19.152  0.00  0.00    +0.000 NA
ENDBRANCH   4  16
BRANCH   6  18
ATOM     18  C   UNL     1       7.752   5.351  13.617  0.00  0.00    +0.000 C 
ATOM     19  N   UNL     1       8.559   5.798  12.910  0.00  0.00    +0.000 NA
ENDBRANCH   6  18
BRANCH   1  20
ATOM     20  N   UNL     1       5.637   3.539  12.817  0.00  0.00    +0.000 N 
BRANCH  20  22
ATOM     21  C   UNL     1       3.777   3.205  11.165  0.00  0.00    +0.000 C 
ATOM     22  C   UNL     1       4.618   4.177  11.975  0.00  0.00    +0.000 C 
ENDBRANCH  20  22
BRANCH  20  23
ATOM     23  C   UNL     1       6.778   2.905  12.134  0.00  0.00    +0.000 C 
ATOM     24  C   UNL     1       6.412   1.598  11.445  0.00  0.00    +0.000 C 
ENDBRANCH  20  23
ENDBRANCH   1  20
TORSDOF 7
ENDMDL
MODEL 9
REMARK VINA RESULT:      -5.2      4.542      6.680
REMARK  Name = 
REMARK  9 active torsions:
REMARK  status: ('A' for Active; 'I' for Inactive)
REMARK    1  A    between atoms: C_1  and  C_2
REMARK    2  A    between atoms: C_2  and  N_3
REMARK    3  A    between atoms: N_3  and  C_4
REMARK    4  A    between atoms: N_3  and  C_6
REMARK    5  A    between atoms: C_4  and  C_5
REMARK    6  A    between atoms: C_8  and  C_9
REMARK    7  A    between atoms: C_15  and  C_16
REMARK    8  A    between atoms: C_18  and  N_19
REMARK    9  A    between atoms: C_20  and  C_21
REMARK                            x       y       z     vdW  Elec       q    Type
REMARK                         _______ _______ _______ _____ _____    ______ ____
ROOT
ATOM      1  C   UNL     1       4.140   6.802  17.882  0.00  0.00    +0.000 A 
ATOM      2  N   UNL     1       3.345   7.894  17.722  0.00  0.00    +0.000 NA
ATOM      3  C   UNL     1       2.347   8.168  18.615  0.00  0.00    +0.000 A 
ATOM      4  C   UNL     1       2.088   7.309  19.691  0.00  0.00    +0.000 A 
ATOM      5  C   UNL     1       2.813   6.110  19.813  0.00  0.00    +0.000 A 
ATOM      6  C   UNL     1       3.881   5.888  18.917  0.00  0.00    +0.000 A 
ENDROOT
BRANCH   3   7
ATOM      7  C   UNL     1       1.650   9.469  18.399  0.00  0.00    +0.000 A 
ATOM      8  C   UNL     1       0.255   9.564  18.217  0.00  0.00    +0.000 A 
ATOM      9  C   UNL     1      -0.406  10.797  18.195  0.00  0.00    +0.000 A 
ATOM     10  C   UNL     1       0.320  11.977  18.282  0.00  0.00    +0.000 A 
ATOM     11  C   UNL     1       1.708  11.921  18.370  0.00  0.00    +0.000 A 
ATOM     12  C   UNL     1       2.363  10.683  18.430  0.00  0.00    +0.000 A 
ENDBRANCH   3   7
BRANCH   5  13
ATOM     13  N   UNL     1       2.638   5.277  20.950  0.00  0.00    +0.000 N 
ATOM     14  H   UNL     1       2.860   4.289  20.826  0.00  0.00    +0.000 HD
ATOM     15  H   UNL     1       3.009   5.630  21.833  0.00  0.00    +0.000 HD
ENDBRANCH   5  13
BRANCH   4  16
ATOM     16  C   UNL     1       1.114   7.626  20.697  0.00  0.00    +0.000 C 
ATOM     17  N   UNL     1       0.352   7.818  21.548  0.00  0.00    +0.000 NA
ENDBRANCH   4  16
BRANCH   6  18
ATOM     18  C   UNL     1       4.648   4.685  19.058  0.00  0.00    +0.000 C 
ATOM     19  N   UNL     1       5.273   3.725  19.252  0.00  0.00    +0.000 NA
ENDBRANCH   6  18
BRANCH   1  20
ATOM     20  N   UNL     1       5.216   6.653  17.009  0.00  0.00    +0.000 N 
BRANCH  20  22
ATOM     21  C   UNL     1       5.517   4.856  15.283  0.00  0.00    +0.000 C 
ATOM     22  C   UNL     1       4.945   6.219  15.633  0.00  0.00    +0.000 C 
ENDBRANCH  20  22
BRANCH  20  23
ATOM     23  C   UNL     1       6.463   7.399  17.249  0.00  0.00    +0.000 C 
ATOM     24  C   UNL     1       7.524   6.577  17.969  0.00  0.00    +0.000 C 
ENDBRANCH  20  23
ENDBRANCH   1  20
TORSDOF 7
ENDMDL
