MODEL 1
REMARK VINA RESULT:      -7.4      0.000      0.000
REMARK  Name = 
REMARK  10 active torsions:
REMARK  status: ('A' for Active; 'I' for Inactive)
REMARK    1  A    between atoms: C_1  and  O_2
REMARK    2  A    between atoms: O_2  and  C_3
REMARK    3  A    between atoms: C_6  and  C_7
REMARK    4  A    between atoms: C_7  and  N_8
REMARK    5  A    between atoms: N_8  and  C_9
REMARK    6  A    between atoms: C_9  and  O_10
REMARK    7  A    between atoms: C_9  and  C_11
REMARK    8  A    between atoms: C_16  and  C_17
REMARK    9  A    between atoms: C_23  and  O_24
REMARK   10  A    between atoms: O_24  and  C_25
REMARK                            x       y       z     vdW  Elec       q    Type
REMARK                         _______ _______ _______ _____ _____    ______ ____
ROOT
ATOM      1  C   UNL     1       2.954   6.257  18.864  0.00  0.00    +0.000 C 
ENDROOT
BRANCH   1   2
ATOM      2  C   UNL     1       2.614   4.770  18.635  0.00  0.00    +0.000 A 
ATOM      3  C   UNL     1       1.419   4.266  19.231  0.00  0.00    +0.000 A 
ATOM      4  C   UNL     1       0.993   2.944  19.091  0.00  0.00    +0.000 A 
ATOM      5  C   UNL     1       1.759   2.070  18.351  0.00  0.00    +0.000 A 
ATOM      6  C   UNL     1       2.942   2.526  17.763  0.00  0.00    +0.000 A 
ATOM      7  C   UNL     1       3.422   3.861  17.887  0.00  0.00    +0.000 A 
BRANCH   7   8
ATOM      8  C   UNL     1       4.742   4.172  17.245  0.00  0.00    +0.000 A 
ATOM      9  C   UNL     1       4.948   4.210  15.860  0.00  0.00    +0.000 A 
ATOM     10  C   UNL     1       6.195   4.517  15.296  0.00  0.00    +0.000 A 
ATOM     11  C   UNL     1       7.300   4.728  16.109  0.00  0.00    +0.000 A 
ATOM     12  C   UNL     1       7.154   4.649  17.487  0.00  0.00    +0.000 A 
ATOM     13  C   UNL     1       5.891   4.398  18.041  0.00  0.00    +0.000 A 
ENDBRANCH   7   8
ENDBRANCH   1   2
BRANCH   1  14
ATOM     14  N   UNL     1       1.958   7.137  18.282  0.00  0.00    +0.000 NA
ATOM     15  H   UNL     1       1.873   6.849  17.308  0.00  0.00    +0.000 HD
BRANCH  14  16
ATOM     16  C   UNL     1       2.248   8.569  18.253  0.00  0.00    +0.000 C 
BRANCH  16  20
ATOM     17  C   UNL     1      -1.233  10.910  19.442  0.00  0.00    +0.000 A 
ATOM     18  C   UNL     1      -0.934  10.728  18.100  0.00  0.00    +0.000 A 
ATOM     19  C   UNL     1       0.168   9.964  17.722  0.00  0.00    +0.000 A 
ATOM     20  C   UNL     1       1.020   9.372  18.684  0.00  0.00    +0.000 A 
ATOM     21  C   UNL     1       0.687   9.523  20.044  0.00  0.00    +0.000 A 
ATOM     22  C   UNL     1      -0.432  10.289  20.411  0.00  0.00    +0.000 A 
BRANCH  17  24
ATOM     23  C   UNL     1      -3.291  11.722  18.638  0.00  0.00    +0.000 C 
ATOM     24  O   UNL     1      -2.347  11.653  19.698  0.00  0.00    +0.000 OA
ENDBRANCH  17  24
BRANCH  21  25
ATOM     25  O   UNL     1       1.512   8.889  20.940  0.00  0.00    +0.000 OA
ATOM     26  C   UNL     1       1.238   9.092  22.324  0.00  0.00    +0.000 C 
ENDBRANCH  21  25
ENDBRANCH  16  20
ENDBRANCH  14  16
ENDBRANCH   1  14
BRANCH   1  27
ATOM     27  O   UNL     1       3.040   6.509  20.241  0.00  0.00    +0.000 OA
ATOM     28  H   UNL     1       2.303   5.991  20.608  0.00  0.00    +0.000 HD
ENDBRANCH   1  27
TORSDOF 8
ENDMDL
MODEL 2
REMARK VINA RESULT:      -7.4      3.519      6.839
REMARK  Name = 
REMARK  10 active torsions:
REMARK  status: ('A' for Active; 'I' for Inactive)
REMARK    1  A    between atoms: C_1  and  O_2
REMARK    2  A    between atoms: O_2  and  C_3
REMARK    3  A    between atoms: C_6  and  C_7
REMARK    4  A    between atoms: C_7  and  N_8
REMARK    5  A    between atoms: N_8  and  C_9
REMARK    6  A    between atoms: C_9  and  O_10
REMARK    7  A    between atoms: C_9  and  C_11
REMARK    8  A    between atoms: C_16  and  C_17
REMARK    9  A    between atoms: C_23  and  O_24
REMARK   10  A    between atoms: O_24  and  C_25
REMARK                            x       y       z     vdW  Elec       q    Type
REMARK                         _______ _______ _______ _____ _____    ______ ____
ROOT
ATOM      1  C   UNL     1       2.055   3.488  17.650  0.00  0.00    +0.000 C 
ENDROOT
BRANCH   1   2
ATOM      2  C   UNL     1       2.172   3.597  19.185  0.00  0.00    +0.000 A 
ATOM      3  C   UNL     1       2.118   2.387  19.939  0.00  0.00    +0.000 A 
ATOM      4  C   UNL     1       2.223   2.348  21.330  0.00  0.00    +0.000 A 
ATOM      5  C   UNL     1       2.376   3.529  22.022  0.00  0.00    +0.000 A 
ATOM      6  C   UNL     1       2.421   4.734  21.317  0.00  0.00    +0.000 A 
ATOM      7  C   UNL     1       2.307   4.826  19.900  0.00  0.00    +0.000 A 
BRANCH   7   8
ATOM      8  C   UNL     1       2.313   6.202  19.303  0.00  0.00    +0.000 A 
ATOM      9  C   UNL     1       2.928   6.524  18.086  0.00  0.00    +0.000 A 
ATOM     10  C   UNL     1       2.902   7.822  17.554  0.00  0.00    +0.000 A 
ATOM     11  C   UNL     1       2.314   8.860  18.265  0.00  0.00    +0.000 A 
ATOM     12  C   UNL     1       1.738   8.596  19.499  0.00  0.00    +0.000 A 
ATOM     13  C   UNL     1       1.719   7.286  19.996  0.00  0.00    +0.000 A 
ENDBRANCH   7   8
ENDBRANCH   1   2
BRANCH   1  14
ATOM     14  N   UNL     1       3.250   3.963  16.980  0.00  0.00    +0.000 NA
ATOM     15  H   UNL     1       3.114   3.751  15.992  0.00  0.00    +0.000 HD
BRANCH  14  16
ATOM     16  C   UNL     1       4.526   3.355  17.348  0.00  0.00    +0.000 C 
BRANCH  16  20
ATOM     17  C   UNL     1       7.463   6.460  18.211  0.00  0.00    +0.000 A 
ATOM     18  C   UNL     1       6.957   5.669  19.232  0.00  0.00    +0.000 A 
ATOM     19  C   UNL     1       6.033   4.665  18.952  0.00  0.00    +0.000 A 
ATOM     20  C   UNL     1       5.570   4.435  17.634  0.00  0.00    +0.000 A 
ATOM     21  C   UNL     1       6.120   5.213  16.595  0.00  0.00    +0.000 A 
ATOM     22  C   UNL     1       7.058   6.216  16.892  0.00  0.00    +0.000 A 
BRANCH  17  24
ATOM     23  C   UNL     1       8.224   8.679  18.008  0.00  0.00    +0.000 C 
ATOM     24  O   UNL     1       8.380   7.395  18.594  0.00  0.00    +0.000 OA
ENDBRANCH  17  24
BRANCH  21  25
ATOM     25  O   UNL     1       5.680   4.921  15.328  0.00  0.00    +0.000 OA
ATOM     26  C   UNL     1       6.629   4.348  14.432  0.00  0.00    +0.000 C 
ENDBRANCH  21  25
ENDBRANCH  16  20
ENDBRANCH  14  16
ENDBRANCH   1  14
BRANCH   1  27
ATOM     27  O   UNL     1       1.829   2.150  17.294  0.00  0.00    +0.000 OA
ATOM     28  H   UNL     1       0.860   2.099  17.225  0.00  0.00    +0.000 HD
ENDBRANCH   1  27
TORSDOF 8
ENDMDL
MODEL 3
REMARK VINA RESULT:      -7.3      1.713      2.713
REMARK  Name = 
REMARK  10 active torsions:
REMARK  status: ('A' for Active; 'I' for Inactive)
REMARK    1  A    between atoms: C_1  and  O_2
REMARK    2  A    between atoms: O_2  and  C_3
REMARK    3  A    between atoms: C_6  and  C_7
REMARK    4  A    between atoms: C_7  and  N_8
REMARK    5  A    between atoms: N_8  and  C_9
REMARK    6  A    between atoms: C_9  and  O_10
REMARK    7  A    between atoms: C_9  and  C_11
REMARK    8  A    between atoms: C_16  and  C_17
REMARK    9  A    between atoms: C_23  and  O_24
REMARK   10  A    between atoms: O_24  and  C_25
REMARK                            x       y       z     vdW  Elec       q    Type
REMARK                         _______ _______ _______ _____ _____    ______ ____
ROOT
ATOM      1  C   UNL     1       2.674   5.818  20.088  0.00  0.00    +0.000 C 
ENDROOT
BRANCH   1   2
ATOM      2  C   UNL     1       2.760   4.601  19.145  0.00  0.00    +0.000 A 
ATOM      3  C   UNL     1       1.686   3.663  19.177  0.00  0.00    +0.000 A 
ATOM      4  C   UNL     1       1.637   2.528  18.367  0.00  0.00    +0.000 A 
ATOM      5  C   UNL     1       2.676   2.283  17.497  0.00  0.00    +0.000 A 
ATOM      6  C   UNL     1       3.751   3.173  17.448  0.00  0.00    +0.000 A 
ATOM      7  C   UNL     1       3.851   4.338  18.261  0.00  0.00    +0.000 A 
BRANCH   7   8
ATOM      8  C   UNL     1       5.101   5.157  18.129  0.00  0.00    +0.000 A 
ATOM      9  C   UNL     1       6.221   5.013  18.958  0.00  0.00    +0.000 A 
ATOM     10  C   UNL     1       7.377   5.790  18.797  0.00  0.00    +0.000 A 
ATOM     11  C   UNL     1       7.422   6.792  17.836  0.00  0.00    +0.000 A 
ATOM     12  C   UNL     1       6.315   7.004  17.026  0.00  0.00    +0.000 A 
ATOM     13  C   UNL     1       5.185   6.185  17.158  0.00  0.00    +0.000 A 
ENDBRANCH   7   8
ENDBRANCH   1   2
BRANCH   1  14
ATOM     14  N   UNL     1       1.591   6.712  19.723  0.00  0.00    +0.000 NA
ATOM     15  H   UNL     1       1.268   6.393  18.811  0.00  0.00    +0.000 HD
BRANCH  14  16
ATOM     16  C   UNL     1       1.902   8.131  19.565  0.00  0.00    +0.000 C 
BRANCH  16  20
ATOM     17  C   UNL     1      -0.432  10.466  22.413  0.00  0.00    +0.000 A 
ATOM     18  C   UNL     1       0.394   9.442  22.854  0.00  0.00    +0.000 A 
ATOM     19  C   UNL     1       1.154   8.709  21.944  0.00  0.00    +0.000 A 
ATOM     20  C   UNL     1       1.093   8.969  20.555  0.00  0.00    +0.000 A 
ATOM     21  C   UNL     1       0.285  10.039  20.117  0.00  0.00    +0.000 A 
ATOM     22  C   UNL     1      -0.468  10.774  21.047  0.00  0.00    +0.000 A 
BRANCH  17  24
ATOM     23  C   UNL     1      -1.794  12.304  22.969  0.00  0.00    +0.000 C 
ATOM     24  O   UNL     1      -1.109  11.134  23.391  0.00  0.00    +0.000 OA
ENDBRANCH  17  24
BRANCH  21  25
ATOM     25  O   UNL     1       0.296  10.287  18.766  0.00  0.00    +0.000 OA
ATOM     26  C   UNL     1      -0.964  10.287  18.101  0.00  0.00    +0.000 C 
ENDBRANCH  21  25
ENDBRANCH  16  20
ENDBRANCH  14  16
ENDBRANCH   1  14
BRANCH   1  27
ATOM     27  O   UNL     1       2.481   5.376  21.405  0.00  0.00    +0.000 OA
ATOM     28  H   UNL     1       1.646   5.805  21.663  0.00  0.00    +0.000 HD
ENDBRANCH   1  27
TORSDOF 8
ENDMDL
MODEL 4
REMARK VINA RESULT:      -7.3      1.970      4.240
REMARK  Name = 
REMARK  10 active torsions:
REMARK  status: ('A' for Active; 'I' for Inactive)
REMARK    1  A    between atoms: C_1  and  O_2
REMARK    2  A    between atoms: O_2  and  C_3
REMARK    3  A    between atoms: C_6  and  C_7
REMARK    4  A    between atoms: C_7  and  N_8
REMARK    5  A    between atoms: N_8  and  C_9
REMARK    6  A    between atoms: C_9  and  O_10
REMARK    7  A    between atoms: C_9  and  C_11
REMARK    8  A    between atoms: C_16  and  C_17
REMARK    9  A    between atoms: C_23  and  O_24
REMARK   10  A    between atoms: O_24  and  C_25
REMARK                            x       y       z     vdW  Elec       q    Type
REMARK                         _______ _______ _______ _____ _____    ______ ____
ROOT
ATOM      1  C   UNL     1       2.223   7.561  18.188  0.00  0.00    +0.000 C 
ENDROOT
BRANCH   1   2
ATOM      2  C   UNL     1       3.496   6.737  17.904  0.00  0.00    +0.000 A 
ATOM      3  C   UNL     1       4.514   7.346  17.112  0.00  0.00    +0.000 A 
ATOM      4  C   UNL     1       5.716   6.712  16.793  0.00  0.00    +0.000 A 
ATOM      5  C   UNL     1       5.939   5.432  17.251  0.00  0.00    +0.000 A 
ATOM      6  C   UNL     1       4.959   4.800  18.019  0.00  0.00    +0.000 A 
ATOM      7  C   UNL     1       3.713   5.402  18.362  0.00  0.00    +0.000 A 
BRANCH   7   8
ATOM      8  C   UNL     1       2.743   4.564  19.142  0.00  0.00    +0.000 A 
ATOM      9  C   UNL     1       1.692   3.842  18.563  0.00  0.00    +0.000 A 
ATOM     10  C   UNL     1       0.812   3.060  19.325  0.00  0.00    +0.000 A 
ATOM     11  C   UNL     1       0.916   3.033  20.710  0.00  0.00    +0.000 A 
ATOM     12  C   UNL     1       1.912   3.774  21.330  0.00  0.00    +0.000 A 
ATOM     13  C   UNL     1       2.821   4.507  20.555  0.00  0.00    +0.000 A 
ENDBRANCH   7   8
ENDBRANCH   1   2
BRANCH   1  14
ATOM     14  N   UNL     1       2.189   8.056  19.551  0.00  0.00    +0.000 NA
ATOM     15  H   UNL     1       3.021   7.676  20.002  0.00  0.00    +0.000 HD
BRANCH  14  16
ATOM     16  C   UNL     1       1.062   7.661  20.392  0.00  0.00    +0.000 C 
BRANCH  16  20
ATOM     17  C   UNL     1      -0.759  11.117  22.330  0.00  0.00    +0.000 A 
ATOM     18  C   UNL     1      -0.265  10.066  23.089  0.00  0.00    +0.000 A 
ATOM     19  C   UNL     1       0.333   8.971  22.468  0.00  0.00    +0.000 A 
ATOM     20  C   UNL     1       0.438   8.887  21.060  0.00  0.00    +0.000 A 
ATOM     21  C   UNL     1      -0.026   9.978  20.297  0.00  0.00    +0.000 A 
ATOM     22  C   UNL     1      -0.620  11.078  20.937  0.00  0.00    +0.000 A 
BRANCH  17  24
ATOM     23  C   UNL     1      -2.669  11.995  23.391  0.00  0.00    +0.000 C 
ATOM     24  O   UNL     1      -1.300  12.147  23.042  0.00  0.00    +0.000 OA
ENDBRANCH  17  24
BRANCH  21  25
ATOM     25  O   UNL     1       0.141   9.876  18.937  0.00  0.00    +0.000 OA
ATOM     26  C   UNL     1      -0.973  10.230  18.123  0.00  0.00    +0.000 C 
ENDBRANCH  21  25
ENDBRANCH  16  20
ENDBRANCH  14  16
ENDBRANCH   1  14
BRANCH   1  27
ATOM     27  O   UNL     1       2.165   8.648  17.303  0.00  0.00    +0.000 OA
ATOM     28  H   UNL     1       1.994   8.225  16.444  0.00  0.00    +0.000 HD
ENDBRANCH   1  27
TORSDOF 8
ENDMDL
MODEL 5
REMARK VINA RESULT:      -7.3      1.658      2.146
REMARK  Name = 
REMARK  10 active torsions:
REMARK  status: ('A' for Active; 'I' for Inactive)
REMARK    1  A    between atoms: C_1  and  O_2
REMARK    2  A    between atoms: O_2  and  C_3
REMARK    3  A    between atoms: C_6  and  C_7
REMARK    4  A    between atoms: C_7  and  N_8
REMARK    5  A    between atoms: N_8  and  C_9
REMARK    6  A    between atoms: C_9  and  O_10
REMARK    7  A    between atoms: C_9  and  C_11
REMARK    8  A    between atoms: C_16  and  C_17
REMARK    9  A    between atoms: C_23  and  O_24
REMARK   10  A    between atoms: O_24  and  C_25
REMARK                            x       y       z     vdW  Elec       q    Type
REMARK                         _______ _______ _______ _____ _____    ______ ____
ROOT
ATOM      1  C   UNL     1       2.929   6.076  20.169  0.00  0.00    +0.000 C 
ENDROOT
BRANCH   1   2
ATOM      2  C   UNL     1       2.917   5.042  19.024  0.00  0.00    +0.000 A 
ATOM      3  C   UNL     1       1.744   4.244  18.867  0.00  0.00    +0.000 A 
ATOM      4  C   UNL     1       1.602   3.282  17.867  0.00  0.00    +0.000 A 
ATOM      5  C   UNL     1       2.641   3.075  16.986  0.00  0.00    +0.000 A 
ATOM      6  C   UNL     1       3.810   3.830  17.118  0.00  0.00    +0.000 A 
ATOM      7  C   UNL     1       4.005   4.815  18.129  0.00  0.00    +0.000 A 
BRANCH   7   8
ATOM      8  C   UNL     1       5.342   5.493  18.169  0.00  0.00    +0.000 A 
ATOM      9  C   UNL     1       6.338   5.204  19.112  0.00  0.00    +0.000 A 
ATOM     10  C   UNL     1       7.581   5.852  19.111  0.00  0.00    +0.000 A 
ATOM     11  C   UNL     1       7.843   6.869  18.202  0.00  0.00    +0.000 A 
ATOM     12  C   UNL     1       6.866   7.224  17.283  0.00  0.00    +0.000 A 
ATOM     13  C   UNL     1       5.647   6.531  17.255  0.00  0.00    +0.000 A 
ENDBRANCH   7   8
ENDBRANCH   1   2
BRANCH   1  14
ATOM     14  N   UNL     1       2.264   7.310  19.793  0.00  0.00    +0.000 NA
ATOM     15  H   UNL     1       2.992   7.905  19.402  0.00  0.00    +0.000 HD
BRANCH  14  16
ATOM     16  C   UNL     1       1.631   8.092  20.851  0.00  0.00    +0.000 C 
BRANCH  16  20
ATOM     17  C   UNL     1      -0.317  11.596  19.136  0.00  0.00    +0.000 A 
ATOM     18  C   UNL     1       0.191  10.602  18.313  0.00  0.00    +0.000 A 
ATOM     19  C   UNL     1       0.796   9.474  18.863  0.00  0.00    +0.000 A 
ATOM     20  C   UNL     1       0.929   9.317  20.263  0.00  0.00    +0.000 A 
ATOM     21  C   UNL     1       0.372  10.309  21.095  0.00  0.00    +0.000 A 
ATOM     22  C   UNL     1      -0.243  11.437  20.526  0.00  0.00    +0.000 A 
BRANCH  17  24
ATOM     23  C   UNL     1      -0.227  13.884  18.586  0.00  0.00    +0.000 C 
ATOM     24  O   UNL     1      -0.911  12.642  18.492  0.00  0.00    +0.000 OA
ENDBRANCH  17  24
BRANCH  21  25
ATOM     25  O   UNL     1       0.480  10.091  22.447  0.00  0.00    +0.000 OA
ATOM     26  C   UNL     1      -0.733  10.075  23.195  0.00  0.00    +0.000 C 
ENDBRANCH  21  25
ENDBRANCH  16  20
ENDBRANCH  14  16
ENDBRANCH   1  14
BRANCH   1  27
ATOM     27  O   UNL     1       2.289   5.534  21.294  0.00  0.00    +0.000 OA
ATOM     28  H   UNL     1       2.872   4.798  21.547  0.00  0.00    +0.000 HD
ENDBRANCH   1  27
TORSDOF 8
ENDMDL
MODEL 6
REMARK VINA RESULT:      -7.3      1.703      2.631
REMARK  Name = 
REMARK  10 active torsions:
REMARK  status: ('A' for Active; 'I' for Inactive)
REMARK    1  A    between atoms: C_1  and  O_2
REMARK    2  A    between atoms: O_2  and  C_3
REMARK    3  A    between atoms: C_6  and  C_7
REMARK    4  A    between atoms: C_7  and  N_8
REMARK    5  A    between atoms: N_8  and  C_9
REMARK    6  A    between atoms: C_9  and  O_10
REMARK    7  A    between atoms: C_9  and  C_11
REMARK    8  A    between atoms: C_16  and  C_17
REMARK    9  A    between atoms: C_23  and  O_24
REMARK   10  A    between atoms: O_24  and  C_25
REMARK                            x       y       z     vdW  Elec       q    Type
REMARK                         _______ _______ _______ _____ _____    ______ ____
ROOT
ATOM      1  C   UNL     1       2.710   7.368  18.721  0.00  0.00    +0.000 C 
ENDROOT
BRANCH   1   2
ATOM      2  C   UNL     1       2.795   5.916  18.209  0.00  0.00    +0.000 A 
ATOM      3  C   UNL     1       1.572   5.198  18.050  0.00  0.00    +0.000 A 
ATOM      4  C   UNL     1       1.512   3.884  17.586  0.00  0.00    +0.000 A 
ATOM      5  C   UNL     1       2.683   3.232  17.271  0.00  0.00    +0.000 A 
ATOM      6  C   UNL     1       3.901   3.899  17.426  0.00  0.00    +0.000 A 
ATOM      7  C   UNL     1       4.014   5.236  17.906  0.00  0.00    +0.000 A 
BRANCH   7   8
ATOM      8  C   UNL     1       5.400   5.785  18.073  0.00  0.00    +0.000 A 
ATOM      9  C   UNL     1       6.296   5.359  19.061  0.00  0.00    +0.000 A 
ATOM     10  C   UNL     1       7.589   5.888  19.179  0.00  0.00    +0.000 A 
ATOM     11  C   UNL     1       8.004   6.920  18.346  0.00  0.00    +0.000 A 
ATOM     12  C   UNL     1       7.130   7.409  17.386  0.00  0.00    +0.000 A 
ATOM     13  C   UNL     1       5.860   6.834  17.240  0.00  0.00    +0.000 A 
ENDBRANCH   7   8
ENDBRANCH   1   2
BRANCH   1  14
ATOM     14  N   UNL     1       1.686   8.128  18.028  0.00  0.00    +0.000 NA
ATOM     15  H   UNL     1       1.690   7.783  17.069  0.00  0.00    +0.000 HD
BRANCH  14  16
ATOM     16  C   UNL     1       1.858   9.576  17.934  0.00  0.00    +0.000 C 
BRANCH  16  20
ATOM     17  C   UNL     1      -1.042  11.590  20.492  0.00  0.00    +0.000 A 
ATOM     18  C   UNL     1       0.304  11.585  20.826  0.00  0.00    +0.000 A 
ATOM     19  C   UNL     1       1.232  10.957  19.998  0.00  0.00    +0.000 A 
ATOM     20  C   UNL     1       0.833  10.294  18.813  0.00  0.00    +0.000 A 
ATOM     21  C   UNL     1      -0.530  10.340  18.456  0.00  0.00    +0.000 A 
ATOM     22  C   UNL     1      -1.452  10.985  19.297  0.00  0.00    +0.000 A 
BRANCH  17  24
ATOM     23  C   UNL     1      -3.093  12.700  20.818  0.00  0.00    +0.000 C 
ATOM     24  O   UNL     1      -1.858  12.255  21.360  0.00  0.00    +0.000 OA
ENDBRANCH  17  24
BRANCH  21  25
ATOM     25  O   UNL     1      -0.863   9.728  17.273  0.00  0.00    +0.000 OA
ATOM     26  C   UNL     1      -2.187   9.937  16.791  0.00  0.00    +0.000 C 
ENDBRANCH  21  25
ENDBRANCH  16  20
ENDBRANCH  14  16
ENDBRANCH   1  14
BRANCH   1  27
ATOM     27  O   UNL     1       2.428   7.364  20.095  0.00  0.00    +0.000 OA
ATOM     28  H   UNL     1       2.491   8.304  20.337  0.00  0.00    +0.000 HD
ENDBRANCH   1  27
TORSDOF 8
ENDMDL
MODEL 7
REMARK VINA RESULT:      -7.2      2.046      2.456
REMARK  Name = 
REMARK  10 active torsions:
REMARK  status: ('A' for Active; 'I' for Inactive)
REMARK    1  A    between atoms: C_1  and  O_2
REMARK    2  A    between atoms: O_2  and  C_3
REMARK    3  A    between atoms: C_6  and  C_7
REMARK    4  A    between atoms: C_7  and  N_8
REMARK    5  A    between atoms: N_8  and  C_9
REMARK    6  A    between atoms: C_9  and  O_10
REMARK    7  A    between atoms: C_9  and  C_11
REMARK    8  A    between atoms: C_16  and  C_17
REMARK    9  A    between atoms: C_23  and  O_24
REMARK   10  A    between atoms: O_24  and  C_25
REMARK                            x       y       z     vdW  Elec       q    Type
REMARK                         _______ _______ _______ _____ _____    ______ ____
ROOT
ATOM      1  C   UNL     1       2.731   7.320  18.790  0.00  0.00    +0.000 C 
ENDROOT
BRANCH   1   2
ATOM      2  C   UNL     1       2.850   5.885  18.237  0.00  0.00    +0.000 A 
ATOM      3  C   UNL     1       1.643   5.143  18.061  0.00  0.00    +0.000 A 
ATOM      4  C   UNL     1       1.612   3.841  17.560  0.00  0.00    +0.000 A 
ATOM      5  C   UNL     1       2.798   3.226  17.224  0.00  0.00    +0.000 A 
ATOM      6  C   UNL     1       4.000   3.918  17.395  0.00  0.00    +0.000 A 
ATOM      7  C   UNL     1       4.083   5.242  17.912  0.00  0.00    +0.000 A 
BRANCH   7   8
ATOM      8  C   UNL     1       5.456   5.820  18.090  0.00  0.00    +0.000 A 
ATOM      9  C   UNL     1       6.013   6.789  17.246  0.00  0.00    +0.000 A 
ATOM     10  C   UNL     1       7.297   7.313  17.452  0.00  0.00    +0.000 A 
ATOM     11  C   UNL     1       8.097   6.828  18.478  0.00  0.00    +0.000 A 
ATOM     12  C   UNL     1       7.606   5.831  19.307  0.00  0.00    +0.000 A 
ATOM     13  C   UNL     1       6.300   5.354  19.128  0.00  0.00    +0.000 A 
ENDBRANCH   7   8
ENDBRANCH   1   2
BRANCH   1  14
ATOM     14  N   UNL     1       1.777   8.114  18.040  0.00  0.00    +0.000 NA
ATOM     15  H   UNL     1       1.718   7.676  17.121  0.00  0.00    +0.000 HD
BRANCH  14  16
ATOM     16  C   UNL     1       2.100   9.517  17.795  0.00  0.00    +0.000 C 
BRANCH  16  20
ATOM     17  C   UNL     1      -0.558  12.091  20.102  0.00  0.00    +0.000 A 
ATOM     18  C   UNL     1      -0.830  10.738  19.972  0.00  0.00    +0.000 A 
ATOM     19  C   UNL     1       0.031   9.913  19.250  0.00  0.00    +0.000 A 
ATOM     20  C   UNL     1       1.186  10.428  18.617  0.00  0.00    +0.000 A 
ATOM     21  C   UNL     1       1.481  11.795  18.788  0.00  0.00    +0.000 A 
ATOM     22  C   UNL     1       0.608  12.612  19.526  0.00  0.00    +0.000 A 
BRANCH  17  24
ATOM     23  C   UNL     1      -2.799  12.750  20.399  0.00  0.00    +0.000 C 
ATOM     24  O   UNL     1      -1.452  12.799  20.850  0.00  0.00    +0.000 OA
ENDBRANCH  17  24
BRANCH  21  25
ATOM     25  O   UNL     1       2.639  12.240  18.198  0.00  0.00    +0.000 OA
ATOM     26  C   UNL     1       2.964  13.616  18.374  0.00  0.00    +0.000 C 
ENDBRANCH  21  25
ENDBRANCH  16  20
ENDBRANCH  14  16
ENDBRANCH   1  14
BRANCH   1  27
ATOM     27  O   UNL     1       2.332   7.271  20.134  0.00  0.00    +0.000 OA
ATOM     28  H   UNL     1       2.746   6.453  20.459  0.00  0.00    +0.000 HD
ENDBRANCH   1  27
TORSDOF 8
ENDMDL
MODEL 8
REMARK VINA RESULT:      -7.2      1.997      2.573
REMARK  Name = 
REMARK  10 active torsions:
REMARK  status: ('A' for Active; 'I' for Inactive)
REMARK    1  A    between atoms: C_1  and  O_2
REMARK    2  A    between atoms: O_2  and  C_3
REMARK    3  A    between atoms: C_6  and  C_7
REMARK    4  A    between atoms: C_7  and  N_8
REMARK    5  A    between atoms: N_8  and  C_9
REMARK    6  A    between atoms: C_9  and  O_10
REMARK    7  A    between atoms: C_9  and  C_11
REMARK    8  A    between atoms: C_16  and  C_17
REMARK    9  A    between atoms: C_23  and  O_24
REMARK   10  A    between atoms: O_24  and  C_25
REMARK                            x       y       z     vdW  Elec       q    Type
REMARK                         _______ _______ _______ _____ _____    ______ ____
ROOT
ATOM      1  C   UNL     1       2.697   5.774  20.131  0.00  0.00    +0.000 C 
ENDROOT
BRANCH   1   2
ATOM      2  C   UNL     1       2.804   4.609  19.126  0.00  0.00    +0.000 A 
ATOM      3  C   UNL     1       1.750   3.647  19.114  0.00  0.00    +0.000 A 
ATOM      4  C   UNL     1       1.722   2.554  18.248  0.00  0.00    +0.000 A 
ATOM      5  C   UNL     1       2.762   2.377  17.362  0.00  0.00    +0.000 A 
ATOM      6  C   UNL     1       3.817   3.292  17.354  0.00  0.00    +0.000 A 
ATOM      7  C   UNL     1       3.895   4.416  18.225  0.00  0.00    +0.000 A 
BRANCH   7   8
ATOM      8  C   UNL     1       5.127   5.267  18.131  0.00  0.00    +0.000 A 
ATOM      9  C   UNL     1       5.320   6.258  17.160  0.00  0.00    +0.000 A 
ATOM     10  C   UNL     1       6.481   7.042  17.110  0.00  0.00    +0.000 A 
ATOM     11  C   UNL     1       7.525   6.809  17.996  0.00  0.00    +0.000 A 
ATOM     12  C   UNL     1       7.398   5.802  18.943  0.00  0.00    +0.000 A 
ATOM     13  C   UNL     1       6.210   5.062  19.020  0.00  0.00    +0.000 A 
ENDBRANCH   7   8
ENDBRANCH   1   2
BRANCH   1  14
ATOM     14  N   UNL     1       1.617   6.682  19.796  0.00  0.00    +0.000 NA
ATOM     15  H   UNL     1       1.213   6.321  18.933  0.00  0.00    +0.000 HD
BRANCH  14  16
ATOM     16  C   UNL     1       1.958   8.077  19.526  0.00  0.00    +0.000 C 
BRANCH  16  20
ATOM     17  C   UNL     1      -0.123  10.668  22.349  0.00  0.00    +0.000 A 
ATOM     18  C   UNL     1       0.253   9.385  22.719  0.00  0.00    +0.000 A 
ATOM     19  C   UNL     1       0.934   8.565  21.822  0.00  0.00    +0.000 A 
ATOM     20  C   UNL     1       1.244   9.002  20.513  0.00  0.00    +0.000 A 
ATOM     21  C   UNL     1       0.898  10.321  20.157  0.00  0.00    +0.000 A 
ATOM     22  C   UNL     1       0.219  11.139  21.075  0.00  0.00    +0.000 A 
BRANCH  17  24
ATOM     23  C   UNL     1      -2.084  11.800  22.994  0.00  0.00    +0.000 C 
ATOM     24  O   UNL     1      -0.762  11.391  23.313  0.00  0.00    +0.000 OA
ENDBRANCH  17  24
BRANCH  21  25
ATOM     25  O   UNL     1       1.263  10.720  18.894  0.00  0.00    +0.000 OA
ATOM     26  C   UNL     1       1.662  12.079  18.737  0.00  0.00    +0.000 C 
ENDBRANCH  21  25
ENDBRANCH  16  20
ENDBRANCH  14  16
ENDBRANCH   1  14
BRANCH   1  27
ATOM     27  O   UNL     1       2.482   5.261  21.419  0.00  0.00    +0.000 OA
ATOM     28  H   UNL     1       3.351   5.362  21.845  0.00  0.00    +0.000 HD
ENDBRANCH   1  27
TORSDOF 8
ENDMDL
MODEL 9
REMARK VINA RESULT:      -7.1      1.526      1.642
REMARK  Name = 
REMARK  10 active torsions:
REMARK  status: ('A' for Active; 'I' for Inactive)
REMARK    1  A    between atoms: C_1  and  O_2
REMARK    2  A    between atoms: O_2  and  C_3
REMARK    3  A    between atoms: C_6  and  C_7
REMARK    4  A    between atoms: C_7  and  N_8
REMARK    5  A    between atoms: N_8  and  C_9
REMARK    6  A    between atoms: C_9  and  O_10
REMARK    7  A    between atoms: C_9  and  C_11
REMARK    8  A    between atoms: C_16  and  C_17
REMARK    9  A    between atoms: C_23  and  O_24
REMARK   10  A    between atoms: O_24  and  C_25
REMARK                            x       y       z     vdW  Elec       q    Type
REMARK                         _______ _______ _______ _____ _____    ______ ____
ROOT
ATOM      1  C   UNL     1       2.383   7.234  19.864  0.00  0.00    +0.000 C 
ENDROOT
BRANCH   1   2
ATOM      2  C   UNL     1       2.411   5.692  19.873  0.00  0.00    +0.000 A 
ATOM      3  C   UNL     1       1.344   5.015  20.535  0.00  0.00    +0.000 A 
ATOM      4  C   UNL     1       1.246   3.625  20.605  0.00  0.00    +0.000 A 
ATOM      5  C   UNL     1       2.227   2.856  20.019  0.00  0.00    +0.000 A 
ATOM      6  C   UNL     1       3.294   3.484  19.372  0.00  0.00    +0.000 A 
ATOM      7  C   UNL     1       3.442   4.898  19.284  0.00  0.00    +0.000 A 
BRANCH   7   8
ATOM      8  C   UNL     1       4.679   5.413  18.608  0.00  0.00    +0.000 A 
ATOM      9  C   UNL     1       4.696   5.951  17.315  0.00  0.00    +0.000 A 
ATOM     10  C   UNL     1       5.871   6.433  16.720  0.00  0.00    +0.000 A 
ATOM     11  C   UNL     1       7.088   6.325  17.380  0.00  0.00    +0.000 A 
ATOM     12  C   UNL     1       7.125   5.751  18.643  0.00  0.00    +0.000 A 
ATOM     13  C   UNL     1       5.937   5.325  19.252  0.00  0.00    +0.000 A 
ENDBRANCH   7   8
ENDBRANCH   1   2
BRANCH   1  14
ATOM     14  N   UNL     1       1.750   7.758  18.668  0.00  0.00    +0.000 NA
ATOM     15  H   UNL     1       2.246   7.333  17.886  0.00  0.00    +0.000 HD
BRANCH  14  16
ATOM     16  C   UNL     1       1.808   9.200  18.443  0.00  0.00    +0.000 C 
BRANCH  16  20
ATOM     17  C   UNL     1      -2.185  10.952  18.491  0.00  0.00    +0.000 A 
ATOM     18  C   UNL     1      -1.757  10.208  17.401  0.00  0.00    +0.000 A 
ATOM     19  C   UNL     1      -0.488   9.633  17.395  0.00  0.00    +0.000 A 
ATOM     20  C   UNL     1       0.404   9.805  18.480  0.00  0.00    +0.000 A 
ATOM     21  C   UNL     1      -0.052  10.524  19.603  0.00  0.00    +0.000 A 
ATOM     22  C   UNL     1      -1.337  11.091  19.598  0.00  0.00    +0.000 A 
BRANCH  17  24
ATOM     23  C   UNL     1      -4.046  11.372  17.112  0.00  0.00    +0.000 C 
ATOM     24  O   UNL     1      -3.453  11.446  18.401  0.00  0.00    +0.000 OA
ENDBRANCH  17  24
BRANCH  21  25
ATOM     25  O   UNL     1       0.829  10.622  20.653  0.00  0.00    +0.000 OA
ATOM     26  C   UNL     1       0.267  10.689  21.960  0.00  0.00    +0.000 C 
ENDBRANCH  21  25
ENDBRANCH  16  20
ENDBRANCH  14  16
ENDBRANCH   1  14
BRANCH   1  27
ATOM     27  O   UNL     1       1.687   7.695  20.991  0.00  0.00    +0.000 OA
ATOM     28  H   UNL     1       2.030   8.597  21.110  0.00  0.00    +0.000 HD
ENDBRANCH   1  27
TORSDOF 8
ENDMDL
