MODEL 1
REMARK VINA RESULT:      -7.4      0.000      0.000
REMARK  Name = 
REMARK  11 active torsions:
REMARK  status: ('A' for Active; 'I' for Inactive)
REMARK    1  A    between atoms: C_2  and  C_3
REMARK    2  A    between atoms: C_3  and  N_4
REMARK    3  A    between atoms: C_5  and  C_6
REMARK    4  A    between atoms: C_6  and  O_7
REMARK    5  A    between atoms: O_7  and  C_8
REMARK    6  A    between atoms: C_17  and  S_18
REMARK    7  A    between atoms: S_18  and  C_19
REMARK    8  A    between atoms: C_19  and  C_20
REMARK    9  A    between atoms: N_22  and  C_23
REMARK   10  A    between atoms: C_26  and  S_27
REMARK   11  A    between atoms: S_27  and  N_28
REMARK                            x       y       z     vdW  Elec       q    Type
REMARK                         _______ _______ _______ _____ _____    ______ ____
ROOT
ATOM      1  S   UNL     1       4.000   4.356  18.461  0.00  0.00    +0.000 S 
ENDROOT
BRANCH   1   6
ATOM      2  N   UNL     1       5.860   6.286  17.861  0.00  0.00    +0.000 N 
ATOM      3  C   UNL     1       7.134   6.622  18.286  0.00  0.00    +0.000 A 
ATOM      4  N   UNL     1       7.441   5.853  19.320  0.00  0.00    +0.000 NA
ATOM      5  N   UNL     1       6.394   4.994  19.553  0.00  0.00    +0.000 NA
ATOM      6  C   UNL     1       5.474   5.231  18.645  0.00  0.00    +0.000 A 
BRANCH   2   7
ATOM      7  C   UNL     1       5.068   6.978  16.859  0.00  0.00    +0.000 C 
BRANCH   7   9
ATOM      8  C   UNL     1       5.471   5.243  15.061  0.00  0.00    +0.000 C 
ATOM      9  C   UNL     1       5.394   6.520  15.460  0.00  0.00    +0.000 C 
ENDBRANCH   7   9
ENDBRANCH   2   7
BRANCH   3  10
ATOM     10  C   UNL     1       7.981   7.733  17.751  0.00  0.00    +0.000 C 
BRANCH  10  11
ATOM     11  O   UNL     1       8.703   8.323  18.838  0.00  0.00    +0.000 OA
BRANCH  11  12
ATOM     12  C   UNL     1       8.891   9.683  18.785  0.00  0.00    +0.000 A 
ATOM     13  C   UNL     1       8.515  10.523  17.731  0.00  0.00    +0.000 A 
ATOM     14  C   UNL     1       8.775  11.899  17.791  0.00  0.00    +0.000 A 
ATOM     15  C   UNL     1       9.412  12.443  18.904  0.00  0.00    +0.000 A 
ATOM     16 CL   UNL     1       9.734  14.131  18.967  0.00  0.00    +0.000 Cl
ATOM     17  C   UNL     1       9.788  11.620  19.961  0.00  0.00    +0.000 A 
ATOM     18  C   UNL     1       9.527  10.247  19.899  0.00  0.00    +0.000 A 
ENDBRANCH  11  12
ENDBRANCH  10  11
ENDBRANCH   3  10
ENDBRANCH   1   6
BRANCH   1  19
ATOM     19  C   UNL     1       3.047   4.922  19.902  0.00  0.00    +0.000 C 
BRANCH  19  20
ATOM     20  C   UNL     1       2.418   6.278  19.634  0.00  0.00    +0.000 C 
ATOM     21  O   UNL     1       2.332   6.703  18.484  0.00  0.00    +0.000 OA
ATOM     22  N   UNL     1       2.024   6.954  20.780  0.00  0.00    +0.000 N 
ATOM     23  H   UNL     1       2.307   6.551  21.671  0.00  0.00    +0.000 HD
BRANCH  22  24
ATOM     24  C   UNL     1       1.386   8.213  20.831  0.00  0.00    +0.000 A 
ATOM     25  C   UNL     1       0.894   8.780  22.012  0.00  0.00    +0.000 A 
ATOM     26  C   UNL     1       0.285  10.039  22.005  0.00  0.00    +0.000 A 
ATOM     27  C   UNL     1       0.179  10.744  20.808  0.00  0.00    +0.000 A 
ATOM     28  C   UNL     1       0.645  10.189  19.615  0.00  0.00    +0.000 A 
ATOM     29  C   UNL     1       1.257   8.929  19.633  0.00  0.00    +0.000 A 
BRANCH  27  30
ATOM     30  S   UNL     1      -0.570  12.346  20.816  0.00  0.00    +0.000 S 
ATOM     31  O   UNL     1      -0.651  12.839  19.461  0.00  0.00    +0.000 OA
ATOM     32  O   UNL     1      -1.704  12.339  21.707  0.00  0.00    +0.000 OA
BRANCH  30  33
ATOM     33  N   UNL     1       0.616  13.259  21.576  0.00  0.00    +0.000 NA
ATOM     34  H   UNL     1       1.180  12.666  22.184  0.00  0.00    +0.000 HD
ATOM     35  H   UNL     1       1.155  13.782  20.885  0.00  0.00    +0.000 HD
ENDBRANCH  30  33
ENDBRANCH  27  30
ENDBRANCH  22  24
ENDBRANCH  19  20
ENDBRANCH   1  19
TORSDOF 11
ENDMDL
MODEL 2
REMARK VINA RESULT:      -7.3      4.582      6.063
REMARK  Name = 
REMARK  11 active torsions:
REMARK  status: ('A' for Active; 'I' for Inactive)
REMARK    1  A    between atoms: C_2  and  C_3
REMARK    2  A    between atoms: C_3  and  N_4
REMARK    3  A    between atoms: C_5  and  C_6
REMARK    4  A    between atoms: C_6  and  O_7
REMARK    5  A    between atoms: O_7  and  C_8
REMARK    6  A    between atoms: C_17  and  S_18
REMARK    7  A    between atoms: S_18  and  C_19
REMARK    8  A    between atoms: C_19  and  C_20
REMARK    9  A    between atoms: N_22  and  C_23
REMARK   10  A    between atoms: C_26  and  S_27
REMARK   11  A    between atoms: S_27  and  N_28
REMARK                            x       y       z     vdW  Elec       q    Type
REMARK                         _______ _______ _______ _____ _____    ______ ____
ROOT
ATOM      1  S   UNL     1       2.380   7.165  18.243  0.00  0.00    +0.000 S 
ENDROOT
BRANCH   1   6
ATOM      2  N   UNL     1       4.732   5.755  18.078  0.00  0.00    +0.000 N 
ATOM      3  C   UNL     1       5.972   5.933  17.490  0.00  0.00    +0.000 A 
ATOM      4  N   UNL     1       5.921   7.023  16.740  0.00  0.00    +0.000 NA
ATOM      5  N   UNL     1       4.669   7.579  16.858  0.00  0.00    +0.000 NA
ATOM      6  C   UNL     1       3.983   6.837  17.699  0.00  0.00    +0.000 A 
BRANCH   2   7
ATOM      7  C   UNL     1       4.295   4.607  18.853  0.00  0.00    +0.000 C 
BRANCH   7   9
ATOM      8  C   UNL     1       2.630   3.491  17.308  0.00  0.00    +0.000 C 
ATOM      9  C   UNL     1       3.791   3.487  17.979  0.00  0.00    +0.000 C 
ENDBRANCH   7   9
ENDBRANCH   2   7
BRANCH   3  10
ATOM     10  C   UNL     1       7.140   5.003  17.588  0.00  0.00    +0.000 C 
BRANCH  10  11
ATOM     11  O   UNL     1       7.793   4.951  16.314  0.00  0.00    +0.000 OA
BRANCH  11  12
ATOM     12  C   UNL     1       7.041   4.503  15.256  0.00  0.00    +0.000 A 
ATOM     13  C   UNL     1       5.912   3.681  15.341  0.00  0.00    +0.000 A 
ATOM     14  C   UNL     1       5.235   3.280  14.181  0.00  0.00    +0.000 A 
ATOM     15  C   UNL     1       5.683   3.698  12.930  0.00  0.00    +0.000 A 
ATOM     16 CL   UNL     1       4.852   3.195  11.511  0.00  0.00    +0.000 Cl
ATOM     17  C   UNL     1       6.802   4.519  12.830  0.00  0.00    +0.000 A 
ATOM     18  C   UNL     1       7.475   4.918  13.990  0.00  0.00    +0.000 A 
ENDBRANCH  11  12
ENDBRANCH  10  11
ENDBRANCH   3  10
ENDBRANCH   1   6
BRANCH   1  19
ATOM     19  C   UNL     1       2.308   8.977  18.124  0.00  0.00    +0.000 C 
BRANCH  19  20
ATOM     20  C   UNL     1       0.989   9.501  18.664  0.00  0.00    +0.000 C 
ATOM     21  O   UNL     1       0.789   9.543  19.876  0.00  0.00    +0.000 OA
ATOM     22  N   UNL     1       0.077   9.857  17.679  0.00  0.00    +0.000 N 
ATOM     23  H   UNL     1       0.319   9.615  16.721  0.00  0.00    +0.000 HD
BRANCH  22  24
ATOM     24  C   UNL     1      -1.210  10.401  17.887  0.00  0.00    +0.000 A 
ATOM     25  C   UNL     1      -1.471  11.437  18.791  0.00  0.00    +0.000 A 
ATOM     26  C   UNL     1      -2.764  11.947  18.944  0.00  0.00    +0.000 A 
ATOM     27  C   UNL     1      -3.804  11.427  18.177  0.00  0.00    +0.000 A 
ATOM     28  C   UNL     1      -3.569  10.379  17.284  0.00  0.00    +0.000 A 
ATOM     29  C   UNL     1      -2.269   9.878  17.134  0.00  0.00    +0.000 A 
BRANCH  27  30
ATOM     30  S   UNL     1      -5.430  12.097  18.359  0.00  0.00    +0.000 S 
ATOM     31  O   UNL     1      -5.434  13.043  19.451  0.00  0.00    +0.000 OA
ATOM     32  O   UNL     1      -5.964  12.415  17.058  0.00  0.00    +0.000 OA
BRANCH  30  33
ATOM     33  N   UNL     1      -6.280  10.755  18.899  0.00  0.00    +0.000 NA
ATOM     34  H   UNL     1      -6.334  10.759  19.917  0.00  0.00    +0.000 HD
ATOM     35  H   UNL     1      -7.186  10.700  18.433  0.00  0.00    +0.000 HD
ENDBRANCH  30  33
ENDBRANCH  27  30
ENDBRANCH  22  24
ENDBRANCH  19  20
ENDBRANCH   1  19
TORSDOF 11
ENDMDL
MODEL 3
REMARK VINA RESULT:      -7.1      1.328      1.939
REMARK  Name = 
REMARK  11 active torsions:
REMARK  status: ('A' for Active; 'I' for Inactive)
REMARK    1  A    between atoms: C_2  and  C_3
REMARK    2  A    between atoms: C_3  and  N_4
REMARK    3  A    between atoms: C_5  and  C_6
REMARK    4  A    between atoms: C_6  and  O_7
REMARK    5  A    between atoms: O_7  and  C_8
REMARK    6  A    between atoms: C_17  and  S_18
REMARK    7  A    between atoms: S_18  and  C_19
REMARK    8  A    between atoms: C_19  and  C_20
REMARK    9  A    between atoms: N_22  and  C_23
REMARK   10  A    between atoms: C_26  and  S_27
REMARK   11  A    between atoms: S_27  and  N_28
REMARK                            x       y       z     vdW  Elec       q    Type
REMARK                         _______ _______ _______ _____ _____    ______ ____
ROOT
ATOM      1  S   UNL     1       4.653   3.656  18.831  0.00  0.00    +0.000 S 
ENDROOT
BRANCH   1   6
ATOM      2  N   UNL     1       6.206   5.617  17.696  0.00  0.00    +0.000 N 
ATOM      3  C   UNL     1       7.266   6.415  18.089  0.00  0.00    +0.000 A 
ATOM      4  N   UNL     1       7.473   6.218  19.383  0.00  0.00    +0.000 NA
ATOM      5  N   UNL     1       6.580   5.274  19.831  0.00  0.00    +0.000 NA
ATOM      6  C   UNL     1       5.859   4.889  18.802  0.00  0.00    +0.000 A 
BRANCH   2   7
ATOM      7  C   UNL     1       5.543   5.629  16.403  0.00  0.00    +0.000 C 
BRANCH   7   9
ATOM      8  C   UNL     1       5.652   4.317  14.242  0.00  0.00    +0.000 C 
ATOM      9  C   UNL     1       6.163   4.654  15.435  0.00  0.00    +0.000 C 
ENDBRANCH   7   9
ENDBRANCH   2   7
BRANCH   3  10
ATOM     10  C   UNL     1       7.988   7.411  17.238  0.00  0.00    +0.000 C 
BRANCH  10  11
ATOM     11  O   UNL     1       7.391   8.698  17.432  0.00  0.00    +0.000 OA
BRANCH  11  12
ATOM     12  C   UNL     1       8.187   9.667  17.991  0.00  0.00    +0.000 A 
ATOM     13  C   UNL     1       9.061   9.490  19.070  0.00  0.00    +0.000 A 
ATOM     14  C   UNL     1       9.814  10.567  19.558  0.00  0.00    +0.000 A 
ATOM     15  C   UNL     1       9.698  11.825  18.972  0.00  0.00    +0.000 A 
ATOM     16 CL   UNL     1      10.620  13.143  19.583  0.00  0.00    +0.000 Cl
ATOM     17  C   UNL     1       8.836  12.015  17.896  0.00  0.00    +0.000 A 
ATOM     18  C   UNL     1       8.086  10.938  17.410  0.00  0.00    +0.000 A 
ENDBRANCH  11  12
ENDBRANCH  10  11
ENDBRANCH   3  10
ENDBRANCH   1   6
BRANCH   1  19
ATOM     19  C   UNL     1       3.291   4.443  17.921  0.00  0.00    +0.000 C 
BRANCH  19  20
ATOM     20  C   UNL     1       2.605   5.491  18.779  0.00  0.00    +0.000 C 
ATOM     21  O   UNL     1       2.120   5.182  19.865  0.00  0.00    +0.000 OA
ATOM     22  N   UNL     1       2.553   6.751  18.198  0.00  0.00    +0.000 N 
ATOM     23  H   UNL     1       2.850   6.820  17.227  0.00  0.00    +0.000 HD
BRANCH  22  24
ATOM     24  C   UNL     1       2.006   7.918  18.776  0.00  0.00    +0.000 A 
ATOM     25  C   UNL     1       1.673   9.060  18.039  0.00  0.00    +0.000 A 
ATOM     26  C   UNL     1       1.119  10.182  18.663  0.00  0.00    +0.000 A 
ATOM     27  C   UNL     1       0.882  10.157  20.036  0.00  0.00    +0.000 A 
ATOM     28  C   UNL     1       1.226   9.036  20.794  0.00  0.00    +0.000 A 
ATOM     29  C   UNL     1       1.776   7.915  20.159  0.00  0.00    +0.000 A 
BRANCH  27  30
ATOM     30  S   UNL     1       0.157  11.571  20.810  0.00  0.00    +0.000 S 
ATOM     31  O   UNL     1      -1.029  11.165  21.527  0.00  0.00    +0.000 OA
ATOM     32  O   UNL     1       1.195  12.366  21.419  0.00  0.00    +0.000 OA
BRANCH  30  33
ATOM     33  N   UNL     1      -0.375  12.440  19.477  0.00  0.00    +0.000 NA
ATOM     34  H   UNL     1      -0.751  11.806  18.772  0.00  0.00    +0.000 HD
ATOM     35  H   UNL     1      -1.023  13.172  19.768  0.00  0.00    +0.000 HD
ENDBRANCH  30  33
ENDBRANCH  27  30
ENDBRANCH  22  24
ENDBRANCH  19  20
ENDBRANCH   1  19
TORSDOF 11
ENDMDL
MODEL 4
REMARK VINA RESULT:      -7.1      3.934      5.520
REMARK  Name = 
REMARK  11 active torsions:
REMARK  status: ('A' for Active; 'I' for Inactive)
REMARK    1  A    between atoms: C_2  and  C_3
REMARK    2  A    between atoms: C_3  and  N_4
REMARK    3  A    between atoms: C_5  and  C_6
REMARK    4  A    between atoms: C_6  and  O_7
REMARK    5  A    between atoms: O_7  and  C_8
REMARK    6  A    between atoms: C_17  and  S_18
REMARK    7  A    between atoms: S_18  and  C_19
REMARK    8  A    between atoms: C_19  and  C_20
REMARK    9  A    between atoms: N_22  and  C_23
REMARK   10  A    between atoms: C_26  and  S_27
REMARK   11  A    between atoms: S_27  and  N_28
REMARK                            x       y       z     vdW  Elec       q    Type
REMARK                         _______ _______ _______ _____ _____    ______ ____
ROOT
ATOM      1  S   UNL     1       4.272   2.937  20.381  0.00  0.00    +0.000 S 
ENDROOT
BRANCH   1   6
ATOM      2  N   UNL     1       4.776   4.723  18.355  0.00  0.00    +0.000 N 
ATOM      3  C   UNL     1       4.394   4.880  17.034  0.00  0.00    +0.000 A 
ATOM      4  N   UNL     1       3.697   3.812  16.676  0.00  0.00    +0.000 NA
ATOM      5  N   UNL     1       3.590   2.974  17.760  0.00  0.00    +0.000 NA
ATOM      6  C   UNL     1       4.200   3.553  18.772  0.00  0.00    +0.000 A 
BRANCH   2   7
ATOM      7  C   UNL     1       5.680   5.577  19.106  0.00  0.00    +0.000 C 
BRANCH   7   9
ATOM      8  C   UNL     1       8.177   5.925  19.327  0.00  0.00    +0.000 C 
ATOM      9  C   UNL     1       7.128   5.245  18.844  0.00  0.00    +0.000 C 
ENDBRANCH   7   9
ENDBRANCH   2   7
BRANCH   3  10
ATOM     10  C   UNL     1       4.788   6.002  16.126  0.00  0.00    +0.000 C 
BRANCH  10  11
ATOM     11  O   UNL     1       6.139   5.792  15.698  0.00  0.00    +0.000 OA
BRANCH  11  12
ATOM     12  C   UNL     1       6.313   5.034  14.565  0.00  0.00    +0.000 A 
ATOM     13  C   UNL     1       5.432   4.058  14.087  0.00  0.00    +0.000 A 
ATOM     14  C   UNL     1       5.730   3.342  12.919  0.00  0.00    +0.000 A 
ATOM     15  C   UNL     1       6.910   3.597  12.224  0.00  0.00    +0.000 A 
ATOM     16 CL   UNL     1       7.273   2.707  10.798  0.00  0.00    +0.000 Cl
ATOM     17  C   UNL     1       7.794   4.567  12.686  0.00  0.00    +0.000 A 
ATOM     18  C   UNL     1       7.493   5.282  13.851  0.00  0.00    +0.000 A 
ENDBRANCH  11  12
ENDBRANCH  10  11
ENDBRANCH   3  10
ENDBRANCH   1   6
BRANCH   1  19
ATOM     19  C   UNL     1       2.547   3.113  20.926  0.00  0.00    +0.000 C 
BRANCH  19  20
ATOM     20  C   UNL     1       1.899   4.325  20.281  0.00  0.00    +0.000 C 
ATOM     21  O   UNL     1       0.965   4.182  19.495  0.00  0.00    +0.000 OA
ATOM     22  N   UNL     1       2.486   5.533  20.631  0.00  0.00    +0.000 N 
ATOM     23  H   UNL     1       3.353   5.485  21.162  0.00  0.00    +0.000 HD
BRANCH  22  24
ATOM     24  C   UNL     1       2.074   6.817  20.210  0.00  0.00    +0.000 A 
ATOM     25  C   UNL     1       2.383   7.352  18.954  0.00  0.00    +0.000 A 
ATOM     26  C   UNL     1       1.935   8.624  18.585  0.00  0.00    +0.000 A 
ATOM     27  C   UNL     1       1.158   9.363  19.474  0.00  0.00    +0.000 A 
ATOM     28  C   UNL     1       0.855   8.857  20.740  0.00  0.00    +0.000 A 
ATOM     29  C   UNL     1       1.305   7.580  21.099  0.00  0.00    +0.000 A 
BRANCH  27  30
ATOM     30  S   UNL     1       0.575  10.960  18.987  0.00  0.00    +0.000 S 
ATOM     31  O   UNL     1       1.687  11.748  18.511  0.00  0.00    +0.000 OA
ATOM     32  O   UNL     1      -0.647  10.812  18.235  0.00  0.00    +0.000 OA
BRANCH  30  33
ATOM     33  N   UNL     1       0.136  11.615  20.468  0.00  0.00    +0.000 NA
ATOM     34  H   UNL     1       0.847  11.407  21.169  0.00  0.00    +0.000 HD
ATOM     35  H   UNL     1      -0.072  12.609  20.366  0.00  0.00    +0.000 HD
ENDBRANCH  30  33
ENDBRANCH  27  30
ENDBRANCH  22  24
ENDBRANCH  19  20
ENDBRANCH   1  19
TORSDOF 11
ENDMDL
MODEL 5
REMARK VINA RESULT:      -7.1      4.602      6.131
REMARK  Name = 
REMARK  11 active torsions:
REMARK  status: ('A' for Active; 'I' for Inactive)
REMARK    1  A    between atoms: C_2  and  C_3
REMARK    2  A    between atoms: C_3  and  N_4
REMARK    3  A    between atoms: C_5  and  C_6
REMARK    4  A    between atoms: C_6  and  O_7
REMARK    5  A    between atoms: O_7  and  C_8
REMARK    6  A    between atoms: C_17  and  S_18
REMARK    7  A    between atoms: S_18  and  C_19
REMARK    8  A    between atoms: C_19  and  C_20
REMARK    9  A    between atoms: N_22  and  C_23
REMARK   10  A    between atoms: C_26  and  S_27
REMARK   11  A    between atoms: S_27  and  N_28
REMARK                            x       y       z     vdW  Elec       q    Type
REMARK                         _______ _______ _______ _____ _____    ______ ____
ROOT
ATOM      1  S   UNL     1       1.476   7.328  20.982  0.00  0.00    +0.000 S 
ENDROOT
BRANCH   1   6
ATOM      2  N   UNL     1       2.096   5.304  19.230  0.00  0.00    +0.000 N 
ATOM      3  C   UNL     1       2.971   5.121  18.174  0.00  0.00    +0.000 A 
ATOM      4  N   UNL     1       3.556   6.281  17.916  0.00  0.00    +0.000 NA
ATOM      5  N   UNL     1       3.096   7.213  18.815  0.00  0.00    +0.000 NA
ATOM      6  C   UNL     1       2.259   6.605  19.626  0.00  0.00    +0.000 A 
BRANCH   2   7
ATOM      7  C   UNL     1       1.138   4.340  19.742  0.00  0.00    +0.000 C 
BRANCH   7   9
ATOM      8  C   UNL     1       2.166   3.161  21.732  0.00  0.00    +0.000 C 
ATOM      9  C   UNL     1       1.809   3.184  20.440  0.00  0.00    +0.000 C 
ENDBRANCH   7   9
ENDBRANCH   2   7
BRANCH   3  10
ATOM     10  C   UNL     1       3.152   3.864  17.382  0.00  0.00    +0.000 C 
BRANCH  10  11
ATOM     11  O   UNL     1       4.540   3.513  17.392  0.00  0.00    +0.000 OA
BRANCH  11  12
ATOM     12  C   UNL     1       5.285   3.922  16.312  0.00  0.00    +0.000 A 
ATOM     13  C   UNL     1       4.919   3.795  14.968  0.00  0.00    +0.000 A 
ATOM     14  C   UNL     1       5.776   4.243  13.953  0.00  0.00    +0.000 A 
ATOM     15  C   UNL     1       7.003   4.818  14.276  0.00  0.00    +0.000 A 
ATOM     16 CL   UNL     1       8.052   5.357  13.024  0.00  0.00    +0.000 Cl
ATOM     17  C   UNL     1       7.378   4.954  15.609  0.00  0.00    +0.000 A 
ATOM     18  C   UNL     1       6.520   4.507  16.620  0.00  0.00    +0.000 A 
ENDBRANCH  11  12
ENDBRANCH  10  11
ENDBRANCH   3  10
ENDBRANCH   1   6
BRANCH   1  19
ATOM     19  C   UNL     1       1.061   8.977  20.339  0.00  0.00    +0.000 C 
BRANCH  19  20
ATOM     20  C   UNL     1       0.714   9.926  21.472  0.00  0.00    +0.000 C 
ATOM     21  O   UNL     1       1.157   9.728  22.602  0.00  0.00    +0.000 OA
ATOM     22  N   UNL     1      -0.149  10.950  21.108  0.00  0.00    +0.000 N 
ATOM     23  H   UNL     1      -0.563  10.892  20.179  0.00  0.00    +0.000 HD
BRANCH  22  24
ATOM     24  C   UNL     1      -0.614  11.990  21.942  0.00  0.00    +0.000 A 
ATOM     25  C   UNL     1      -0.042  13.267  21.973  0.00  0.00    +0.000 A 
ATOM     26  C   UNL     1      -0.555  14.264  22.809  0.00  0.00    +0.000 A 
ATOM     27  C   UNL     1      -1.658  13.986  23.612  0.00  0.00    +0.000 A 
ATOM     28  C   UNL     1      -2.232  12.713  23.613  0.00  0.00    +0.000 A 
ATOM     29  C   UNL     1      -1.713  11.722  22.769  0.00  0.00    +0.000 A 
BRANCH  27  30
ATOM     30  S   UNL     1      -2.314  15.262  24.646  0.00  0.00    +0.000 S 
ATOM     31  O   UNL     1      -1.351  15.585  25.672  0.00  0.00    +0.000 OA
ATOM     32  O   UNL     1      -2.937  16.269  23.824  0.00  0.00    +0.000 OA
BRANCH  30  33
ATOM     33  N   UNL     1      -3.564  14.449  25.417  0.00  0.00    +0.000 NA
ATOM     34  H   UNL     1      -3.459  14.521  26.429  0.00  0.00    +0.000 HD
ATOM     35  H   UNL     1      -4.466  14.775  25.067  0.00  0.00    +0.000 HD
ENDBRANCH  30  33
ENDBRANCH  27  30
ENDBRANCH  22  24
ENDBRANCH  19  20
ENDBRANCH   1  19
TORSDOF 11
ENDMDL
MODEL 6
REMARK VINA RESULT:      -7.0      5.396     10.795
REMARK  Name = 
REMARK  11 active torsions:
REMARK  status: ('A' for Active; 'I' for Inactive)
REMARK    1  A    between atoms: C_2  and  C_3
REMARK    2  A    between atoms: C_3  and  N_4
REMARK    3  A    between atoms: C_5  and  C_6
REMARK    4  A    between atoms: C_6  and  O_7
REMARK    5  A    between atoms: O_7  and  C_8
REMARK    6  A    between atoms: C_17  and  S_18
REMARK    7  A    between atoms: S_18  and  C_19
REMARK    8  A    between atoms: C_19  and  C_20
REMARK    9  A    between atoms: N_22  and  C_23
REMARK   10  A    between atoms: C_26  and  S_27
REMARK   11  A    between atoms: S_27  and  N_28
REMARK                            x       y       z     vdW  Elec       q    Type
REMARK                         _______ _______ _______ _____ _____    ______ ____
ROOT
ATOM      1  S   UNL     1      -0.680  10.290  19.331  0.00  0.00    +0.000 S 
ENDROOT
BRANCH   1   6
ATOM      2  N   UNL     1      -1.147  12.423  20.999  0.00  0.00    +0.000 N 
ATOM      3  C   UNL     1      -0.901  12.735  22.324  0.00  0.00    +0.000 A 
ATOM      4  N   UNL     1      -0.414  11.657  22.920  0.00  0.00    +0.000 NA
ATOM      5  N   UNL     1      -0.307  10.652  21.988  0.00  0.00    +0.000 NA
ATOM      6  C   UNL     1      -0.704  11.137  20.833  0.00  0.00    +0.000 A 
BRANCH   2   7
ATOM      7  C   UNL     1      -1.823  13.256  20.020  0.00  0.00    +0.000 C 
BRANCH   7   9
ATOM      8  C   UNL     1      -4.216  12.642  20.571  0.00  0.00    +0.000 C 
ATOM      9  C   UNL     1      -3.205  12.749  19.696  0.00  0.00    +0.000 C 
ENDBRANCH   7   9
ENDBRANCH   2   7
BRANCH   3  10
ATOM     10  C   UNL     1      -1.228  14.028  23.004  0.00  0.00    +0.000 C 
BRANCH  10  11
ATOM     11  O   UNL     1      -2.033  13.749  24.155  0.00  0.00    +0.000 OA
BRANCH  11  12
ATOM     12  C   UNL     1      -3.395  13.799  23.979  0.00  0.00    +0.000 A 
ATOM     13  C   UNL     1      -4.117  14.882  23.467  0.00  0.00    +0.000 A 
ATOM     14  C   UNL     1      -5.512  14.813  23.348  0.00  0.00    +0.000 A 
ATOM     15  C   UNL     1      -6.192  13.662  23.739  0.00  0.00    +0.000 A 
ATOM     16 CL   UNL     1      -7.905  13.588  23.597  0.00  0.00    +0.000 Cl
ATOM     17  C   UNL     1      -5.486  12.575  24.246  0.00  0.00    +0.000 A 
ATOM     18  C   UNL     1      -4.093  12.646  24.363  0.00  0.00    +0.000 A 
ENDBRANCH  11  12
ENDBRANCH  10  11
ENDBRANCH   3  10
ENDBRANCH   1   6
BRANCH   1  19
ATOM     19  C   UNL     1       1.008  10.619  18.743  0.00  0.00    +0.000 C 
BRANCH  19  20
ATOM     20  C   UNL     1       1.742   9.321  18.456  0.00  0.00    +0.000 C 
ATOM     21  O   UNL     1       2.460   9.222  17.463  0.00  0.00    +0.000 OA
ATOM     22  N   UNL     1       1.478   8.309  19.369  0.00  0.00    +0.000 N 
ATOM     23  H   UNL     1       0.738   8.483  20.046  0.00  0.00    +0.000 HD
BRANCH  22  24
ATOM     24  C   UNL     1       2.042   7.014  19.369  0.00  0.00    +0.000 A 
ATOM     25  C   UNL     1       2.655   6.441  18.249  0.00  0.00    +0.000 A 
ATOM     26  C   UNL     1       3.210   5.159  18.312  0.00  0.00    +0.000 A 
ATOM     27  C   UNL     1       3.165   4.448  19.509  0.00  0.00    +0.000 A 
ATOM     28  C   UNL     1       2.540   4.993  20.633  0.00  0.00    +0.000 A 
ATOM     29  C   UNL     1       1.990   6.279  20.561  0.00  0.00    +0.000 A 
BRANCH  27  30
ATOM     30  S   UNL     1       3.893   2.839  19.584  0.00  0.00    +0.000 S 
ATOM     31  O   UNL     1       3.960   2.411  20.962  0.00  0.00    +0.000 OA
ATOM     32  O   UNL     1       3.333   2.013  18.543  0.00  0.00    +0.000 OA
BRANCH  30  33
ATOM     33  N   UNL     1       5.471   3.171  19.120  0.00  0.00    +0.000 NA
ATOM     34  H   UNL     1       6.126   2.786  19.800  0.00  0.00    +0.000 HD
ATOM     35  H   UNL     1       5.631   2.856  18.162  0.00  0.00    +0.000 HD
ENDBRANCH  30  33
ENDBRANCH  27  30
ENDBRANCH  22  24
ENDBRANCH  19  20
ENDBRANCH   1  19
TORSDOF 11
ENDMDL
MODEL 7
REMARK VINA RESULT:      -7.0      5.090      9.057
REMARK  Name = 
REMARK  11 active torsions:
REMARK  status: ('A' for Active; 'I' for Inactive)
REMARK    1  A    between atoms: C_2  and  C_3
REMARK    2  A    between atoms: C_3  and  N_4
REMARK    3  A    between atoms: C_5  and  C_6
REMARK    4  A    between atoms: C_6  and  O_7
REMARK    5  A    between atoms: O_7  and  C_8
REMARK    6  A    between atoms: C_17  and  S_18
REMARK    7  A    between atoms: S_18  and  C_19
REMARK    8  A    between atoms: C_19  and  C_20
REMARK    9  A    between atoms: N_22  and  C_23
REMARK   10  A    between atoms: C_26  and  S_27
REMARK   11  A    between atoms: S_27  and  N_28
REMARK                            x       y       z     vdW  Elec       q    Type
REMARK                         _______ _______ _______ _____ _____    ______ ____
ROOT
ATOM      1  S   UNL     1       7.031   8.491  17.805  0.00  0.00    +0.000 S 
ENDROOT
BRANCH   1   6
ATOM      2  N   UNL     1       5.720   6.224  16.976  0.00  0.00    +0.000 N 
ATOM      3  C   UNL     1       5.992   4.868  16.921  0.00  0.00    +0.000 A 
ATOM      4  N   UNL     1       7.258   4.687  17.264  0.00  0.00    +0.000 NA
ATOM      5  N   UNL     1       7.807   5.907  17.577  0.00  0.00    +0.000 NA
ATOM      6  C   UNL     1       6.863   6.813  17.446  0.00  0.00    +0.000 A 
BRANCH   2   7
ATOM      7  C   UNL     1       4.504   6.885  16.534  0.00  0.00    +0.000 C 
BRANCH   7   9
ATOM      8  C   UNL     1       2.649   8.236  17.602  0.00  0.00    +0.000 C 
ATOM      9  C   UNL     1       3.660   7.359  17.690  0.00  0.00    +0.000 C 
ENDBRANCH   7   9
ENDBRANCH   2   7
BRANCH   3  10
ATOM     10  C   UNL     1       5.060   3.797  16.449  0.00  0.00    +0.000 C 
BRANCH  10  11
ATOM     11  O   UNL     1       3.722   4.164  16.807  0.00  0.00    +0.000 OA
BRANCH  11  12
ATOM     12  C   UNL     1       3.275   3.736  18.033  0.00  0.00    +0.000 A 
ATOM     13  C   UNL     1       3.921   2.818  18.867  0.00  0.00    +0.000 A 
ATOM     14  C   UNL     1       3.352   2.451  20.096  0.00  0.00    +0.000 A 
ATOM     15  C   UNL     1       2.137   3.001  20.496  0.00  0.00    +0.000 A 
ATOM     16 CL   UNL     1       1.442   2.540  22.000  0.00  0.00    +0.000 Cl
ATOM     17  C   UNL     1       1.485   3.918  19.677  0.00  0.00    +0.000 A 
ATOM     18  C   UNL     1       2.054   4.283  18.452  0.00  0.00    +0.000 A 
ENDBRANCH  11  12
ENDBRANCH  10  11
ENDBRANCH   3  10
ENDBRANCH   1   6
BRANCH   1  19
ATOM     19  C   UNL     1       8.688   8.550  18.551  0.00  0.00    +0.000 C 
BRANCH  19  20
ATOM     20  C   UNL     1       9.075   9.978  18.892  0.00  0.00    +0.000 C 
ATOM     21  O   UNL     1       9.021  10.373  20.055  0.00  0.00    +0.000 OA
ATOM     22  N   UNL     1       9.427  10.747  17.791  0.00  0.00    +0.000 N 
ATOM     23  H   UNL     1       9.266  10.335  16.874  0.00  0.00    +0.000 HD
BRANCH  22  24
ATOM     24  C   UNL     1       9.858  12.092  17.813  0.00  0.00    +0.000 A 
ATOM     25  C   UNL     1      11.150  12.493  17.453  0.00  0.00    +0.000 A 
ATOM     26  C   UNL     1      11.516  13.842  17.478  0.00  0.00    +0.000 A 
ATOM     27  C   UNL     1      10.579  14.802  17.852  0.00  0.00    +0.000 A 
ATOM     28  C   UNL     1       9.290  14.422  18.235  0.00  0.00    +0.000 A 
ATOM     29  C   UNL     1       8.931  13.069  18.202  0.00  0.00    +0.000 A 
BRANCH  27  30
ATOM     30  S   UNL     1      11.045  16.507  17.855  0.00  0.00    +0.000 S 
ATOM     31  O   UNL     1      10.750  17.079  19.148  0.00  0.00    +0.000 OA
ATOM     32  O   UNL     1      12.333  16.650  17.222  0.00  0.00    +0.000 OA
BRANCH  30  33
ATOM     33  N   UNL     1       9.925  17.156  16.788  0.00  0.00    +0.000 NA
ATOM     34  H   UNL     1      10.375  17.835  16.175  0.00  0.00    +0.000 HD
ATOM     35  H   UNL     1       9.433  16.410  16.295  0.00  0.00    +0.000 HD
ENDBRANCH  30  33
ENDBRANCH  27  30
ENDBRANCH  22  24
ENDBRANCH  19  20
ENDBRANCH   1  19
TORSDOF 11
ENDMDL
MODEL 8
REMARK VINA RESULT:      -6.9      4.837     10.272
REMARK  Name = 
REMARK  11 active torsions:
REMARK  status: ('A' for Active; 'I' for Inactive)
REMARK    1  A    between atoms: C_2  and  C_3
REMARK    2  A    between atoms: C_3  and  N_4
REMARK    3  A    between atoms: C_5  and  C_6
REMARK    4  A    between atoms: C_6  and  O_7
REMARK    5  A    between atoms: O_7  and  C_8
REMARK    6  A    between atoms: C_17  and  S_18
REMARK    7  A    between atoms: S_18  and  C_19
REMARK    8  A    between atoms: C_19  and  C_20
REMARK    9  A    between atoms: N_22  and  C_23
REMARK   10  A    between atoms: C_26  and  S_27
REMARK   11  A    between atoms: S_27  and  N_28
REMARK                            x       y       z     vdW  Elec       q    Type
REMARK                         _______ _______ _______ _____ _____    ______ ____
ROOT
ATOM      1  S   UNL     1       1.112   8.968  20.199  0.00  0.00    +0.000 S 
ENDROOT
BRANCH   1   6
ATOM      2  N   UNL     1      -0.582  10.848  21.267  0.00  0.00    +0.000 N 
ATOM      3  C   UNL     1      -0.912  11.302  22.532  0.00  0.00    +0.000 A 
ATOM      4  N   UNL     1      -0.311  10.524  23.419  0.00  0.00    +0.000 NA
ATOM      5  N   UNL     1       0.436   9.587  22.747  0.00  0.00    +0.000 NA
ATOM      6  C   UNL     1       0.303   9.822  21.460  0.00  0.00    +0.000 A 
BRANCH   2   7
ATOM      7  C   UNL     1      -1.139  11.308  20.007  0.00  0.00    +0.000 C 
BRANCH   7   9
ATOM      8  C   UNL     1       0.591  13.155  19.963  0.00  0.00    +0.000 C 
ATOM      9  C   UNL     1      -0.258  12.331  19.334  0.00  0.00    +0.000 C 
ENDBRANCH   7   9
ENDBRANCH   2   7
BRANCH   3  10
ATOM     10  C   UNL     1      -1.868  12.407  22.855  0.00  0.00    +0.000 C 
BRANCH  10  11
ATOM     11  O   UNL     1      -1.196  13.369  23.675  0.00  0.00    +0.000 OA
BRANCH  11  12
ATOM     12  C   UNL     1      -1.946  14.434  24.112  0.00  0.00    +0.000 A 
ATOM     13  C   UNL     1      -1.457  15.563  24.778  0.00  0.00    +0.000 A 
ATOM     14  C   UNL     1      -2.330  16.581  25.186  0.00  0.00    +0.000 A 
ATOM     15  C   UNL     1      -3.695  16.476  24.932  0.00  0.00    +0.000 A 
ATOM     16 CL   UNL     1      -4.761  17.725  25.443  0.00  0.00    +0.000 Cl
ATOM     17  C   UNL     1      -4.195  15.360  24.267  0.00  0.00    +0.000 A 
ATOM     18  C   UNL     1      -3.321  14.345  23.860  0.00  0.00    +0.000 A 
ENDBRANCH  11  12
ENDBRANCH  10  11
ENDBRANCH   3  10
ENDBRANCH   1   6
BRANCH   1  19
ATOM     19  C   UNL     1       1.088   7.262  20.826  0.00  0.00    +0.000 C 
BRANCH  19  20
ATOM     20  C   UNL     1       2.152   6.422  20.143  0.00  0.00    +0.000 C 
ATOM     21  O   UNL     1       2.532   5.370  20.654  0.00  0.00    +0.000 OA
ATOM     22  N   UNL     1       2.645   6.978  18.970  0.00  0.00    +0.000 N 
ATOM     23  H   UNL     1       2.355   7.930  18.757  0.00  0.00    +0.000 HD
BRANCH  22  24
ATOM     24  C   UNL     1       3.612   6.406  18.115  0.00  0.00    +0.000 A 
ATOM     25  C   UNL     1       3.510   5.111  17.592  0.00  0.00    +0.000 A 
ATOM     26  C   UNL     1       4.492   4.602  16.737  0.00  0.00    +0.000 A 
ATOM     27  C   UNL     1       5.579   5.400  16.387  0.00  0.00    +0.000 A 
ATOM     28  C   UNL     1       5.712   6.687  16.913  0.00  0.00    +0.000 A 
ATOM     29  C   UNL     1       4.721   7.189  17.766  0.00  0.00    +0.000 A 
BRANCH  27  30
ATOM     30  S   UNL     1       6.801   4.756  15.284  0.00  0.00    +0.000 S 
ATOM     31  O   UNL     1       6.895   5.613  14.125  0.00  0.00    +0.000 OA
ATOM     32  O   UNL     1       7.959   4.347  16.040  0.00  0.00    +0.000 OA
BRANCH  30  33
ATOM     33  N   UNL     1       6.060   3.343  14.762  0.00  0.00    +0.000 NA
ATOM     34  H   UNL     1       6.037   3.314  13.744  0.00  0.00    +0.000 HD
ATOM     35  H   UNL     1       6.505   2.532  15.194  0.00  0.00    +0.000 HD
ENDBRANCH  30  33
ENDBRANCH  27  30
ENDBRANCH  22  24
ENDBRANCH  19  20
ENDBRANCH   1  19
TORSDOF 11
ENDMDL
MODEL 9
REMARK VINA RESULT:      -6.9      4.381      6.514
REMARK  Name = 
REMARK  11 active torsions:
REMARK  status: ('A' for Active; 'I' for Inactive)
REMARK    1  A    between atoms: C_2  and  C_3
REMARK    2  A    between atoms: C_3  and  N_4
REMARK    3  A    between atoms: C_5  and  C_6
REMARK    4  A    between atoms: C_6  and  O_7
REMARK    5  A    between atoms: O_7  and  C_8
REMARK    6  A    between atoms: C_17  and  S_18
REMARK    7  A    between atoms: S_18  and  C_19
REMARK    8  A    between atoms: C_19  and  C_20
REMARK    9  A    between atoms: N_22  and  C_23
REMARK   10  A    between atoms: C_26  and  S_27
REMARK   11  A    between atoms: S_27  and  N_28
REMARK                            x       y       z     vdW  Elec       q    Type
REMARK                         _______ _______ _______ _____ _____    ______ ____
ROOT
ATOM      1  S   UNL     1       1.124   8.533  20.277  0.00  0.00    +0.000 S 
ENDROOT
BRANCH   1   6
ATOM      2  N   UNL     1       2.650   6.327  19.686  0.00  0.00    +0.000 N 
ATOM      3  C   UNL     1       3.579   5.976  18.722  0.00  0.00    +0.000 A 
ATOM      4  N   UNL     1       3.624   6.944  17.819  0.00  0.00    +0.000 NA
ATOM      5  N   UNL     1       2.759   7.941  18.202  0.00  0.00    +0.000 NA
ATOM      6  C   UNL     1       2.217   7.580  19.344  0.00  0.00    +0.000 A 
BRANCH   2   7
ATOM      7  C   UNL     1       2.170   5.493  20.774  0.00  0.00    +0.000 C 
BRANCH   7   9
ATOM      8  C   UNL     1       1.079   3.312  20.098  0.00  0.00    +0.000 C 
ATOM      9  C   UNL     1       1.009   4.625  20.357  0.00  0.00    +0.000 C 
ENDBRANCH   7   9
ENDBRANCH   2   7
BRANCH   3  10
ATOM     10  C   UNL     1       4.326   4.682  18.642  0.00  0.00    +0.000 C 
BRANCH  10  11
ATOM     11  O   UNL     1       5.673   4.954  18.238  0.00  0.00    +0.000 OA
BRANCH  11  12
ATOM     12  C   UNL     1       5.972   4.738  16.914  0.00  0.00    +0.000 A 
ATOM     13  C   UNL     1       7.081   5.248  16.230  0.00  0.00    +0.000 A 
ATOM     14  C   UNL     1       7.269   4.964  14.870  0.00  0.00    +0.000 A 
ATOM     15  C   UNL     1       6.350   4.170  14.187  0.00  0.00    +0.000 A 
ATOM     16 CL   UNL     1       6.584   3.833  12.517  0.00  0.00    +0.000 Cl
ATOM     17  C   UNL     1       5.245   3.653  14.856  0.00  0.00    +0.000 A 
ATOM     18  C   UNL     1       5.059   3.938  16.214  0.00  0.00    +0.000 A 
ENDBRANCH  11  12
ENDBRANCH  10  11
ENDBRANCH   3  10
ENDBRANCH   1   6
BRANCH   1  19
ATOM     19  C   UNL     1       0.557   9.755  19.057  0.00  0.00    +0.000 C 
BRANCH  19  20
ATOM     20  C   UNL     1       0.784  11.168  19.564  0.00  0.00    +0.000 C 
ATOM     21  O   UNL     1       0.048  11.641  20.429  0.00  0.00    +0.000 OA
ATOM     22  N   UNL     1       1.827  11.834  18.935  0.00  0.00    +0.000 N 
ATOM     23  H   UNL     1       2.241  11.376  18.125  0.00  0.00    +0.000 HD
BRANCH  22  24
ATOM     24  C   UNL     1       2.281  13.140  19.223  0.00  0.00    +0.000 A 
ATOM     25  C   UNL     1       2.435  14.134  18.250  0.00  0.00    +0.000 A 
ATOM     26  C   UNL     1       2.874  15.416  18.596  0.00  0.00    +0.000 A 
ATOM     27  C   UNL     1       3.148  15.712  19.930  0.00  0.00    +0.000 A 
ATOM     28  C   UNL     1       3.021  14.729  20.914  0.00  0.00    +0.000 A 
ATOM     29  C   UNL     1       2.576  13.449  20.558  0.00  0.00    +0.000 A 
BRANCH  27  30
ATOM     30  S   UNL     1       3.677  17.343  20.360  0.00  0.00    +0.000 S 
ATOM     31  O   UNL     1       2.692  18.297  19.907  0.00  0.00    +0.000 OA
ATOM     32  O   UNL     1       4.188  17.339  21.708  0.00  0.00    +0.000 OA
BRANCH  30  33
ATOM     33  N   UNL     1       5.008  17.532  19.355  0.00  0.00    +0.000 NA
ATOM     34  H   UNL     1       5.379  18.478  19.437  0.00  0.00    +0.000 HD
ATOM     35  H   UNL     1       5.694  16.798  19.536  0.00  0.00    +0.000 HD
ENDBRANCH  30  33
ENDBRANCH  27  30
ENDBRANCH  22  24
ENDBRANCH  19  20
ENDBRANCH   1  19
TORSDOF 11
ENDMDL
