MODEL 1
REMARK VINA RESULT:      -8.5      0.000      0.000
REMARK  Name = 
REMARK  8 active torsions:
REMARK  status: ('A' for Active; 'I' for Inactive)
REMARK    1  A    between atoms: C_1  and  N_2
REMARK    2  A    between atoms: C_3  and  C_5
REMARK    3  A    between atoms: C_11  and  C_12
REMARK    4  A    between atoms: C_13  and  C_14
REMARK    5  A    between atoms: C_14  and  N_15
REMARK    6  A    between atoms: C_16  and  C_18
REMARK    7  A    between atoms: N_22  and  C_23
REMARK    8  A    between atoms: C_23  and  C_24
REMARK                            x       y       z     vdW  Elec       q    Type
REMARK                         _______ _______ _______ _____ _____    ______ ____
ROOT
ATOM      1  N   UNL     1       1.472   8.124  20.756  0.00  0.00    +0.000 N 
ATOM      2  C   UNL     1       0.249   8.553  21.202  0.00  0.00    +0.000 C 
ATOM      3  O   UNL     1      -0.598   7.779  21.640  0.00  0.00    +0.000 OA
ATOM      4  H   UNL     1       2.102   8.786  20.309  0.00  0.00    +0.000 HD
ENDROOT
BRANCH   2   5
ATOM      5  C   UNL     1       0.004  10.020  21.126  0.00  0.00    +0.000 A 
ATOM      6  C   UNL     1      -0.183  10.693  22.271  0.00  0.00    +0.000 A 
ATOM      7  N   UNL     1      -0.426  12.038  22.376  0.00  0.00    +0.000 NA
ATOM      8  C   UNL     1      -0.549  12.689  21.269  0.00  0.00    +0.000 A 
ATOM      9  N   UNL     1      -0.418  12.139  20.019  0.00  0.00    +0.000 N 
ATOM     10  C   UNL     1      -0.067  10.809  19.873  0.00  0.00    +0.000 A 
ATOM     11  O   UNL     1       0.177  10.286  18.785  0.00  0.00    +0.000 OA
BRANCH   9  12
ATOM     12  C   UNL     1      -0.675  12.957  18.839  0.00  0.00    +0.000 C 
BRANCH  12  13
ATOM     13  C   UNL     1       0.450  13.949  18.617  0.00  0.00    +0.000 A 
ATOM     14  C   UNL     1       1.741  13.506  18.274  0.00  0.00    +0.000 A 
ATOM     15  C   UNL     1       2.805  14.410  18.199  0.00  0.00    +0.000 A 
ATOM     16  C   UNL     1       2.583  15.758  18.458  0.00  0.00    +0.000 A 
ATOM     17  F   UNL     1       3.614  16.613  18.424  0.00  0.00    +0.000 F 
ATOM     18  C   UNL     1       1.306  16.211  18.764  0.00  0.00    +0.000 A 
ATOM     19  F   UNL     1       1.092  17.512  19.005  0.00  0.00    +0.000 F 
ATOM     20  C   UNL     1       0.239  15.319  18.843  0.00  0.00    +0.000 A 
ENDBRANCH  12  13
ENDBRANCH   9  12
ENDBRANCH   2   5
BRANCH   1  21
ATOM     21  C   UNL     1       1.792   6.719  20.727  0.00  0.00    +0.000 C 
BRANCH  21  23
ATOM     22  C   UNL     1       3.746   6.191  18.759  0.00  0.00    +0.000 C 
ATOM     23  C   UNL     1       2.844   6.435  19.667  0.00  0.00    +0.000 C 
BRANCH  22  30
ATOM     24  C   UNL     1       5.981   4.005  13.608  0.00  0.00    +0.000 A 
ATOM     25  C   UNL     1       7.248   4.535  13.752  0.00  0.00    +0.000 A 
ATOM     26  N   UNL     1       7.598   5.281  14.826  0.00  0.00    +0.000 NA
ATOM     27  C   UNL     1       6.642   5.481  15.752  0.00  0.00    +0.000 A 
ATOM     28  C   UNL     1       6.941   6.257  16.862  0.00  0.00    +0.000 A 
ATOM     29  C   UNL     1       5.990   6.504  17.853  0.00  0.00    +0.000 A 
ATOM     30  C   UNL     1       4.718   5.955  17.735  0.00  0.00    +0.000 A 
ATOM     31  C   UNL     1       4.405   5.166  16.622  0.00  0.00    +0.000 A 
ATOM     32  C   UNL     1       5.340   4.925  15.618  0.00  0.00    +0.000 A 
ATOM     33  N   UNL     1       5.000   4.183  14.540  0.00  0.00    +0.000 NA
BRANCH  24  36
ATOM     34  C   UNL     1       6.340   1.394  10.898  0.00  0.00    +0.000 C 
ATOM     35  N   UNL     1       6.543   2.232  12.050  0.00  0.00    +0.000 N 
ATOM     36  C   UNL     1       5.652   3.229  12.380  0.00  0.00    +0.000 C 
ATOM     37  O   UNL     1       4.640   3.477  11.729  0.00  0.00    +0.000 OA
ATOM     38  H   UNL     1       7.345   2.098  12.661  0.00  0.00    +0.000 HD
ENDBRANCH  24  36
ENDBRANCH  22  30
ENDBRANCH  21  23
ENDBRANCH   1  21
TORSDOF 7
ENDMDL
MODEL 2
REMARK VINA RESULT:      -8.5      5.888      9.375
REMARK  Name = 
REMARK  8 active torsions:
REMARK  status: ('A' for Active; 'I' for Inactive)
REMARK    1  A    between atoms: C_1  and  N_2
REMARK    2  A    between atoms: C_3  and  C_5
REMARK    3  A    between atoms: C_11  and  C_12
REMARK    4  A    between atoms: C_13  and  C_14
REMARK    5  A    between atoms: C_14  and  N_15
REMARK    6  A    between atoms: C_16  and  C_18
REMARK    7  A    between atoms: N_22  and  C_23
REMARK    8  A    between atoms: C_23  and  C_24
REMARK                            x       y       z     vdW  Elec       q    Type
REMARK                         _______ _______ _______ _____ _____    ______ ____
ROOT
ATOM      1  N   UNL     1       6.150   6.522  17.349  0.00  0.00    +0.000 N 
ATOM      2  C   UNL     1       5.708   5.226  17.294  0.00  0.00    +0.000 C 
ATOM      3  O   UNL     1       6.394   4.317  16.834  0.00  0.00    +0.000 OA
ATOM      4  H   UNL     1       5.510   7.257  17.644  0.00  0.00    +0.000 HD
ENDROOT
BRANCH   2   5
ATOM      5  C   UNL     1       4.340   4.979  17.829  0.00  0.00    +0.000 A 
ATOM      6  C   UNL     1       3.476   4.289  17.070  0.00  0.00    +0.000 A 
ATOM      7  N   UNL     1       2.183   3.983  17.410  0.00  0.00    +0.000 NA
ATOM      8  C   UNL     1       1.753   4.461  18.527  0.00  0.00    +0.000 A 
ATOM      9  N   UNL     1       2.501   5.211  19.398  0.00  0.00    +0.000 N 
ATOM     10  C   UNL     1       3.840   5.451  19.143  0.00  0.00    +0.000 A 
ATOM     11  O   UNL     1       4.592   6.016  19.937  0.00  0.00    +0.000 OA
BRANCH   9  12
ATOM     12  C   UNL     1       1.875   5.779  20.587  0.00  0.00    +0.000 C 
BRANCH  12  13
ATOM     13  C   UNL     1       1.487   7.225  20.351  0.00  0.00    +0.000 A 
ATOM     14  C   UNL     1       1.747   7.847  19.115  0.00  0.00    +0.000 A 
ATOM     15  C   UNL     1       1.509   9.214  18.944  0.00  0.00    +0.000 A 
ATOM     16  C   UNL     1       1.005   9.963  20.002  0.00  0.00    +0.000 A 
ATOM     17  F   UNL     1       0.816  11.280  19.844  0.00  0.00    +0.000 F 
ATOM     18  C   UNL     1       0.711   9.353  21.215  0.00  0.00    +0.000 A 
ATOM     19  F   UNL     1       0.217  10.074  22.230  0.00  0.00    +0.000 F 
ATOM     20  C   UNL     1       0.946   7.992  21.396  0.00  0.00    +0.000 A 
ENDBRANCH  12  13
ENDBRANCH   9  12
ENDBRANCH   2   5
BRANCH   1  21
ATOM     21  C   UNL     1       7.433   6.885  16.803  0.00  0.00    +0.000 C 
BRANCH  21  23
ATOM     22  C   UNL     1       8.431   9.198  18.078  0.00  0.00    +0.000 C 
ATOM     23  C   UNL     1       7.971   8.130  17.489  0.00  0.00    +0.000 C 
BRANCH  22  30
ATOM     24  C   UNL     1      10.350  14.899  18.426  0.00  0.00    +0.000 A 
ATOM     25  C   UNL     1      10.701  14.863  19.760  0.00  0.00    +0.000 A 
ATOM     26  N   UNL     1      10.547  13.749  20.515  0.00  0.00    +0.000 NA
ATOM     27  C   UNL     1      10.032  12.672  19.893  0.00  0.00    +0.000 A 
ATOM     28  C   UNL     1       9.833  11.511  20.626  0.00  0.00    +0.000 A 
ATOM     29  C   UNL     1       9.297  10.365  20.038  0.00  0.00    +0.000 A 
ATOM     30  C   UNL     1       8.963  10.378  18.688  0.00  0.00    +0.000 A 
ATOM     31  C   UNL     1       9.164  11.541  17.937  0.00  0.00    +0.000 A 
ATOM     32  C   UNL     1       9.683  12.697  18.515  0.00  0.00    +0.000 A 
ATOM     33  N   UNL     1       9.838  13.816  17.771  0.00  0.00    +0.000 NA
BRANCH  24  36
ATOM     34  C   UNL     1      10.528  18.623  17.806  0.00  0.00    +0.000 C 
ATOM     35  N   UNL     1      10.384  17.325  18.408  0.00  0.00    +0.000 N 
ATOM     36  C   UNL     1      10.507  16.171  17.666  0.00  0.00    +0.000 C 
ATOM     37  O   UNL     1      10.741  16.161  16.460  0.00  0.00    +0.000 OA
ATOM     38  H   UNL     1      10.202  17.226  19.404  0.00  0.00    +0.000 HD
ENDBRANCH  24  36
ENDBRANCH  22  30
ENDBRANCH  21  23
ENDBRANCH   1  21
TORSDOF 7
ENDMDL
MODEL 3
REMARK VINA RESULT:      -8.3      5.695     10.314
REMARK  Name = 
REMARK  8 active torsions:
REMARK  status: ('A' for Active; 'I' for Inactive)
REMARK    1  A    between atoms: C_1  and  N_2
REMARK    2  A    between atoms: C_3  and  C_5
REMARK    3  A    between atoms: C_11  and  C_12
REMARK    4  A    between atoms: C_13  and  C_14
REMARK    5  A    between atoms: C_14  and  N_15
REMARK    6  A    between atoms: C_16  and  C_18
REMARK    7  A    between atoms: N_22  and  C_23
REMARK    8  A    between atoms: C_23  and  C_24
REMARK                            x       y       z     vdW  Elec       q    Type
REMARK                         _______ _______ _______ _____ _____    ______ ____
ROOT
ATOM      1  N   UNL     1       0.599  11.444  18.472  0.00  0.00    +0.000 N 
ATOM      2  C   UNL     1       0.892  10.907  19.699  0.00  0.00    +0.000 C 
ATOM      3  O   UNL     1       0.832  11.565  20.735  0.00  0.00    +0.000 OA
ATOM      4  H   UNL     1       0.760  10.891  17.633  0.00  0.00    +0.000 HD
ENDROOT
BRANCH   2   5
ATOM      5  C   UNL     1       1.288   9.472  19.707  0.00  0.00    +0.000 A 
ATOM      6  C   UNL     1       1.096   8.766  20.831  0.00  0.00    +0.000 A 
ATOM      7  N   UNL     1       1.411   7.443  21.006  0.00  0.00    +0.000 NA
ATOM      8  C   UNL     1       2.002   6.856  20.021  0.00  0.00    +0.000 A 
ATOM      9  N   UNL     1       2.297   7.449  18.820  0.00  0.00    +0.000 N 
ATOM     10  C   UNL     1       1.900   8.750  18.565  0.00  0.00    +0.000 A 
ATOM     11  O   UNL     1       2.032   9.299  17.471  0.00  0.00    +0.000 OA
BRANCH   9  12
ATOM     12  C   UNL     1       3.056   6.712  17.817  0.00  0.00    +0.000 C 
BRANCH  12  13
ATOM     13  C   UNL     1       3.129   5.239  18.173  0.00  0.00    +0.000 A 
ATOM     14  C   UNL     1       4.350   4.651  18.550  0.00  0.00    +0.000 A 
ATOM     15  C   UNL     1       4.442   3.270  18.750  0.00  0.00    +0.000 A 
ATOM     16  C   UNL     1       3.314   2.474  18.581  0.00  0.00    +0.000 A 
ATOM     17  F   UNL     1       3.417   1.147  18.734  0.00  0.00    +0.000 F 
ATOM     18  C   UNL     1       2.095   3.048  18.242  0.00  0.00    +0.000 A 
ATOM     19  F   UNL     1       1.008   2.280  18.087  0.00  0.00    +0.000 F 
ATOM     20  C   UNL     1       1.994   4.423  18.039  0.00  0.00    +0.000 A 
ENDBRANCH  12  13
ENDBRANCH   9  12
ENDBRANCH   2   5
BRANCH   1  21
ATOM     21  C   UNL     1       0.264  12.840  18.342  0.00  0.00    +0.000 C 
BRANCH  21  23
ATOM     22  C   UNL     1       2.572  14.441  18.631  0.00  0.00    +0.000 C 
ATOM     23  C   UNL     1       1.506  13.701  18.497  0.00  0.00    +0.000 C 
BRANCH  22  30
ATOM     24  C   UNL     1       8.333  16.089  18.003  0.00  0.00    +0.000 A 
ATOM     25  C   UNL     1       8.214  17.310  18.637  0.00  0.00    +0.000 A 
ATOM     26  N   UNL     1       7.038  17.745  19.145  0.00  0.00    +0.000 NA
ATOM     27  C   UNL     1       5.983  16.922  19.000  0.00  0.00    +0.000 A 
ATOM     28  C   UNL     1       4.747  17.330  19.483  0.00  0.00    +0.000 A 
ATOM     29  C   UNL     1       3.616  16.523  19.356  0.00  0.00    +0.000 A 
ATOM     30  C   UNL     1       3.726  15.279  18.744  0.00  0.00    +0.000 A 
ATOM     31  C   UNL     1       4.967  14.854  18.258  0.00  0.00    +0.000 A 
ATOM     32  C   UNL     1       6.100  15.657  18.363  0.00  0.00    +0.000 A 
ATOM     33  N   UNL     1       7.281  15.232  17.856  0.00  0.00    +0.000 NA
BRANCH  24  36
ATOM     34  C   UNL     1      11.162  13.819  16.937  0.00  0.00    +0.000 C 
ATOM     35  N   UNL     1       9.932  14.344  17.470  0.00  0.00    +0.000 N 
ATOM     36  C   UNL     1       9.649  15.691  17.430  0.00  0.00    +0.000 C 
ATOM     37  O   UNL     1      10.407  16.531  16.950  0.00  0.00    +0.000 OA
ATOM     38  H   UNL     1       9.232  13.729  17.877  0.00  0.00    +0.000 HD
ENDBRANCH  24  36
ENDBRANCH  22  30
ENDBRANCH  21  23
ENDBRANCH   1  21
TORSDOF 7
ENDMDL
MODEL 4
REMARK VINA RESULT:      -8.2      3.949     10.394
REMARK  Name = 
REMARK  8 active torsions:
REMARK  status: ('A' for Active; 'I' for Inactive)
REMARK    1  A    between atoms: C_1  and  N_2
REMARK    2  A    between atoms: C_3  and  C_5
REMARK    3  A    between atoms: C_11  and  C_12
REMARK    4  A    between atoms: C_13  and  C_14
REMARK    5  A    between atoms: C_14  and  N_15
REMARK    6  A    between atoms: C_16  and  C_18
REMARK    7  A    between atoms: N_22  and  C_23
REMARK    8  A    between atoms: C_23  and  C_24
REMARK                            x       y       z     vdW  Elec       q    Type
REMARK                         _______ _______ _______ _____ _____    ______ ____
ROOT
ATOM      1  N   UNL     1       1.940   6.452  20.331  0.00  0.00    +0.000 N 
ATOM      2  C   UNL     1       1.635   5.138  20.086  0.00  0.00    +0.000 C 
ATOM      3  O   UNL     1       0.704   4.564  20.645  0.00  0.00    +0.000 OA
ATOM      4  H   UNL     1       2.780   6.855  19.922  0.00  0.00    +0.000 HD
ENDROOT
BRANCH   2   5
ATOM      5  C   UNL     1       2.501   4.440  19.095  0.00  0.00    +0.000 A 
ATOM      6  C   UNL     1       2.535   3.100  19.113  0.00  0.00    +0.000 A 
ATOM      7  N   UNL     1       3.282   2.309  18.278  0.00  0.00    +0.000 NA
ATOM      8  C   UNL     1       4.062   2.919  17.453  0.00  0.00    +0.000 A 
ATOM      9  N   UNL     1       4.165   4.282  17.334  0.00  0.00    +0.000 N 
ATOM     10  C   UNL     1       3.352   5.113  18.083  0.00  0.00    +0.000 A 
ATOM     11  O   UNL     1       3.314   6.335  17.941  0.00  0.00    +0.000 OA
BRANCH   9  12
ATOM     12  C   UNL     1       5.156   4.856  16.431  0.00  0.00    +0.000 C 
BRANCH  12  13
ATOM     13  C   UNL     1       6.123   5.744  17.189  0.00  0.00    +0.000 A 
ATOM     14  C   UNL     1       6.353   7.071  16.779  0.00  0.00    +0.000 A 
ATOM     15  C   UNL     1       7.341   7.844  17.397  0.00  0.00    +0.000 A 
ATOM     16  C   UNL     1       8.096   7.299  18.429  0.00  0.00    +0.000 A 
ATOM     17  F   UNL     1       9.068   8.032  18.991  0.00  0.00    +0.000 F 
ATOM     18  C   UNL     1       7.854   6.003  18.866  0.00  0.00    +0.000 A 
ATOM     19  F   UNL     1       8.578   5.483  19.866  0.00  0.00    +0.000 F 
ATOM     20  C   UNL     1       6.874   5.223  18.256  0.00  0.00    +0.000 A 
ENDBRANCH  12  13
ENDBRANCH   9  12
ENDBRANCH   2   5
BRANCH   1  21
ATOM     21  C   UNL     1       1.206   7.204  21.317  0.00  0.00    +0.000 C 
BRANCH  21  23
ATOM     22  C   UNL     1       0.723   9.829  20.397  0.00  0.00    +0.000 C 
ATOM     23  C   UNL     1       0.946   8.617  20.822  0.00  0.00    +0.000 C 
BRANCH  22  30
ATOM     24  C   UNL     1       2.144  15.501  18.943  0.00  0.00    +0.000 A 
ATOM     25  C   UNL     1       0.860  15.909  18.640  0.00  0.00    +0.000 A 
ATOM     26  N   UNL     1      -0.200  15.073  18.730  0.00  0.00    +0.000 NA
ATOM     27  C   UNL     1       0.061  13.816  19.133  0.00  0.00    +0.000 A 
ATOM     28  C   UNL     1      -0.987  12.912  19.221  0.00  0.00    +0.000 A 
ATOM     29  C   UNL     1      -0.776  11.594  19.627  0.00  0.00    +0.000 A 
ATOM     30  C   UNL     1       0.507  11.175  19.961  0.00  0.00    +0.000 A 
ATOM     31  C   UNL     1       1.572  12.079  19.882  0.00  0.00    +0.000 A 
ATOM     32  C   UNL     1       1.378  13.393  19.462  0.00  0.00    +0.000 A 
ATOM     33  N   UNL     1       2.432  14.236  19.367  0.00  0.00    +0.000 NA
BRANCH  24  36
ATOM     34  C   UNL     1       5.385  17.283  19.725  0.00  0.00    +0.000 C 
ATOM     35  N   UNL     1       4.233  16.421  19.765  0.00  0.00    +0.000 N 
ATOM     36  C   UNL     1       3.270  16.462  18.781  0.00  0.00    +0.000 C 
ATOM     37  O   UNL     1       3.317  17.223  17.817  0.00  0.00    +0.000 OA
ATOM     38  H   UNL     1       4.109  15.746  20.516  0.00  0.00    +0.000 HD
ENDBRANCH  24  36
ENDBRANCH  22  30
ENDBRANCH  21  23
ENDBRANCH   1  21
TORSDOF 7
ENDMDL
MODEL 5
REMARK VINA RESULT:      -8.1      5.073     12.068
REMARK  Name = 
REMARK  8 active torsions:
REMARK  status: ('A' for Active; 'I' for Inactive)
REMARK    1  A    between atoms: C_1  and  N_2
REMARK    2  A    between atoms: C_3  and  C_5
REMARK    3  A    between atoms: C_11  and  C_12
REMARK    4  A    between atoms: C_13  and  C_14
REMARK    5  A    between atoms: C_14  and  N_15
REMARK    6  A    between atoms: C_16  and  C_18
REMARK    7  A    between atoms: N_22  and  C_23
REMARK    8  A    between atoms: C_23  and  C_24
REMARK                            x       y       z     vdW  Elec       q    Type
REMARK                         _______ _______ _______ _____ _____    ______ ____
ROOT
ATOM      1  N   UNL     1       2.668   8.374  17.817  0.00  0.00    +0.000 N 
ATOM      2  C   UNL     1       2.478   7.289  18.633  0.00  0.00    +0.000 C 
ATOM      3  O   UNL     1       2.016   7.394  19.766  0.00  0.00    +0.000 OA
ATOM      4  H   UNL     1       3.147   8.252  16.926  0.00  0.00    +0.000 HD
ENDROOT
BRANCH   2   5
ATOM      5  C   UNL     1       2.862   5.968  18.064  0.00  0.00    +0.000 A 
ATOM      6  C   UNL     1       1.898   5.060  17.857  0.00  0.00    +0.000 A 
ATOM      7  N   UNL     1       2.083   3.799  17.350  0.00  0.00    +0.000 NA
ATOM      8  C   UNL     1       3.301   3.446  17.117  0.00  0.00    +0.000 A 
ATOM      9  N   UNL     1       4.399   4.247  17.306  0.00  0.00    +0.000 N 
ATOM     10  C   UNL     1       4.245   5.560  17.715  0.00  0.00    +0.000 A 
ATOM     11  O   UNL     1       5.176   6.361  17.792  0.00  0.00    +0.000 OA
BRANCH   9  12
ATOM     12  C   UNL     1       5.735   3.702  17.099  0.00  0.00    +0.000 C 
BRANCH  12  13
ATOM     13  C   UNL     1       6.209   3.963  15.683  0.00  0.00    +0.000 A 
ATOM     14  C   UNL     1       7.263   4.861  15.431  0.00  0.00    +0.000 A 
ATOM     15  C   UNL     1       7.610   5.199  14.120  0.00  0.00    +0.000 A 
ATOM     16  C   UNL     1       6.911   4.638  13.056  0.00  0.00    +0.000 A 
ATOM     17  F   UNL     1       7.222   4.997  11.803  0.00  0.00    +0.000 F 
ATOM     18  C   UNL     1       5.892   3.724  13.292  0.00  0.00    +0.000 A 
ATOM     19  F   UNL     1       5.226   3.179  12.265  0.00  0.00    +0.000 F 
ATOM     20  C   UNL     1       5.538   3.382  14.594  0.00  0.00    +0.000 A 
ENDBRANCH  12  13
ENDBRANCH   9  12
ENDBRANCH   2   5
BRANCH   1  21
ATOM     21  C   UNL     1       2.387   9.707  18.288  0.00  0.00    +0.000 C 
BRANCH  21  23
ATOM     22  C   UNL     1      -0.381  10.242  18.145  0.00  0.00    +0.000 C 
ATOM     23  C   UNL     1       0.897   9.995  18.210  0.00  0.00    +0.000 C 
BRANCH  22  30
ATOM     24  C   UNL     1      -5.666  12.854  19.394  0.00  0.00    +0.000 A 
ATOM     25  C   UNL     1      -6.408  12.152  18.466  0.00  0.00    +0.000 A 
ATOM     26  N   UNL     1      -5.852  11.221  17.656  0.00  0.00    +0.000 NA
ATOM     27  C   UNL     1      -4.531  11.014  17.801  0.00  0.00    +0.000 A 
ATOM     28  C   UNL     1      -3.906  10.087  16.979  0.00  0.00    +0.000 A 
ATOM     29  C   UNL     1      -2.538   9.834  17.079  0.00  0.00    +0.000 A 
ATOM     30  C   UNL     1      -1.781  10.514  18.027  0.00  0.00    +0.000 A 
ATOM     31  C   UNL     1      -2.400  11.448  18.865  0.00  0.00    +0.000 A 
ATOM     32  C   UNL     1      -3.762  11.722  18.765  0.00  0.00    +0.000 A 
ATOM     33  N   UNL     1      -4.327  12.652  19.569  0.00  0.00    +0.000 NA
BRANCH  24  36
ATOM     34  C   UNL     1      -6.772  16.295  20.498  0.00  0.00    +0.000 C 
ATOM     35  N   UNL     1      -6.168  15.193  19.799  0.00  0.00    +0.000 N 
ATOM     36  C   UNL     1      -6.334  13.894  20.225  0.00  0.00    +0.000 C 
ATOM     37  O   UNL     1      -6.995  13.583  21.213  0.00  0.00    +0.000 OA
ATOM     38  H   UNL     1      -5.612  15.344  18.960  0.00  0.00    +0.000 HD
ENDBRANCH  24  36
ENDBRANCH  22  30
ENDBRANCH  21  23
ENDBRANCH   1  21
TORSDOF 7
ENDMDL
MODEL 6
REMARK VINA RESULT:      -8.1      5.547     10.438
REMARK  Name = 
REMARK  8 active torsions:
REMARK  status: ('A' for Active; 'I' for Inactive)
REMARK    1  A    between atoms: C_1  and  N_2
REMARK    2  A    between atoms: C_3  and  C_5
REMARK    3  A    between atoms: C_11  and  C_12
REMARK    4  A    between atoms: C_13  and  C_14
REMARK    5  A    between atoms: C_14  and  N_15
REMARK    6  A    between atoms: C_16  and  C_18
REMARK    7  A    between atoms: N_22  and  C_23
REMARK    8  A    between atoms: C_23  and  C_24
REMARK                            x       y       z     vdW  Elec       q    Type
REMARK                         _______ _______ _______ _____ _____    ______ ____
ROOT
ATOM      1  N   UNL     1       0.364  10.898  18.422  0.00  0.00    +0.000 N 
ATOM      2  C   UNL     1       0.769  10.408  19.636  0.00  0.00    +0.000 C 
ATOM      3  O   UNL     1       0.690  11.067  20.669  0.00  0.00    +0.000 OA
ATOM      4  H   UNL     1       0.542  10.356  17.579  0.00  0.00    +0.000 HD
ENDROOT
BRANCH   2   5
ATOM      5  C   UNL     1       1.312   9.021  19.633  0.00  0.00    +0.000 A 
ATOM      6  C   UNL     1       1.114   8.259  20.718  0.00  0.00    +0.000 A 
ATOM      7  N   UNL     1       1.553   6.970  20.879  0.00  0.00    +0.000 NA
ATOM      8  C   UNL     1       2.271   6.483  19.926  0.00  0.00    +0.000 A 
ATOM      9  N   UNL     1       2.589   7.146  18.767  0.00  0.00    +0.000 N 
ATOM     10  C   UNL     1       2.077   8.408  18.521  0.00  0.00    +0.000 A 
ATOM     11  O   UNL     1       2.230   9.007  17.456  0.00  0.00    +0.000 OA
BRANCH   9  12
ATOM     12  C   UNL     1       3.492   6.527  17.804  0.00  0.00    +0.000 C 
BRANCH  12  13
ATOM     13  C   UNL     1       3.496   5.019  17.963  0.00  0.00    +0.000 A 
ATOM     14  C   UNL     1       2.551   4.222  17.290  0.00  0.00    +0.000 A 
ATOM     15  C   UNL     1       2.472   2.849  17.540  0.00  0.00    +0.000 A 
ATOM     16  C   UNL     1       3.340   2.266  18.456  0.00  0.00    +0.000 A 
ATOM     17  F   UNL     1       3.234   0.956  18.720  0.00  0.00    +0.000 F 
ATOM     18  C   UNL     1       4.300   3.036  19.100  0.00  0.00    +0.000 A 
ATOM     19  F   UNL     1       5.141   2.470  19.976  0.00  0.00    +0.000 F 
ATOM     20  C   UNL     1       4.386   4.405  18.859  0.00  0.00    +0.000 A 
ENDBRANCH  12  13
ENDBRANCH   9  12
ENDBRANCH   2   5
BRANCH   1  21
ATOM     21  C   UNL     1      -0.120  12.250  18.299  0.00  0.00    +0.000 C 
BRANCH  21  23
ATOM     22  C   UNL     1       2.014  14.087  18.509  0.00  0.00    +0.000 C 
ATOM     23  C   UNL     1       1.029  13.238  18.413  0.00  0.00    +0.000 C 
BRANCH  22  30
ATOM     24  C   UNL     1       7.753  15.893  18.175  0.00  0.00    +0.000 A 
ATOM     25  C   UNL     1       7.535  17.182  18.618  0.00  0.00    +0.000 A 
ATOM     26  N   UNL     1       6.303  17.629  18.954  0.00  0.00    +0.000 NA
ATOM     27  C   UNL     1       5.293  16.747  18.832  0.00  0.00    +0.000 A 
ATOM     28  C   UNL     1       4.005  17.161  19.140  0.00  0.00    +0.000 A 
ATOM     29  C   UNL     1       2.918  16.293  19.028  0.00  0.00    +0.000 A 
ATOM     30  C   UNL     1       3.125  14.984  18.607  0.00  0.00    +0.000 A 
ATOM     31  C   UNL     1       4.420  14.553  18.298  0.00  0.00    +0.000 A 
ATOM     32  C   UNL     1       5.511  15.414  18.390  0.00  0.00    +0.000 A 
ATOM     33  N   UNL     1       6.748  14.977  18.056  0.00  0.00    +0.000 NA
BRANCH  24  36
ATOM     34  C   UNL     1      11.329  16.249  17.004  0.00  0.00    +0.000 C 
ATOM     35  N   UNL     1       9.968  16.502  17.393  0.00  0.00    +0.000 N 
ATOM     36  C   UNL     1       9.130  15.481  17.783  0.00  0.00    +0.000 C 
ATOM     37  O   UNL     1       9.471  14.301  17.825  0.00  0.00    +0.000 OA
ATOM     38  H   UNL     1       9.592  17.448  17.405  0.00  0.00    +0.000 HD
ENDBRANCH  24  36
ENDBRANCH  22  30
ENDBRANCH  21  23
ENDBRANCH   1  21
TORSDOF 7
ENDMDL
MODEL 7
REMARK VINA RESULT:      -8.0      3.368      4.880
REMARK  Name = 
REMARK  8 active torsions:
REMARK  status: ('A' for Active; 'I' for Inactive)
REMARK    1  A    between atoms: C_1  and  N_2
REMARK    2  A    between atoms: C_3  and  C_5
REMARK    3  A    between atoms: C_11  and  C_12
REMARK    4  A    between atoms: C_13  and  C_14
REMARK    5  A    between atoms: C_14  and  N_15
REMARK    6  A    between atoms: C_16  and  C_18
REMARK    7  A    between atoms: N_22  and  C_23
REMARK    8  A    between atoms: C_23  and  C_24
REMARK                            x       y       z     vdW  Elec       q    Type
REMARK                         _______ _______ _______ _____ _____    ______ ____
ROOT
ATOM      1  N   UNL     1       0.851  12.216  18.930  0.00  0.00    +0.000 N 
ATOM      2  C   UNL     1       1.351  12.811  20.059  0.00  0.00    +0.000 C 
ATOM      3  O   UNL     1       1.211  12.321  21.176  0.00  0.00    +0.000 OA
ATOM      4  H   UNL     1       0.904  12.709  18.040  0.00  0.00    +0.000 HD
ENDROOT
BRANCH   2   5
ATOM      5  C   UNL     1       2.081  14.092  19.854  0.00  0.00    +0.000 A 
ATOM      6  C   UNL     1       1.636  14.934  18.909  0.00  0.00    +0.000 A 
ATOM      7  N   UNL     1       2.195  16.144  18.590  0.00  0.00    +0.000 NA
ATOM      8  C   UNL     1       3.279  16.460  19.213  0.00  0.00    +0.000 A 
ATOM      9  N   UNL     1       3.877  15.694  20.181  0.00  0.00    +0.000 N 
ATOM     10  C   UNL     1       3.286  14.518  20.607  0.00  0.00    +0.000 A 
ATOM     11  O   UNL     1       3.710  13.846  21.547  0.00  0.00    +0.000 OA
BRANCH   9  12
ATOM     12  C   UNL     1       5.155  16.111  20.746  0.00  0.00    +0.000 C 
BRANCH  12  13
ATOM     13  C   UNL     1       6.235  16.122  19.681  0.00  0.00    +0.000 A 
ATOM     14  C   UNL     1       6.646  14.928  19.062  0.00  0.00    +0.000 A 
ATOM     15  C   UNL     1       7.730  14.922  18.179  0.00  0.00    +0.000 A 
ATOM     16  C   UNL     1       8.402  16.109  17.906  0.00  0.00    +0.000 A 
ATOM     17  F   UNL     1       9.465  16.090  17.090  0.00  0.00    +0.000 F 
ATOM     18  C   UNL     1       7.983  17.300  18.485  0.00  0.00    +0.000 A 
ATOM     19  F   UNL     1       8.627  18.443  18.214  0.00  0.00    +0.000 F 
ATOM     20  C   UNL     1       6.906  17.316  19.367  0.00  0.00    +0.000 A 
ENDBRANCH  12  13
ENDBRANCH   9  12
ENDBRANCH   2   5
BRANCH   1  21
ATOM     21  C   UNL     1       0.075  11.005  19.019  0.00  0.00    +0.000 C 
BRANCH  21  23
ATOM     22  C   UNL     1       1.747   8.742  18.785  0.00  0.00    +0.000 C 
ATOM     23  C   UNL     1       0.975   9.786  18.893  0.00  0.00    +0.000 C 
BRANCH  22  30
ATOM     24  C   UNL     1       5.659   5.024  16.105  0.00  0.00    +0.000 A 
ATOM     25  C   UNL     1       5.663   4.064  17.097  0.00  0.00    +0.000 A 
ATOM     26  N   UNL     1       4.918   4.186  18.220  0.00  0.00    +0.000 NA
ATOM     27  C   UNL     1       4.168   5.299  18.322  0.00  0.00    +0.000 A 
ATOM     28  C   UNL     1       3.403   5.485  19.464  0.00  0.00    +0.000 A 
ATOM     29  C   UNL     1       2.610   6.621  19.629  0.00  0.00    +0.000 A 
ATOM     30  C   UNL     1       2.574   7.585  18.627  0.00  0.00    +0.000 A 
ATOM     31  C   UNL     1       3.338   7.406  17.468  0.00  0.00    +0.000 A 
ATOM     32  C   UNL     1       4.146   6.285  17.298  0.00  0.00    +0.000 A 
ATOM     33  N   UNL     1       4.896   6.154  16.180  0.00  0.00    +0.000 NA
BRANCH  24  36
ATOM     34  C   UNL     1       6.732   3.857  12.674  0.00  0.00    +0.000 C 
ATOM     35  N   UNL     1       6.000   4.096  13.889  0.00  0.00    +0.000 N 
ATOM     36  C   UNL     1       6.536   4.845  14.914  0.00  0.00    +0.000 C 
ATOM     37  O   UNL     1       7.654   5.352  14.872  0.00  0.00    +0.000 OA
ATOM     38  H   UNL     1       5.060   3.730  14.017  0.00  0.00    +0.000 HD
ENDBRANCH  24  36
ENDBRANCH  22  30
ENDBRANCH  21  23
ENDBRANCH   1  21
TORSDOF 7
ENDMDL
MODEL 8
REMARK VINA RESULT:      -8.0      3.423      5.018
REMARK  Name = 
REMARK  8 active torsions:
REMARK  status: ('A' for Active; 'I' for Inactive)
REMARK    1  A    between atoms: C_1  and  N_2
REMARK    2  A    between atoms: C_3  and  C_5
REMARK    3  A    between atoms: C_11  and  C_12
REMARK    4  A    between atoms: C_13  and  C_14
REMARK    5  A    between atoms: C_14  and  N_15
REMARK    6  A    between atoms: C_16  and  C_18
REMARK    7  A    between atoms: N_22  and  C_23
REMARK    8  A    between atoms: C_23  and  C_24
REMARK                            x       y       z     vdW  Elec       q    Type
REMARK                         _______ _______ _______ _____ _____    ______ ____
ROOT
ATOM      1  N   UNL     1       0.682  12.141  19.153  0.00  0.00    +0.000 N 
ATOM      2  C   UNL     1       1.359  12.717  20.197  0.00  0.00    +0.000 C 
ATOM      3  O   UNL     1       1.386  12.216  21.318  0.00  0.00    +0.000 OA
ATOM      4  H   UNL     1       0.603  12.643  18.271  0.00  0.00    +0.000 HD
ENDROOT
BRANCH   2   5
ATOM      5  C   UNL     1       2.067  13.991  19.893  0.00  0.00    +0.000 A 
ATOM      6  C   UNL     1       1.551  14.796  18.952  0.00  0.00    +0.000 A 
ATOM      7  N   UNL     1       2.080  15.995  18.550  0.00  0.00    +0.000 NA
ATOM      8  C   UNL     1       3.205  16.336  19.082  0.00  0.00    +0.000 A 
ATOM      9  N   UNL     1       3.874  15.607  20.032  0.00  0.00    +0.000 N 
ATOM     10  C   UNL     1       3.321  14.446  20.542  0.00  0.00    +0.000 A 
ATOM     11  O   UNL     1       3.813  13.810  21.474  0.00  0.00    +0.000 OA
BRANCH   9  12
ATOM     12  C   UNL     1       5.187  16.047  20.488  0.00  0.00    +0.000 C 
BRANCH  12  13
ATOM     13  C   UNL     1       6.288  15.350  19.711  0.00  0.00    +0.000 A 
ATOM     14  C   UNL     1       6.133  15.070  18.341  0.00  0.00    +0.000 A 
ATOM     15  C   UNL     1       7.090  14.313  17.658  0.00  0.00    +0.000 A 
ATOM     16  C   UNL     1       8.206  13.839  18.339  0.00  0.00    +0.000 A 
ATOM     17  F   UNL     1       9.099  13.081  17.689  0.00  0.00    +0.000 F 
ATOM     18  C   UNL     1       8.386  14.139  19.683  0.00  0.00    +0.000 A 
ATOM     19  F   UNL     1       9.467  13.689  20.335  0.00  0.00    +0.000 F 
ATOM     20  C   UNL     1       7.439  14.891  20.373  0.00  0.00    +0.000 A 
ENDBRANCH  12  13
ENDBRANCH   9  12
ENDBRANCH   2   5
BRANCH   1  21
ATOM     21  C   UNL     1      -0.088  10.939  19.350  0.00  0.00    +0.000 C 
BRANCH  21  23
ATOM     22  C   UNL     1       1.550   8.658  19.060  0.00  0.00    +0.000 C 
ATOM     23  C   UNL     1       0.793   9.711  19.194  0.00  0.00    +0.000 C 
BRANCH  22  30
ATOM     24  C   UNL     1       5.554   5.091  16.313  0.00  0.00    +0.000 A 
ATOM     25  C   UNL     1       5.555   4.095  17.269  0.00  0.00    +0.000 A 
ATOM     26  N   UNL     1       4.790   4.166  18.383  0.00  0.00    +0.000 NA
ATOM     27  C   UNL     1       4.024   5.265  18.513  0.00  0.00    +0.000 A 
ATOM     28  C   UNL     1       3.237   5.399  19.648  0.00  0.00    +0.000 A 
ATOM     29  C   UNL     1       2.427   6.518  19.841  0.00  0.00    +0.000 A 
ATOM     30  C   UNL     1       2.395   7.518  18.874  0.00  0.00    +0.000 A 
ATOM     31  C   UNL     1       3.180   7.392  17.723  0.00  0.00    +0.000 A 
ATOM     32  C   UNL     1       4.006   6.288  17.526  0.00  0.00    +0.000 A 
ATOM     33  N   UNL     1       4.776   6.208  16.416  0.00  0.00    +0.000 NA
BRANCH  24  36
ATOM     34  C   UNL     1       6.705   4.054  12.865  0.00  0.00    +0.000 C 
ATOM     35  N   UNL     1       5.950   4.240  14.075  0.00  0.00    +0.000 N 
ATOM     36  C   UNL     1       6.453   4.967  15.132  0.00  0.00    +0.000 C 
ATOM     37  O   UNL     1       7.561   5.498  15.123  0.00  0.00    +0.000 OA
ATOM     38  H   UNL     1       5.015   3.852  14.176  0.00  0.00    +0.000 HD
ENDBRANCH  24  36
ENDBRANCH  22  30
ENDBRANCH  21  23
ENDBRANCH   1  21
TORSDOF 7
ENDMDL
MODEL 9
REMARK VINA RESULT:      -8.0      4.304     10.876
REMARK  Name = 
REMARK  8 active torsions:
REMARK  status: ('A' for Active; 'I' for Inactive)
REMARK    1  A    between atoms: C_1  and  N_2
REMARK    2  A    between atoms: C_3  and  C_5
REMARK    3  A    between atoms: C_11  and  C_12
REMARK    4  A    between atoms: C_13  and  C_14
REMARK    5  A    between atoms: C_14  and  N_15
REMARK    6  A    between atoms: C_16  and  C_18
REMARK    7  A    between atoms: N_22  and  C_23
REMARK    8  A    between atoms: C_23  and  C_24
REMARK                            x       y       z     vdW  Elec       q    Type
REMARK                         _______ _______ _______ _____ _____    ______ ____
ROOT
ATOM      1  N   UNL     1       1.941   6.880  20.662  0.00  0.00    +0.000 N 
ATOM      2  C   UNL     1       1.953   5.538  20.386  0.00  0.00    +0.000 C 
ATOM      3  O   UNL     1       1.001   4.806  20.645  0.00  0.00    +0.000 OA
ATOM      4  H   UNL     1       2.789   7.426  20.524  0.00  0.00    +0.000 HD
ENDROOT
BRANCH   2   5
ATOM      5  C   UNL     1       3.192   5.012  19.748  0.00  0.00    +0.000 A 
ATOM      6  C   UNL     1       3.618   3.790  20.100  0.00  0.00    +0.000 A 
ATOM      7  N   UNL     1       4.739   3.165  19.616  0.00  0.00    +0.000 NA
ATOM      8  C   UNL     1       5.472   3.847  18.803  0.00  0.00    +0.000 A 
ATOM      9  N   UNL     1       5.189   5.119  18.372  0.00  0.00    +0.000 N 
ATOM     10  C   UNL     1       4.015   5.742  18.754  0.00  0.00    +0.000 A 
ATOM     11  O   UNL     1       3.649   6.832  18.313  0.00  0.00    +0.000 OA
BRANCH   9  12
ATOM     12  C   UNL     1       6.146   5.825  17.528  0.00  0.00    +0.000 C 
BRANCH  12  13
ATOM     13  C   UNL     1       6.139   5.261  16.120  0.00  0.00    +0.000 A 
ATOM     14  C   UNL     1       5.176   4.313  15.730  0.00  0.00    +0.000 A 
ATOM     15  C   UNL     1       5.251   3.697  14.477  0.00  0.00    +0.000 A 
ATOM     16  C   UNL     1       6.283   4.033  13.607  0.00  0.00    +0.000 A 
ATOM     17  F   UNL     1       6.373   3.410  12.423  0.00  0.00    +0.000 F 
ATOM     18  C   UNL     1       7.219   4.993  13.967  0.00  0.00    +0.000 A 
ATOM     19  F   UNL     1       8.208   5.320  13.124  0.00  0.00    +0.000 F 
ATOM     20  C   UNL     1       7.154   5.611  15.214  0.00  0.00    +0.000 A 
ENDBRANCH  12  13
ENDBRANCH   9  12
ENDBRANCH   2   5
BRANCH   1  21
ATOM     21  C   UNL     1       0.818   7.483  21.334  0.00  0.00    +0.000 C 
BRANCH  21  23
ATOM     22  C   UNL     1       0.555  10.193  20.586  0.00  0.00    +0.000 C 
ATOM     23  C   UNL     1       0.676   8.941  20.931  0.00  0.00    +0.000 C 
BRANCH  22  30
ATOM     24  C   UNL     1       2.209  15.701  18.789  0.00  0.00    +0.000 A 
ATOM     25  C   UNL     1       0.936  16.233  18.731  0.00  0.00    +0.000 A 
ATOM     26  N   UNL     1      -0.163  15.505  19.038  0.00  0.00    +0.000 NA
ATOM     27  C   UNL     1       0.049  14.227  19.405  0.00  0.00    +0.000 A 
ATOM     28  C   UNL     1      -1.045  13.430  19.708  0.00  0.00    +0.000 A 
ATOM     29  C   UNL     1      -0.887  12.097  20.088  0.00  0.00    +0.000 A 
ATOM     30  C   UNL     1       0.390  11.554  20.177  0.00  0.00    +0.000 A 
ATOM     31  C   UNL     1       1.502  12.349  19.879  0.00  0.00    +0.000 A 
ATOM     32  C   UNL     1       1.358  13.677  19.482  0.00  0.00    +0.000 A 
ATOM     33  N   UNL     1       2.450  14.413  19.171  0.00  0.00    +0.000 NA
BRANCH  24  36
ATOM     34  C   UNL     1       5.688  17.173  18.917  0.00  0.00    +0.000 C 
ATOM     35  N   UNL     1       4.489  16.426  19.191  0.00  0.00    +0.000 N 
ATOM     36  C   UNL     1       3.370  16.548  18.397  0.00  0.00    +0.000 C 
ATOM     37  O   UNL     1       3.309  17.288  17.419  0.00  0.00    +0.000 OA
ATOM     38  H   UNL     1       4.443  15.775  19.972  0.00  0.00    +0.000 HD
ENDBRANCH  24  36
ENDBRANCH  22  30
ENDBRANCH  21  23
ENDBRANCH   1  21
TORSDOF 7
ENDMDL
