MODEL 1
REMARK VINA RESULT:      -7.3      0.000      0.000
REMARK  Name = 
REMARK  4 active torsions:
REMARK  status: ('A' for Active; 'I' for Inactive)
REMARK    1  A    between atoms: C_1  and  C_2
REMARK    2  A    between atoms: N_6  and  C_7
REMARK    3  A    between atoms: C_7  and  C_8
REMARK    4  A    between atoms: C_8  and  C_9
REMARK                            x       y       z     vdW  Elec       q    Type
REMARK                         _______ _______ _______ _____ _____    ______ ____
ROOT
ATOM      1  C   UNL     1       4.069   4.295  17.639  0.00  0.00    +0.000 A 
ATOM      2  C   UNL     1       4.781   3.682  18.672  0.00  0.00    +0.000 A 
ATOM      3  C   UNL     1       5.970   4.242  19.140  0.00  0.00    +0.000 A 
ATOM      4  C   UNL     1       6.475   5.426  18.586  0.00  0.00    +0.000 A 
ATOM      5  C   UNL     1       7.666   6.002  19.053  0.00  0.00    +0.000 A 
ATOM      6  C   UNL     1       8.157   7.181  18.492  0.00  0.00    +0.000 A 
ATOM      7  C   UNL     1       7.465   7.798  17.453  0.00  0.00    +0.000 A 
ATOM      8  C   UNL     1       6.277   7.240  16.978  0.00  0.00    +0.000 A 
ATOM      9  C   UNL     1       5.768   6.056  17.537  0.00  0.00    +0.000 A 
ATOM     10  C   UNL     1       4.567   5.485  17.082  0.00  0.00    +0.000 A 
ENDROOT
BRANCH   1  11
ATOM     11  C   UNL     1       2.766   3.704  17.152  0.00  0.00    +0.000 C 
BRANCH  11  12
ATOM     12  C   UNL     1       1.544   4.336  17.845  0.00  0.00    +0.000 C 
BRANCH  12  18
ATOM     13  C   UNL     1       2.089   5.216  20.541  0.00  0.00    +0.000 C 
ATOM     14  C   UNL     1       1.001   4.169  20.270  0.00  0.00    +0.000 C 
ATOM     15  C   UNL     1       1.136   2.993  21.238  0.00  0.00    +0.000 C 
ATOM     16  C   UNL     1       2.073   2.057  20.508  0.00  0.00    +0.000 C 
ATOM     17  C   UNL     1       1.646   2.200  19.060  0.00  0.00    +0.000 C 
ATOM     18  N   UNL     1       1.016   3.521  18.942  0.00  0.00    +0.000 NA
ENDBRANCH  12  18
ENDBRANCH  11  12
ENDBRANCH   1  11
TORSDOF 3
ENDMDL
MODEL 2
REMARK VINA RESULT:      -7.2      2.127      5.934
REMARK  Name = 
REMARK  4 active torsions:
REMARK  status: ('A' for Active; 'I' for Inactive)
REMARK    1  A    between atoms: C_1  and  C_2
REMARK    2  A    between atoms: N_6  and  C_7
REMARK    3  A    between atoms: C_7  and  C_8
REMARK    4  A    between atoms: C_8  and  C_9
REMARK                            x       y       z     vdW  Elec       q    Type
REMARK                         _______ _______ _______ _____ _____    ______ ____
ROOT
ATOM      1  C   UNL     1       3.352   6.503  18.073  0.00  0.00    +0.000 A 
ATOM      2  C   UNL     1       2.856   6.934  19.305  0.00  0.00    +0.000 A 
ATOM      3  C   UNL     1       2.084   6.082  20.094  0.00  0.00    +0.000 A 
ATOM      4  C   UNL     1       1.787   4.780  19.668  0.00  0.00    +0.000 A 
ATOM      5  C   UNL     1       1.016   3.911  20.456  0.00  0.00    +0.000 A 
ATOM      6  C   UNL     1       0.728   2.618  20.020  0.00  0.00    +0.000 A 
ATOM      7  C   UNL     1       1.204   2.177  18.788  0.00  0.00    +0.000 A 
ATOM      8  C   UNL     1       1.975   3.027  17.994  0.00  0.00    +0.000 A 
ATOM      9  C   UNL     1       2.277   4.331  18.422  0.00  0.00    +0.000 A 
ATOM     10  C   UNL     1       3.062   5.198  17.643  0.00  0.00    +0.000 A 
ENDROOT
BRANCH   1  11
ATOM     11  C   UNL     1       4.214   7.417  17.233  0.00  0.00    +0.000 C 
BRANCH  11  12
ATOM     12  C   UNL     1       4.920   6.664  16.089  0.00  0.00    +0.000 C 
BRANCH  12  18
ATOM     13  C   UNL     1       5.570   3.854  15.960  0.00  0.00    +0.000 C 
ATOM     14  C   UNL     1       6.683   4.909  16.005  0.00  0.00    +0.000 C 
ATOM     15  C   UNL     1       7.747   4.521  17.032  0.00  0.00    +0.000 C 
ATOM     16  C   UNL     1       7.237   5.156  18.307  0.00  0.00    +0.000 C 
ATOM     17  C   UNL     1       6.649   6.469  17.827  0.00  0.00    +0.000 C 
ATOM     18  N   UNL     1       6.292   6.273  16.416  0.00  0.00    +0.000 NA
ENDBRANCH  12  18
ENDBRANCH  11  12
ENDBRANCH   1  11
TORSDOF 3
ENDMDL
MODEL 3
REMARK VINA RESULT:      -7.1      2.002      6.075
REMARK  Name = 
REMARK  4 active torsions:
REMARK  status: ('A' for Active; 'I' for Inactive)
REMARK    1  A    between atoms: C_1  and  C_2
REMARK    2  A    between atoms: N_6  and  C_7
REMARK    3  A    between atoms: C_7  and  C_8
REMARK    4  A    between atoms: C_8  and  C_9
REMARK                            x       y       z     vdW  Elec       q    Type
REMARK                         _______ _______ _______ _____ _____    ______ ____
ROOT
ATOM      1  C   UNL     1       4.166   4.927  17.071  0.00  0.00    +0.000 A 
ATOM      2  C   UNL     1       3.647   6.058  17.703  0.00  0.00    +0.000 A 
ATOM      3  C   UNL     1       2.668   5.932  18.689  0.00  0.00    +0.000 A 
ATOM      4  C   UNL     1       2.185   4.671  19.064  0.00  0.00    +0.000 A 
ATOM      5  C   UNL     1       1.205   4.530  20.059  0.00  0.00    +0.000 A 
ATOM      6  C   UNL     1       0.733   3.269  20.423  0.00  0.00    +0.000 A 
ATOM      7  C   UNL     1       1.232   2.131  19.794  0.00  0.00    +0.000 A 
ATOM      8  C   UNL     1       2.209   2.254  18.805  0.00  0.00    +0.000 A 
ATOM      9  C   UNL     1       2.697   3.516  18.431  0.00  0.00    +0.000 A 
ATOM     10  C   UNL     1       3.689   3.660  17.447  0.00  0.00    +0.000 A 
ENDROOT
BRANCH   1  11
ATOM     11  C   UNL     1       5.248   5.064  16.024  0.00  0.00    +0.000 C 
BRANCH  11  12
ATOM     12  C   UNL     1       6.593   4.479  16.496  0.00  0.00    +0.000 C 
BRANCH  12  18
ATOM     13  C   UNL     1       6.619   5.173  19.298  0.00  0.00    +0.000 C 
ATOM     14  C   UNL     1       7.784   5.579  18.386  0.00  0.00    +0.000 C 
ATOM     15  C   UNL     1       8.151   7.046  18.608  0.00  0.00    +0.000 C 
ATOM     16  C   UNL     1       7.262   7.773  17.622  0.00  0.00    +0.000 C 
ATOM     17  C   UNL     1       7.251   6.848  16.421  0.00  0.00    +0.000 C 
ATOM     18  N   UNL     1       7.546   5.502  16.930  0.00  0.00    +0.000 NA
ENDBRANCH  12  18
ENDBRANCH  11  12
ENDBRANCH   1  11
TORSDOF 3
ENDMDL
MODEL 4
REMARK VINA RESULT:      -7.0      3.570      5.649
REMARK  Name = 
REMARK  4 active torsions:
REMARK  status: ('A' for Active; 'I' for Inactive)
REMARK    1  A    between atoms: C_1  and  C_2
REMARK    2  A    between atoms: N_6  and  C_7
REMARK    3  A    between atoms: C_7  and  C_8
REMARK    4  A    between atoms: C_8  and  C_9
REMARK                            x       y       z     vdW  Elec       q    Type
REMARK                         _______ _______ _______ _____ _____    ______ ____
ROOT
ATOM      1  C   UNL     1       2.337   7.717  18.610  0.00  0.00    +0.000 A 
ATOM      2  C   UNL     1       1.829   8.736  17.802  0.00  0.00    +0.000 A 
ATOM      3  C   UNL     1       1.009   9.726  18.344  0.00  0.00    +0.000 A 
ATOM      4  C   UNL     1       0.677   9.719  19.705  0.00  0.00    +0.000 A 
ATOM      5  C   UNL     1      -0.142  10.712  20.263  0.00  0.00    +0.000 A 
ATOM      6  C   UNL     1      -0.464  10.694  21.620  0.00  0.00    +0.000 A 
ATOM      7  C   UNL     1       0.025   9.678  22.437  0.00  0.00    +0.000 A 
ATOM      8  C   UNL     1       0.843   8.683  21.899  0.00  0.00    +0.000 A 
ATOM      9  C   UNL     1       1.180   8.692  20.535  0.00  0.00    +0.000 A 
ATOM     10  C   UNL     1       2.012   7.707  19.977  0.00  0.00    +0.000 A 
ENDROOT
BRANCH   1  11
ATOM     11  C   UNL     1       3.250   6.662  18.028  0.00  0.00    +0.000 C 
BRANCH  11  12
ATOM     12  C   UNL     1       3.305   5.393  18.900  0.00  0.00    +0.000 C 
BRANCH  12  18
ATOM     13  C   UNL     1       1.198   4.162  20.441  0.00  0.00    +0.000 C 
ATOM     14  C   UNL     1       1.331   3.877  18.940  0.00  0.00    +0.000 C 
ATOM     15  C   UNL     1       1.226   2.377  18.668  0.00  0.00    +0.000 C 
ATOM     16  C   UNL     1       2.661   1.910  18.777  0.00  0.00    +0.000 C 
ATOM     17  C   UNL     1       3.444   3.052  18.159  0.00  0.00    +0.000 C 
ATOM     18  N   UNL     1       2.610   4.252  18.302  0.00  0.00    +0.000 NA
ENDBRANCH  12  18
ENDBRANCH  11  12
ENDBRANCH   1  11
TORSDOF 3
ENDMDL
MODEL 5
REMARK VINA RESULT:      -7.0      0.693      1.707
REMARK  Name = 
REMARK  4 active torsions:
REMARK  status: ('A' for Active; 'I' for Inactive)
REMARK    1  A    between atoms: C_1  and  C_2
REMARK    2  A    between atoms: N_6  and  C_7
REMARK    3  A    between atoms: C_7  and  C_8
REMARK    4  A    between atoms: C_8  and  C_9
REMARK                            x       y       z     vdW  Elec       q    Type
REMARK                         _______ _______ _______ _____ _____    ______ ____
ROOT
ATOM      1  C   UNL     1       4.247   4.461  17.355  0.00  0.00    +0.000 A 
ATOM      2  C   UNL     1       4.312   5.402  16.325  0.00  0.00    +0.000 A 
ATOM      3  C   UNL     1       5.320   6.365  16.310  0.00  0.00    +0.000 A 
ATOM      4  C   UNL     1       6.286   6.412  17.324  0.00  0.00    +0.000 A 
ATOM      5  C   UNL     1       7.308   7.373  17.317  0.00  0.00    +0.000 A 
ATOM      6  C   UNL     1       8.263   7.408  18.333  0.00  0.00    +0.000 A 
ATOM      7  C   UNL     1       8.205   6.484  19.374  0.00  0.00    +0.000 A 
ATOM      8  C   UNL     1       7.196   5.521  19.395  0.00  0.00    +0.000 A 
ATOM      9  C   UNL     1       6.231   5.470  18.376  0.00  0.00    +0.000 A 
ATOM     10  C   UNL     1       5.215   4.500  18.372  0.00  0.00    +0.000 A 
ENDROOT
BRANCH   1  11
ATOM     11  C   UNL     1       3.172   3.398  17.354  0.00  0.00    +0.000 C 
BRANCH  11  12
ATOM     12  C   UNL     1       1.847   3.909  17.953  0.00  0.00    +0.000 C 
BRANCH  12  18
ATOM     13  C   UNL     1       1.757   5.405  20.421  0.00  0.00    +0.000 C 
ATOM     14  C   UNL     1       1.070   4.037  20.315  0.00  0.00    +0.000 C 
ATOM     15  C   UNL     1       1.419   3.168  21.523  0.00  0.00    +0.000 C 
ATOM     16  C   UNL     1       2.677   2.455  21.077  0.00  0.00    +0.000 C 
ATOM     17  C   UNL     1       2.417   2.181  19.608  0.00  0.00    +0.000 C 
ATOM     18  N   UNL     1       1.447   3.191  19.164  0.00  0.00    +0.000 NA
ENDBRANCH  12  18
ENDBRANCH  11  12
ENDBRANCH   1  11
TORSDOF 3
ENDMDL
MODEL 6
REMARK VINA RESULT:      -7.0      2.826      4.634
REMARK  Name = 
REMARK  4 active torsions:
REMARK  status: ('A' for Active; 'I' for Inactive)
REMARK    1  A    between atoms: C_1  and  C_2
REMARK    2  A    between atoms: N_6  and  C_7
REMARK    3  A    between atoms: C_7  and  C_8
REMARK    4  A    between atoms: C_8  and  C_9
REMARK                            x       y       z     vdW  Elec       q    Type
REMARK                         _______ _______ _______ _____ _____    ______ ____
ROOT
ATOM      1  C   UNL     1       3.538   6.180  19.057  0.00  0.00    +0.000 A 
ATOM      2  C   UNL     1       3.666   6.807  17.816  0.00  0.00    +0.000 A 
ATOM      3  C   UNL     1       2.927   7.953  17.523  0.00  0.00    +0.000 A 
ATOM      4  C   UNL     1       2.043   8.499  18.463  0.00  0.00    +0.000 A 
ATOM      5  C   UNL     1       1.299   9.655  18.183  0.00  0.00    +0.000 A 
ATOM      6  C   UNL     1       0.422  10.187  19.129  0.00  0.00    +0.000 A 
ATOM      7  C   UNL     1       0.275   9.567  20.367  0.00  0.00    +0.000 A 
ATOM      8  C   UNL     1       1.009   8.418  20.663  0.00  0.00    +0.000 A 
ATOM      9  C   UNL     1       1.900   7.874  19.722  0.00  0.00    +0.000 A 
ATOM     10  C   UNL     1       2.657   6.725  20.006  0.00  0.00    +0.000 A 
ENDROOT
BRANCH   1  11
ATOM     11  C   UNL     1       4.362   4.955  19.384  0.00  0.00    +0.000 C 
BRANCH  11  12
ATOM     12  C   UNL     1       4.032   3.768  18.460  0.00  0.00    +0.000 C 
BRANCH  12  18
ATOM     13  C   UNL     1       1.314   4.097  17.544  0.00  0.00    +0.000 C 
ATOM     14  C   UNL     1       1.736   2.821  18.283  0.00  0.00    +0.000 C 
ATOM     15  C   UNL     1       0.721   2.471  19.370  0.00  0.00    +0.000 C 
ATOM     16  C   UNL     1       1.243   3.218  20.577  0.00  0.00    +0.000 C 
ATOM     17  C   UNL     1       2.748   3.083  20.442  0.00  0.00    +0.000 C 
ATOM     18  N   UNL     1       3.019   2.869  19.015  0.00  0.00    +0.000 NA
ENDBRANCH  12  18
ENDBRANCH  11  12
ENDBRANCH   1  11
TORSDOF 3
ENDMDL
MODEL 7
REMARK VINA RESULT:      -6.9      2.068      5.940
REMARK  Name = 
REMARK  4 active torsions:
REMARK  status: ('A' for Active; 'I' for Inactive)
REMARK    1  A    between atoms: C_1  and  C_2
REMARK    2  A    between atoms: N_6  and  C_7
REMARK    3  A    between atoms: C_7  and  C_8
REMARK    4  A    between atoms: C_8  and  C_9
REMARK                            x       y       z     vdW  Elec       q    Type
REMARK                         _______ _______ _______ _____ _____    ______ ____
ROOT
ATOM      1  C   UNL     1       3.292   6.043  18.119  0.00  0.00    +0.000 A 
ATOM      2  C   UNL     1       2.319   5.411  17.343  0.00  0.00    +0.000 A 
ATOM      3  C   UNL     1       1.525   4.403  17.887  0.00  0.00    +0.000 A 
ATOM      4  C   UNL     1       1.686   4.001  19.220  0.00  0.00    +0.000 A 
ATOM      5  C   UNL     1       0.888   2.992  19.781  0.00  0.00    +0.000 A 
ATOM      6  C   UNL     1       1.059   2.603  21.110  0.00  0.00    +0.000 A 
ATOM      7  C   UNL     1       2.033   3.215  21.894  0.00  0.00    +0.000 A 
ATOM      8  C   UNL     1       2.833   4.221  21.352  0.00  0.00    +0.000 A 
ATOM      9  C   UNL     1       2.669   4.628  20.018  0.00  0.00    +0.000 A 
ATOM     10  C   UNL     1       3.456   5.648  19.457  0.00  0.00    +0.000 A 
ENDROOT
BRANCH   1  11
ATOM     11  C   UNL     1       4.133   7.156  17.536  0.00  0.00    +0.000 C 
BRANCH  11  12
ATOM     12  C   UNL     1       4.855   6.727  16.245  0.00  0.00    +0.000 C 
BRANCH  12  18
ATOM     13  C   UNL     1       5.382   3.888  16.269  0.00  0.00    +0.000 C 
ATOM     14  C   UNL     1       6.534   4.892  16.131  0.00  0.00    +0.000 C 
ATOM     15  C   UNL     1       7.676   4.531  17.081  0.00  0.00    +0.000 C 
ATOM     16  C   UNL     1       7.315   5.278  18.346  0.00  0.00    +0.000 C 
ATOM     17  C   UNL     1       6.734   6.578  17.826  0.00  0.00    +0.000 C 
ATOM     18  N   UNL     1       6.236   6.298  16.473  0.00  0.00    +0.000 NA
ENDBRANCH  12  18
ENDBRANCH  11  12
ENDBRANCH   1  11
TORSDOF 3
ENDMDL
MODEL 8
REMARK VINA RESULT:      -6.9      1.846      5.865
REMARK  Name = 
REMARK  4 active torsions:
REMARK  status: ('A' for Active; 'I' for Inactive)
REMARK    1  A    between atoms: C_1  and  C_2
REMARK    2  A    between atoms: N_6  and  C_7
REMARK    3  A    between atoms: C_7  and  C_8
REMARK    4  A    between atoms: C_8  and  C_9
REMARK                            x       y       z     vdW  Elec       q    Type
REMARK                         _______ _______ _______ _____ _____    ______ ____
ROOT
ATOM      1  C   UNL     1       3.136   6.409  17.931  0.00  0.00    +0.000 A 
ATOM      2  C   UNL     1       2.843   6.876  19.215  0.00  0.00    +0.000 A 
ATOM      3  C   UNL     1       2.201   6.051  20.138  0.00  0.00    +0.000 A 
ATOM      4  C   UNL     1       1.834   4.741  19.799  0.00  0.00    +0.000 A 
ATOM      5  C   UNL     1       1.194   3.900  20.721  0.00  0.00    +0.000 A 
ATOM      6  C   UNL     1       0.835   2.598  20.371  0.00  0.00    +0.000 A 
ATOM      7  C   UNL     1       1.110   2.122  19.091  0.00  0.00    +0.000 A 
ATOM      8  C   UNL     1       1.749   2.945  18.163  0.00  0.00    +0.000 A 
ATOM      9  C   UNL     1       2.120   4.256  18.503  0.00  0.00    +0.000 A 
ATOM     10  C   UNL     1       2.776   5.096  17.587  0.00  0.00    +0.000 A 
ENDROOT
BRANCH   1  11
ATOM     11  C   UNL     1       3.858   7.295  16.942  0.00  0.00    +0.000 C 
BRANCH  11  12
ATOM     12  C   UNL     1       5.200   6.688  16.489  0.00  0.00    +0.000 C 
BRANCH  12  18
ATOM     13  C   UNL     1       7.719   7.633  17.538  0.00  0.00    +0.000 C 
ATOM     14  C   UNL     1       6.924   6.552  18.281  0.00  0.00    +0.000 C 
ATOM     15  C   UNL     1       7.841   5.399  18.690  0.00  0.00    +0.000 C 
ATOM     16  C   UNL     1       7.780   4.475  17.494  0.00  0.00    +0.000 C 
ATOM     17  C   UNL     1       6.334   4.579  17.050  0.00  0.00    +0.000 C 
ATOM     18  N   UNL     1       5.847   5.880  17.525  0.00  0.00    +0.000 NA
ENDBRANCH  12  18
ENDBRANCH  11  12
ENDBRANCH   1  11
TORSDOF 3
ENDMDL
MODEL 9
REMARK VINA RESULT:      -6.9      3.211      5.962
REMARK  Name = 
REMARK  4 active torsions:
REMARK  status: ('A' for Active; 'I' for Inactive)
REMARK    1  A    between atoms: C_1  and  C_2
REMARK    2  A    between atoms: N_6  and  C_7
REMARK    3  A    between atoms: C_7  and  C_8
REMARK    4  A    between atoms: C_8  and  C_9
REMARK                            x       y       z     vdW  Elec       q    Type
REMARK                         _______ _______ _______ _____ _____    ______ ____
ROOT
ATOM      1  C   UNL     1       3.085   6.263  19.020  0.00  0.00    +0.000 A 
ATOM      2  C   UNL     1       3.185   7.073  17.886  0.00  0.00    +0.000 A 
ATOM      3  C   UNL     1       2.534   8.305  17.839  0.00  0.00    +0.000 A 
ATOM      4  C   UNL     1       1.767   8.756  18.922  0.00  0.00    +0.000 A 
ATOM      5  C   UNL     1       1.112   9.997  18.888  0.00  0.00    +0.000 A 
ATOM      6  C   UNL     1       0.352  10.433  19.974  0.00  0.00    +0.000 A 
ATOM      7  C   UNL     1       0.233   9.632  21.106  0.00  0.00    +0.000 A 
ATOM      8  C   UNL     1       0.880   8.396  21.157  0.00  0.00    +0.000 A 
ATOM      9  C   UNL     1       1.653   7.946  20.074  0.00  0.00    +0.000 A 
ATOM     10  C   UNL     1       2.322   6.711  20.110  0.00  0.00    +0.000 A 
ENDROOT
BRANCH   1  11
ATOM     11  C   UNL     1       3.816   4.941  19.082  0.00  0.00    +0.000 C 
BRANCH  11  12
ATOM     12  C   UNL     1       5.346   5.118  19.049  0.00  0.00    +0.000 C 
BRANCH  12  18
ATOM     13  C   UNL     1       7.000   6.732  17.319  0.00  0.00    +0.000 C 
ATOM     14  C   UNL     1       7.079   5.201  17.264  0.00  0.00    +0.000 C 
ATOM     15  C   UNL     1       7.036   4.714  15.816  0.00  0.00    +0.000 C 
ATOM     16  C   UNL     1       5.555   4.543  15.558  0.00  0.00    +0.000 C 
ATOM     17  C   UNL     1       5.035   4.007  16.877  0.00  0.00    +0.000 C 
ATOM     18  N   UNL     1       5.979   4.454  17.909  0.00  0.00    +0.000 NA
ENDBRANCH  12  18
ENDBRANCH  11  12
ENDBRANCH   1  11
TORSDOF 3
ENDMDL
