MODEL 1
REMARK VINA RESULT:      -7.0      0.000      0.000
REMARK  Name = 
REMARK  7 active torsions:
REMARK  status: ('A' for Active; 'I' for Inactive)
REMARK    1  A    between atoms: C_1  and  C_2
REMARK    2  A    between atoms: C_5  and  S_6
REMARK    3  A    between atoms: S_6  and  N_9
REMARK    4  A    between atoms: N_9  and  C_10
REMARK    5  A    between atoms: C_10  and  C_11
REMARK    6  A    between atoms: C_14  and  C_15
REMARK    7  A    between atoms: N_20  and  C_21
REMARK                            x       y       z     vdW  Elec       q    Type
REMARK                         _______ _______ _______ _____ _____    ______ ____
ROOT
ATOM      1  C   UNL     1       2.233   5.749  19.405  0.00  0.00    +0.000 C 
ATOM      2  C   UNL     1       1.406   6.541  20.431  0.00  0.00    +0.000 C 
ATOM      3  C   UNL     1       1.779   8.026  20.542  0.00  0.00    +0.000 C 
ATOM      4  C   UNL     1       2.075   8.761  19.222  0.00  0.00    +0.000 C 
ATOM      5  C   UNL     1       2.878   7.893  18.256  0.00  0.00    +0.000 C 
ATOM      6  C   UNL     1       2.281   6.507  18.076  0.00  0.00    +0.000 C 
ENDROOT
BRANCH   4   7
ATOM      7  C   UNL     1       0.823   9.348  18.543  0.00  0.00    +0.000 C 
ATOM      8  O   UNL     1       0.431   8.922  17.459  0.00  0.00    +0.000 OA
ATOM      9  N   UNL     1       0.151  10.375  19.203  0.00  0.00    +0.000 N 
ATOM     10  C   UNL     1      -0.955  11.010  18.472  0.00  0.00    +0.000 C 
ATOM     11  C   UNL     1      -1.916  11.789  19.390  0.00  0.00    +0.000 C 
ATOM     12  N   UNL     1      -1.262  12.718  20.333  0.00  0.00    +0.000 NA
ATOM     13  C   UNL     1      -0.724  13.895  19.655  0.00  0.00    +0.000 C 
ATOM     14  C   UNL     1      -0.219  11.992  21.080  0.00  0.00    +0.000 C 
ATOM     15  C   UNL     1       0.793  11.229  20.206  0.00  0.00    +0.000 C 
ENDBRANCH   4   7
BRANCH   1  16
ATOM     16  C   UNL     1       1.676   4.319  19.233  0.00  0.00    +0.000 C 
BRANCH  16  17
ATOM     17  N   UNL     1       2.598   3.348  19.853  0.00  0.00    +0.000 NA
ATOM     18  H   UNL     1       3.073   3.682  20.692  0.00  0.00    +0.000 HD
BRANCH  17  19
ATOM     19  S   UNL     1       3.739   2.561  18.893  0.00  0.00    +0.000 S 
ATOM     20  O   UNL     1       3.075   2.045  17.717  0.00  0.00    +0.000 OA
ATOM     21  O   UNL     1       4.507   1.711  19.778  0.00  0.00    +0.000 OA
BRANCH  19  26
ATOM     22  C   UNL     1       7.441   7.068  17.211  0.00  0.00    +0.000 C 
ATOM     23  C   UNL     1       6.503   5.979  17.644  0.00  0.00    +0.000 A 
ATOM     24  C   UNL     1       6.398   5.613  18.989  0.00  0.00    +0.000 A 
ATOM     25  C   UNL     1       5.545   4.577  19.379  0.00  0.00    +0.000 A 
ATOM     26  C   UNL     1       4.791   3.908  18.409  0.00  0.00    +0.000 A 
ATOM     27  C   UNL     1       4.892   4.258  17.061  0.00  0.00    +0.000 A 
ATOM     28  C   UNL     1       5.741   5.296  16.684  0.00  0.00    +0.000 A 
ENDBRANCH  19  26
ENDBRANCH  17  19
ENDBRANCH  16  17
ENDBRANCH   1  16
TORSDOF 5
ENDMDL
MODEL 2
REMARK VINA RESULT:      -7.0      2.479      3.420
REMARK  Name = 
REMARK  7 active torsions:
REMARK  status: ('A' for Active; 'I' for Inactive)
REMARK    1  A    between atoms: C_1  and  C_2
REMARK    2  A    between atoms: C_5  and  S_6
REMARK    3  A    between atoms: S_6  and  N_9
REMARK    4  A    between atoms: N_9  and  C_10
REMARK    5  A    between atoms: C_10  and  C_11
REMARK    6  A    between atoms: C_14  and  C_15
REMARK    7  A    between atoms: N_20  and  C_21
REMARK                            x       y       z     vdW  Elec       q    Type
REMARK                         _______ _______ _______ _____ _____    ______ ____
ROOT
ATOM      1  C   UNL     1       1.318   8.985  20.206  0.00  0.00    +0.000 C 
ATOM      2  C   UNL     1      -0.042   9.232  20.880  0.00  0.00    +0.000 C 
ATOM      3  C   UNL     1      -0.675  10.594  20.562  0.00  0.00    +0.000 C 
ATOM      4  C   UNL     1      -0.561  11.080  19.106  0.00  0.00    +0.000 C 
ATOM      5  C   UNL     1       0.811  10.773  18.510  0.00  0.00    +0.000 C 
ATOM      6  C   UNL     1       1.231   9.327  18.717  0.00  0.00    +0.000 C 
ENDROOT
BRANCH   4   7
ATOM      7  C   UNL     1      -1.696  10.580  18.193  0.00  0.00    +0.000 C 
ATOM      8  O   UNL     1      -1.465   9.834  17.244  0.00  0.00    +0.000 OA
ATOM      9  N   UNL     1      -2.992  11.002  18.482  0.00  0.00    +0.000 N 
ATOM     10  C   UNL     1      -4.035  10.625  17.517  0.00  0.00    +0.000 C 
ATOM     11  C   UNL     1      -5.457  10.717  18.101  0.00  0.00    +0.000 C 
ATOM     12  N   UNL     1      -5.768  11.984  18.793  0.00  0.00    +0.000 NA
ATOM     13  C   UNL     1      -5.925  13.094  17.856  0.00  0.00    +0.000 C 
ATOM     14  C   UNL     1      -4.721  12.254  19.794  0.00  0.00    +0.000 C 
ATOM     15  C   UNL     1      -3.280  12.216  19.252  0.00  0.00    +0.000 C 
ENDBRANCH   4   7
BRANCH   1  16
ATOM     16  C   UNL     1       1.794   7.534  20.437  0.00  0.00    +0.000 C 
BRANCH  16  17
ATOM     17  N   UNL     1       2.312   6.973  19.174  0.00  0.00    +0.000 NA
ATOM     18  H   UNL     1       1.813   7.270  18.336  0.00  0.00    +0.000 HD
BRANCH  17  19
ATOM     19  S   UNL     1       2.578   5.312  19.056  0.00  0.00    +0.000 S 
ATOM     20  O   UNL     1       1.361   4.682  18.595  0.00  0.00    +0.000 OA
ATOM     21  O   UNL     1       3.234   4.911  20.282  0.00  0.00    +0.000 OA
BRANCH  19  26
ATOM     22  C   UNL     1       6.606   5.062  14.523  0.00  0.00    +0.000 C 
ATOM     23  C   UNL     1       5.637   5.109  15.667  0.00  0.00    +0.000 A 
ATOM     24  C   UNL     1       5.096   3.936  16.200  0.00  0.00    +0.000 A 
ATOM     25  C   UNL     1       4.170   3.990  17.244  0.00  0.00    +0.000 A 
ATOM     26  C   UNL     1       3.788   5.234  17.758  0.00  0.00    +0.000 A 
ATOM     27  C   UNL     1       4.314   6.415  17.230  0.00  0.00    +0.000 A 
ATOM     28  C   UNL     1       5.241   6.348  16.193  0.00  0.00    +0.000 A 
ENDBRANCH  19  26
ENDBRANCH  17  19
ENDBRANCH  16  17
ENDBRANCH   1  16
TORSDOF 5
ENDMDL
MODEL 3
REMARK VINA RESULT:      -6.9      0.587      1.095
REMARK  Name = 
REMARK  7 active torsions:
REMARK  status: ('A' for Active; 'I' for Inactive)
REMARK    1  A    between atoms: C_1  and  C_2
REMARK    2  A    between atoms: C_5  and  S_6
REMARK    3  A    between atoms: S_6  and  N_9
REMARK    4  A    between atoms: N_9  and  C_10
REMARK    5  A    between atoms: C_10  and  C_11
REMARK    6  A    between atoms: C_14  and  C_15
REMARK    7  A    between atoms: N_20  and  C_21
REMARK                            x       y       z     vdW  Elec       q    Type
REMARK                         _______ _______ _______ _____ _____    ______ ____
ROOT
ATOM      1  C   UNL     1       2.152   6.079  19.519  0.00  0.00    +0.000 C 
ATOM      2  C   UNL     1       1.415   6.917  20.576  0.00  0.00    +0.000 C 
ATOM      3  C   UNL     1       1.789   8.406  20.586  0.00  0.00    +0.000 C 
ATOM      4  C   UNL     1       1.963   9.079  19.213  0.00  0.00    +0.000 C 
ATOM      5  C   UNL     1       2.681   8.168  18.220  0.00  0.00    +0.000 C 
ATOM      6  C   UNL     1       2.078   6.774  18.157  0.00  0.00    +0.000 C 
ENDROOT
BRANCH   4   7
ATOM      7  C   UNL     1       0.653   9.632  18.622  0.00  0.00    +0.000 C 
ATOM      8  O   UNL     1       0.185   9.179  17.580  0.00  0.00    +0.000 OA
ATOM      9  N   UNL     1       0.017  10.663  19.311  0.00  0.00    +0.000 N 
ATOM     10  C   UNL     1      -1.153  11.266  18.656  0.00  0.00    +0.000 C 
ATOM     11  C   UNL     1      -2.052  12.049  19.631  0.00  0.00    +0.000 C 
ATOM     12  N   UNL     1      -1.342  13.008  20.501  0.00  0.00    +0.000 NA
ATOM     13  C   UNL     1      -0.879  14.179  19.760  0.00  0.00    +0.000 C 
ATOM     14  C   UNL     1      -0.233  12.313  21.179  0.00  0.00    +0.000 C 
ATOM     15  C   UNL     1       0.720  11.548  20.244  0.00  0.00    +0.000 C 
ENDBRANCH   4   7
BRANCH   1  16
ATOM     16  C   UNL     1       1.590   4.641  19.462  0.00  0.00    +0.000 C 
BRANCH  16  17
ATOM     17  N   UNL     1       2.204   3.910  18.338  0.00  0.00    +0.000 NA
ATOM     18  H   UNL     1       1.573   3.285  17.836  0.00  0.00    +0.000 HD
BRANCH  17  19
ATOM     19  S   UNL     1       3.657   3.089  18.581  0.00  0.00    +0.000 S 
ATOM     20  O   UNL     1       3.767   2.042  17.590  0.00  0.00    +0.000 OA
ATOM     21  O   UNL     1       3.743   2.816  20.000  0.00  0.00    +0.000 OA
BRANCH  19  26
ATOM     22  C   UNL     1       7.639   7.506  17.371  0.00  0.00    +0.000 C 
ATOM     23  C   UNL     1       6.675   6.390  17.648  0.00  0.00    +0.000 A 
ATOM     24  C   UNL     1       5.800   5.935  16.658  0.00  0.00    +0.000 A 
ATOM     25  C   UNL     1       4.883   4.917  16.932  0.00  0.00    +0.000 A 
ATOM     26  C   UNL     1       4.850   4.352  18.212  0.00  0.00    +0.000 A 
ATOM     27  C   UNL     1       5.712   4.803  19.213  0.00  0.00    +0.000 A 
ATOM     28  C   UNL     1       6.626   5.815  18.926  0.00  0.00    +0.000 A 
ENDBRANCH  19  26
ENDBRANCH  17  19
ENDBRANCH  16  17
ENDBRANCH   1  16
TORSDOF 5
ENDMDL
MODEL 4
REMARK VINA RESULT:      -6.8      3.082      8.556
REMARK  Name = 
REMARK  7 active torsions:
REMARK  status: ('A' for Active; 'I' for Inactive)
REMARK    1  A    between atoms: C_1  and  C_2
REMARK    2  A    between atoms: C_5  and  S_6
REMARK    3  A    between atoms: S_6  and  N_9
REMARK    4  A    between atoms: N_9  and  C_10
REMARK    5  A    between atoms: C_10  and  C_11
REMARK    6  A    between atoms: C_14  and  C_15
REMARK    7  A    between atoms: N_20  and  C_21
REMARK                            x       y       z     vdW  Elec       q    Type
REMARK                         _______ _______ _______ _____ _____    ______ ____
ROOT
ATOM      1  C   UNL     1       1.384   7.284  20.307  0.00  0.00    +0.000 C 
ATOM      2  C   UNL     1       1.917   5.981  20.926  0.00  0.00    +0.000 C 
ATOM      3  C   UNL     1       2.234   4.874  19.911  0.00  0.00    +0.000 C 
ATOM      4  C   UNL     1       2.920   5.315  18.606  0.00  0.00    +0.000 C 
ATOM      5  C   UNL     1       2.346   6.627  18.077  0.00  0.00    +0.000 C 
ATOM      6  C   UNL     1       2.278   7.711  19.141  0.00  0.00    +0.000 C 
ENDROOT
BRANCH   4   7
ATOM      7  C   UNL     1       4.457   5.371  18.700  0.00  0.00    +0.000 C 
ATOM      8  O   UNL     1       5.015   5.800  19.708  0.00  0.00    +0.000 OA
ATOM      9  N   UNL     1       5.189   4.918  17.604  0.00  0.00    +0.000 N 
ATOM     10  C   UNL     1       6.645   5.111  17.664  0.00  0.00    +0.000 C 
ATOM     11  C   UNL     1       7.412   4.211  16.677  0.00  0.00    +0.000 C 
ATOM     12  N   UNL     1       6.902   4.228  15.291  0.00  0.00    +0.000 NA
ATOM     13  C   UNL     1       7.209   5.484  14.611  0.00  0.00    +0.000 C 
ATOM     14  C   UNL     1       5.454   3.953  15.308  0.00  0.00    +0.000 C 
ATOM     15  C   UNL     1       4.634   4.854  16.250  0.00  0.00    +0.000 C 
ENDBRANCH   4   7
BRANCH   1  16
ATOM     16  C   UNL     1       1.261   8.393  21.375  0.00  0.00    +0.000 C 
BRANCH  16  17
ATOM     17  N   UNL     1      -0.061   9.041  21.271  0.00  0.00    +0.000 NA
ATOM     18  H   UNL     1      -0.721   8.572  20.651  0.00  0.00    +0.000 HD
BRANCH  17  19
ATOM     19  S   UNL     1      -0.148  10.696  20.960  0.00  0.00    +0.000 S 
ATOM     20  O   UNL     1       1.189  11.191  20.721  0.00  0.00    +0.000 OA
ATOM     21  O   UNL     1      -1.007  11.261  21.979  0.00  0.00    +0.000 OA
BRANCH  19  26
ATOM     22  C   UNL     1      -3.129  10.890  15.677  0.00  0.00    +0.000 C 
ATOM     23  C   UNL     1      -2.424  10.828  17.000  0.00  0.00    +0.000 A 
ATOM     24  C   UNL     1      -2.754  11.710  18.032  0.00  0.00    +0.000 A 
ATOM     25  C   UNL     1      -2.071  11.667  19.250  0.00  0.00    +0.000 A 
ATOM     26  C   UNL     1      -1.051  10.727  19.431  0.00  0.00    +0.000 A 
ATOM     27  C   UNL     1      -0.705   9.845  18.405  0.00  0.00    +0.000 A 
ATOM     28  C   UNL     1      -1.397   9.894  17.197  0.00  0.00    +0.000 A 
ENDBRANCH  19  26
ENDBRANCH  17  19
ENDBRANCH  16  17
ENDBRANCH   1  16
TORSDOF 5
ENDMDL
MODEL 5
REMARK VINA RESULT:      -6.8      2.942      8.199
REMARK  Name = 
REMARK  7 active torsions:
REMARK  status: ('A' for Active; 'I' for Inactive)
REMARK    1  A    between atoms: C_1  and  C_2
REMARK    2  A    between atoms: C_5  and  S_6
REMARK    3  A    between atoms: S_6  and  N_9
REMARK    4  A    between atoms: N_9  and  C_10
REMARK    5  A    between atoms: C_10  and  C_11
REMARK    6  A    between atoms: C_14  and  C_15
REMARK    7  A    between atoms: N_20  and  C_21
REMARK                            x       y       z     vdW  Elec       q    Type
REMARK                         _______ _______ _______ _____ _____    ______ ____
ROOT
ATOM      1  C   UNL     1       1.311   7.192  20.385  0.00  0.00    +0.000 C 
ATOM      2  C   UNL     1       1.374   5.749  20.913  0.00  0.00    +0.000 C 
ATOM      3  C   UNL     1       1.535   4.677  19.826  0.00  0.00    +0.000 C 
ATOM      4  C   UNL     1       2.507   5.005  18.678  0.00  0.00    +0.000 C 
ATOM      5  C   UNL     1       2.393   6.461  18.234  0.00  0.00    +0.000 C 
ATOM      6  C   UNL     1       2.455   7.437  19.398  0.00  0.00    +0.000 C 
ENDROOT
BRANCH   4   7
ATOM      7  C   UNL     1       3.969   4.619  18.972  0.00  0.00    +0.000 C 
ATOM      8  O   UNL     1       4.260   3.940  19.954  0.00  0.00    +0.000 OA
ATOM      9  N   UNL     1       4.946   5.065  18.085  0.00  0.00    +0.000 N 
ATOM     10  C   UNL     1       6.343   4.802  18.462  0.00  0.00    +0.000 C 
ATOM     11  C   UNL     1       7.316   4.901  17.272  0.00  0.00    +0.000 C 
ATOM     12  N   UNL     1       7.179   6.121  16.452  0.00  0.00    +0.000 NA
ATOM     13  C   UNL     1       7.679   7.305  17.147  0.00  0.00    +0.000 C 
ATOM     14  C   UNL     1       5.769   6.275  16.051  0.00  0.00    +0.000 C 
ATOM     15  C   UNL     1       4.756   6.225  17.210  0.00  0.00    +0.000 C 
ENDBRANCH   4   7
BRANCH   1  16
ATOM     16  C   UNL     1       1.327   8.207  21.549  0.00  0.00    +0.000 C 
BRANCH  16  17
ATOM     17  N   UNL     1       0.020   8.888  21.634  0.00  0.00    +0.000 NA
ATOM     18  H   UNL     1      -0.719   8.470  21.069  0.00  0.00    +0.000 HD
BRANCH  17  19
ATOM     19  S   UNL     1      -0.056  10.560  21.430  0.00  0.00    +0.000 S 
ATOM     20  O   UNL     1       1.290  11.069  21.292  0.00  0.00    +0.000 OA
ATOM     21  O   UNL     1      -0.967  11.057  22.438  0.00  0.00    +0.000 OA
BRANCH  19  26
ATOM     22  C   UNL     1      -2.768  11.109  16.028  0.00  0.00    +0.000 C 
ATOM     23  C   UNL     1      -2.129  10.957  17.377  0.00  0.00    +0.000 A 
ATOM     24  C   UNL     1      -2.548  11.732  18.462  0.00  0.00    +0.000 A 
ATOM     25  C   UNL     1      -1.927  11.606  19.707  0.00  0.00    +0.000 A 
ATOM     26  C   UNL     1      -0.879  10.692  19.861  0.00  0.00    +0.000 A 
ATOM     27  C   UNL     1      -0.445   9.918  18.784  0.00  0.00    +0.000 A 
ATOM     28  C   UNL     1      -1.075  10.047  17.549  0.00  0.00    +0.000 A 
ENDBRANCH  19  26
ENDBRANCH  17  19
ENDBRANCH  16  17
ENDBRANCH   1  16
TORSDOF 5
ENDMDL
MODEL 6
REMARK VINA RESULT:      -6.6      2.513      3.552
REMARK  Name = 
REMARK  7 active torsions:
REMARK  status: ('A' for Active; 'I' for Inactive)
REMARK    1  A    between atoms: C_1  and  C_2
REMARK    2  A    between atoms: C_5  and  S_6
REMARK    3  A    between atoms: S_6  and  N_9
REMARK    4  A    between atoms: N_9  and  C_10
REMARK    5  A    between atoms: C_10  and  C_11
REMARK    6  A    between atoms: C_14  and  C_15
REMARK    7  A    between atoms: N_20  and  C_21
REMARK                            x       y       z     vdW  Elec       q    Type
REMARK                         _______ _______ _______ _____ _____    ______ ____
ROOT
ATOM      1  C   UNL     1       1.253   8.628  20.858  0.00  0.00    +0.000 C 
ATOM      2  C   UNL     1      -0.020   8.600  21.720  0.00  0.00    +0.000 C 
ATOM      3  C   UNL     1      -0.387   9.945  22.362  0.00  0.00    +0.000 C 
ATOM      4  C   UNL     1      -0.212  11.196  21.482  0.00  0.00    +0.000 C 
ATOM      5  C   UNL     1       1.063  11.128  20.645  0.00  0.00    +0.000 C 
ATOM      6  C   UNL     1       1.203   9.815  19.892  0.00  0.00    +0.000 C 
ENDROOT
BRANCH   4   7
ATOM      7  C   UNL     1      -1.440  11.521  20.612  0.00  0.00    +0.000 C 
ATOM      8  O   UNL     1      -1.553  11.062  19.478  0.00  0.00    +0.000 OA
ATOM      9  N   UNL     1      -2.418  12.350  21.157  0.00  0.00    +0.000 N 
ATOM     10  C   UNL     1      -3.509  12.756  20.260  0.00  0.00    +0.000 C 
ATOM     11  C   UNL     1      -4.750  13.270  21.013  0.00  0.00    +0.000 C 
ATOM     12  N   UNL     1      -4.474  14.284  22.052  0.00  0.00    +0.000 NA
ATOM     13  C   UNL     1      -4.112  15.575  21.472  0.00  0.00    +0.000 C 
ATOM     14  C   UNL     1      -3.427  13.774  22.955  0.00  0.00    +0.000 C 
ATOM     15  C   UNL     1      -2.147  13.285  22.253  0.00  0.00    +0.000 C 
ENDBRANCH   4   7
BRANCH   1  16
ATOM     16  C   UNL     1       1.447   7.288  20.114  0.00  0.00    +0.000 C 
BRANCH  16  17
ATOM     17  N   UNL     1       2.065   6.301  21.019  0.00  0.00    +0.000 NA
ATOM     18  H   UNL     1       3.045   6.475  21.239  0.00  0.00    +0.000 HD
BRANCH  17  19
ATOM     19  S   UNL     1       1.895   4.656  20.688  0.00  0.00    +0.000 S 
ATOM     20  O   UNL     1       0.541   4.413  20.243  0.00  0.00    +0.000 OA
ATOM     21  O   UNL     1       2.475   3.948  21.809  0.00  0.00    +0.000 OA
BRANCH  19  26
ATOM     22  C   UNL     1       5.609   4.091  15.921  0.00  0.00    +0.000 C 
ATOM     23  C   UNL     1       4.695   4.193  17.106  0.00  0.00    +0.000 A 
ATOM     24  C   UNL     1       3.408   3.648  17.070  0.00  0.00    +0.000 A 
ATOM     25  C   UNL     1       2.551   3.775  18.166  0.00  0.00    +0.000 A 
ATOM     26  C   UNL     1       2.994   4.452  19.307  0.00  0.00    +0.000 A 
ATOM     27  C   UNL     1       4.274   5.009  19.354  0.00  0.00    +0.000 A 
ATOM     28  C   UNL     1       5.122   4.871  18.257  0.00  0.00    +0.000 A 
ENDBRANCH  19  26
ENDBRANCH  17  19
ENDBRANCH  16  17
ENDBRANCH   1  16
TORSDOF 5
ENDMDL
MODEL 7
REMARK VINA RESULT:      -6.6      2.060      3.039
REMARK  Name = 
REMARK  7 active torsions:
REMARK  status: ('A' for Active; 'I' for Inactive)
REMARK    1  A    between atoms: C_1  and  C_2
REMARK    2  A    between atoms: C_5  and  S_6
REMARK    3  A    between atoms: S_6  and  N_9
REMARK    4  A    between atoms: N_9  and  C_10
REMARK    5  A    between atoms: C_10  and  C_11
REMARK    6  A    between atoms: C_14  and  C_15
REMARK    7  A    between atoms: N_20  and  C_21
REMARK                            x       y       z     vdW  Elec       q    Type
REMARK                         _______ _______ _______ _____ _____    ______ ____
ROOT
ATOM      1  C   UNL     1       2.196   7.511  18.961  0.00  0.00    +0.000 C 
ATOM      2  C   UNL     1       2.066   8.800  18.133  0.00  0.00    +0.000 C 
ATOM      3  C   UNL     1       0.763   9.578  18.362  0.00  0.00    +0.000 C 
ATOM      4  C   UNL     1       0.266   9.672  19.816  0.00  0.00    +0.000 C 
ATOM      5  C   UNL     1       0.455   8.357  20.568  0.00  0.00    +0.000 C 
ATOM      6  C   UNL     1       1.860   7.796  20.426  0.00  0.00    +0.000 C 
ENDROOT
BRANCH   4   7
ATOM      7  C   UNL     1       0.859  10.858  20.600  0.00  0.00    +0.000 C 
ATOM      8  O   UNL     1       1.506  10.679  21.629  0.00  0.00    +0.000 OA
ATOM      9  N   UNL     1       0.637  12.140  20.099  0.00  0.00    +0.000 N 
ATOM     10  C   UNL     1       1.092  13.259  20.937  0.00  0.00    +0.000 C 
ATOM     11  C   UNL     1       1.233  14.578  20.155  0.00  0.00    +0.000 C 
ATOM     12  N   UNL     1       0.066  14.940  19.325  0.00  0.00    +0.000 NA
ATOM     13  C   UNL     1      -1.068  15.373  20.138  0.00  0.00    +0.000 C 
ATOM     14  C   UNL     1      -0.283  13.798  18.462  0.00  0.00    +0.000 C 
ATOM     15  C   UNL     1      -0.475  12.461  19.201  0.00  0.00    +0.000 C 
ENDBRANCH   4   7
BRANCH   1  16
ATOM     16  C   UNL     1       3.602   6.891  18.802  0.00  0.00    +0.000 C 
BRANCH  16  17
ATOM     17  N   UNL     1       3.488   5.428  18.654  0.00  0.00    +0.000 NA
ATOM     18  H   UNL     1       2.722   5.002  19.176  0.00  0.00    +0.000 HD
BRANCH  17  19
ATOM     19  S   UNL     1       4.856   4.466  18.868  0.00  0.00    +0.000 S 
ATOM     20  O   UNL     1       4.430   3.114  19.149  0.00  0.00    +0.000 OA
ATOM     21  O   UNL     1       5.737   5.195  19.756  0.00  0.00    +0.000 OA
BRANCH  19  26
ATOM     22  C   UNL     1       7.315   4.762  13.327  0.00  0.00    +0.000 C 
ATOM     23  C   UNL     1       6.705   4.650  14.693  0.00  0.00    +0.000 A 
ATOM     24  C   UNL     1       5.362   4.299  14.854  0.00  0.00    +0.000 A 
ATOM     25  C   UNL     1       4.793   4.229  16.129  0.00  0.00    +0.000 A 
ATOM     26  C   UNL     1       5.584   4.510  17.248  0.00  0.00    +0.000 A 
ATOM     27  C   UNL     1       6.925   4.870  17.102  0.00  0.00    +0.000 A 
ATOM     28  C   UNL     1       7.482   4.932  15.827  0.00  0.00    +0.000 A 
ENDBRANCH  19  26
ENDBRANCH  17  19
ENDBRANCH  16  17
ENDBRANCH   1  16
TORSDOF 5
ENDMDL
MODEL 8
REMARK VINA RESULT:      -6.6      2.649      3.784
REMARK  Name = 
REMARK  7 active torsions:
REMARK  status: ('A' for Active; 'I' for Inactive)
REMARK    1  A    between atoms: C_1  and  C_2
REMARK    2  A    between atoms: C_5  and  S_6
REMARK    3  A    between atoms: S_6  and  N_9
REMARK    4  A    between atoms: N_9  and  C_10
REMARK    5  A    between atoms: C_10  and  C_11
REMARK    6  A    between atoms: C_14  and  C_15
REMARK    7  A    between atoms: N_20  and  C_21
REMARK                            x       y       z     vdW  Elec       q    Type
REMARK                         _______ _______ _______ _____ _____    ______ ____
ROOT
ATOM      1  C   UNL     1       1.048   8.399  20.223  0.00  0.00    +0.000 C 
ATOM      2  C   UNL     1       0.619   9.498  19.237  0.00  0.00    +0.000 C 
ATOM      3  C   UNL     1      -0.636  10.276  19.654  0.00  0.00    +0.000 C 
ATOM      4  C   UNL     1      -0.753  10.643  21.145  0.00  0.00    +0.000 C 
ATOM      5  C   UNL     1      -0.284   9.505  22.048  0.00  0.00    +0.000 C 
ATOM      6  C   UNL     1       1.076   8.958  21.647  0.00  0.00    +0.000 C 
ENDROOT
BRANCH   4   7
ATOM      7  C   UNL     1      -0.068  11.972  21.513  0.00  0.00    +0.000 C 
ATOM      8  O   UNL     1       1.142  12.125  21.365  0.00  0.00    +0.000 OA
ATOM      9  N   UNL     1      -0.870  12.995  22.018  0.00  0.00    +0.000 N 
ATOM     10  C   UNL     1      -0.174  14.200  22.490  0.00  0.00    +0.000 C 
ATOM     11  C   UNL     1      -1.101  15.426  22.601  0.00  0.00    +0.000 C 
ATOM     12  N   UNL     1      -2.365  15.189  23.327  0.00  0.00    +0.000 NA
ATOM     13  C   UNL     1      -2.150  15.040  24.764  0.00  0.00    +0.000 C 
ATOM     14  C   UNL     1      -3.039  14.013  22.748  0.00  0.00    +0.000 C 
ATOM     15  C   UNL     1      -2.167  12.747  22.653  0.00  0.00    +0.000 C 
ENDBRANCH   4   7
BRANCH   1  16
ATOM     16  C   UNL     1       2.409   7.792  19.816  0.00  0.00    +0.000 C 
BRANCH  16  17
ATOM     17  N   UNL     1       2.230   6.908  18.648  0.00  0.00    +0.000 NA
ATOM     18  H   UNL     1       1.304   6.941  18.222  0.00  0.00    +0.000 HD
BRANCH  17  19
ATOM     19  S   UNL     1       2.689   5.289  18.759  0.00  0.00    +0.000 S 
ATOM     20  O   UNL     1       1.548   4.463  18.435  0.00  0.00    +0.000 OA
ATOM     21  O   UNL     1       3.409   5.150  20.006  0.00  0.00    +0.000 OA
BRANCH  19  26
ATOM     22  C   UNL     1       6.856   4.839  14.369  0.00  0.00    +0.000 C 
ATOM     23  C   UNL     1       5.801   4.964  15.428  0.00  0.00    +0.000 A 
ATOM     24  C   UNL     1       5.388   6.218  15.887  0.00  0.00    +0.000 A 
ATOM     25  C   UNL     1       4.428   6.325  16.896  0.00  0.00    +0.000 A 
ATOM     26  C   UNL     1       3.877   5.162  17.445  0.00  0.00    +0.000 A 
ATOM     27  C   UNL     1       4.287   3.902  17.002  0.00  0.00    +0.000 A 
ATOM     28  C   UNL     1       5.241   3.808  15.991  0.00  0.00    +0.000 A 
ENDBRANCH  19  26
ENDBRANCH  17  19
ENDBRANCH  16  17
ENDBRANCH   1  16
TORSDOF 5
ENDMDL
MODEL 9
REMARK VINA RESULT:      -6.5      1.048      1.124
REMARK  Name = 
REMARK  7 active torsions:
REMARK  status: ('A' for Active; 'I' for Inactive)
REMARK    1  A    between atoms: C_1  and  C_2
REMARK    2  A    between atoms: C_5  and  S_6
REMARK    3  A    between atoms: S_6  and  N_9
REMARK    4  A    between atoms: N_9  and  C_10
REMARK    5  A    between atoms: C_10  and  C_11
REMARK    6  A    between atoms: C_14  and  C_15
REMARK    7  A    between atoms: N_20  and  C_21
REMARK                            x       y       z     vdW  Elec       q    Type
REMARK                         _______ _______ _______ _____ _____    ______ ____
ROOT
ATOM      1  C   UNL     1       2.221   6.589  19.410  0.00  0.00    +0.000 C 
ATOM      2  C   UNL     1       1.470   7.278  20.561  0.00  0.00    +0.000 C 
ATOM      3  C   UNL     1       1.699   8.793  20.657  0.00  0.00    +0.000 C 
ATOM      4  C   UNL     1       1.726   9.569  19.328  0.00  0.00    +0.000 C 
ATOM      5  C   UNL     1       2.469   8.801  18.237  0.00  0.00    +0.000 C 
ATOM      6  C   UNL     1       2.000   7.362  18.107  0.00  0.00    +0.000 C 
ENDROOT
BRANCH   4   7
ATOM      7  C   UNL     1       0.336  10.026  18.847  0.00  0.00    +0.000 C 
ATOM      8  O   UNL     1      -0.176   9.545  17.838  0.00  0.00    +0.000 OA
ATOM      9  N   UNL     1      -0.320  11.001  19.596  0.00  0.00    +0.000 N 
ATOM     10  C   UNL     1      -1.579  11.518  19.040  0.00  0.00    +0.000 C 
ATOM     11  C   UNL     1      -2.456  12.224  20.092  0.00  0.00    +0.000 C 
ATOM     12  N   UNL     1      -1.755  13.228  20.917  0.00  0.00    +0.000 NA
ATOM     13  C   UNL     1      -1.439  14.435  20.158  0.00  0.00    +0.000 C 
ATOM     14  C   UNL     1      -0.548  12.614  21.499  0.00  0.00    +0.000 C 
ATOM     15  C   UNL     1       0.385  11.929  20.483  0.00  0.00    +0.000 C 
ENDBRANCH   4   7
BRANCH   1  16
ATOM     16  C   UNL     1       1.798   5.110  19.281  0.00  0.00    +0.000 C 
BRANCH  16  17
ATOM     17  N   UNL     1       2.477   4.496  18.124  0.00  0.00    +0.000 NA
ATOM     18  H   UNL     1       1.881   3.915  17.534  0.00  0.00    +0.000 HD
BRANCH  17  19
ATOM     19  S   UNL     1       3.929   3.671  18.360  0.00  0.00    +0.000 S 
ATOM     20  O   UNL     1       4.096   2.715  17.289  0.00  0.00    +0.000 OA
ATOM     21  O   UNL     1       3.958   3.279  19.753  0.00  0.00    +0.000 OA
BRANCH  19  26
ATOM     22  C   UNL     1       8.067   8.037  17.553  0.00  0.00    +0.000 C 
ATOM     23  C   UNL     1       7.033   6.976  17.785  0.00  0.00    +0.000 A 
ATOM     24  C   UNL     1       7.176   6.046  18.819  0.00  0.00    +0.000 A 
ATOM     25  C   UNL     1       6.224   5.041  19.008  0.00  0.00    +0.000 A 
ATOM     26  C   UNL     1       5.120   4.973  18.153  0.00  0.00    +0.000 A 
ATOM     27  C   UNL     1       4.968   5.890  17.111  0.00  0.00    +0.000 A 
ATOM     28  C   UNL     1       5.920   6.892  16.935  0.00  0.00    +0.000 A 
ENDBRANCH  19  26
ENDBRANCH  17  19
ENDBRANCH  16  17
ENDBRANCH   1  16
TORSDOF 5
ENDMDL
