MODEL 1
REMARK VINA RESULT:      -7.6      0.000      0.000
REMARK  Name = 
REMARK  5 active torsions:
REMARK  status: ('A' for Active; 'I' for Inactive)
REMARK    1  A    between atoms: C_1  and  C_2
REMARK    2  A    between atoms: C_6  and  O_7
REMARK    3  A    between atoms: O_7  and  C_8
REMARK    4  A    between atoms: C_8  and  C_9
REMARK    5  A    between atoms: C_14  and  C_15
REMARK                            x       y       z     vdW  Elec       q    Type
REMARK                         _______ _______ _______ _____ _____    ______ ____
ROOT
ATOM      1  C   UNL     1       3.214   5.543  18.758  0.00  0.00    +0.000 C 
ATOM      2  O   UNL     1       2.744   5.293  17.649  0.00  0.00    +0.000 OA
ATOM      3  N   UNL     1       4.544   5.518  19.122  0.00  0.00    +0.000 N 
ATOM      4  C   UNL     1       5.525   5.249  18.217  0.00  0.00    +0.000 A 
ATOM      5  N   UNL     1       5.430   5.166  16.918  0.00  0.00    +0.000 NA
ATOM      6  C   UNL     1       6.657   4.837  16.371  0.00  0.00    +0.000 A 
ATOM      7  C   UNL     1       7.659   4.626  17.302  0.00  0.00    +0.000 A 
ATOM      8  S   UNL     1       7.067   4.961  18.883  0.00  0.00    +0.000 S 
ATOM      9  H   UNL     1       4.811   5.651  20.089  0.00  0.00    +0.000 HD
ENDROOT
BRANCH   6  10
ATOM     10  C   UNL     1       6.805   4.708  14.925  0.00  0.00    +0.000 A 
ATOM     11  C   UNL     1       7.805   5.452  14.272  0.00  0.00    +0.000 A 
ATOM     12  C   UNL     1       7.988   5.351  12.892  0.00  0.00    +0.000 A 
ATOM     13  C   UNL     1       7.176   4.496  12.155  0.00  0.00    +0.000 A 
ATOM     14  F   UNL     1       7.366   4.409  10.831  0.00  0.00    +0.000 F 
ATOM     15  C   UNL     1       6.192   3.740  12.787  0.00  0.00    +0.000 A 
ATOM     16 CL   UNL     1       5.196   2.667  11.880  0.00  0.00    +0.000 Cl
ATOM     17  C   UNL     1       6.004   3.841  14.168  0.00  0.00    +0.000 A 
ENDBRANCH   6  10
BRANCH   1  18
ATOM     18  C   UNL     1       2.294   5.835  19.933  0.00  0.00    +0.000 C 
BRANCH  18  19
ATOM     19  O   UNL     1       1.057   5.149  19.792  0.00  0.00    +0.000 OA
BRANCH  19  25
ATOM     20  C   UNL     1       4.688   2.021  20.149  0.00  0.00    +0.000 C 
ATOM     21  C   UNL     1       3.377   2.182  19.427  0.00  0.00    +0.000 C 
ATOM     22  O   UNL     1       3.278   2.045  18.211  0.00  0.00    +0.000 OA
ATOM     23  N   UNL     1       2.300   2.414  20.253  0.00  0.00    +0.000 N 
ATOM     24  C   UNL     1       0.928   2.615  19.800  0.00  0.00    +0.000 C 
ATOM     25  C   UNL     1       0.928   3.938  20.581  0.00  0.00    +0.000 C 
ATOM     26  C   UNL     1       2.211   3.452  21.281  0.00  0.00    +0.000 C 
ENDBRANCH  19  25
ENDBRANCH  18  19
ENDBRANCH   1  18
TORSDOF 4
ENDMDL
MODEL 2
REMARK VINA RESULT:      -7.4      6.169      9.210
REMARK  Name = 
REMARK  5 active torsions:
REMARK  status: ('A' for Active; 'I' for Inactive)
REMARK    1  A    between atoms: C_1  and  C_2
REMARK    2  A    between atoms: C_6  and  O_7
REMARK    3  A    between atoms: O_7  and  C_8
REMARK    4  A    between atoms: C_8  and  C_9
REMARK    5  A    between atoms: C_14  and  C_15
REMARK                            x       y       z     vdW  Elec       q    Type
REMARK                         _______ _______ _______ _____ _____    ______ ____
ROOT
ATOM      1  C   UNL     1       2.598   5.493  19.650  0.00  0.00    +0.000 C 
ATOM      2  O   UNL     1       1.809   5.426  20.590  0.00  0.00    +0.000 OA
ATOM      3  N   UNL     1       2.816   6.576  18.823  0.00  0.00    +0.000 N 
ATOM      4  C   UNL     1       2.176   7.761  19.019  0.00  0.00    +0.000 A 
ATOM      5  N   UNL     1       1.454   8.135  20.040  0.00  0.00    +0.000 NA
ATOM      6  C   UNL     1       0.951   9.405  19.827  0.00  0.00    +0.000 A 
ATOM      7  C   UNL     1       1.276   9.950  18.598  0.00  0.00    +0.000 A 
ATOM      8  S   UNL     1       2.327   8.885  17.747  0.00  0.00    +0.000 S 
ATOM      9  H   UNL     1       3.425   6.490  18.020  0.00  0.00    +0.000 HD
ENDROOT
BRANCH   6  10
ATOM     10  C   UNL     1       0.125  10.048  20.845  0.00  0.00    +0.000 A 
ATOM     11  C   UNL     1       0.090   9.500  22.141  0.00  0.00    +0.000 A 
ATOM     12  C   UNL     1      -0.677  10.089  23.147  0.00  0.00    +0.000 A 
ATOM     13  C   UNL     1      -1.410  11.236  22.866  0.00  0.00    +0.000 A 
ATOM     14  F   UNL     1      -2.141  11.791  23.844  0.00  0.00    +0.000 F 
ATOM     15  C   UNL     1      -1.375  11.801  21.594  0.00  0.00    +0.000 A 
ATOM     16 CL   UNL     1      -2.268  13.231  21.246  0.00  0.00    +0.000 Cl
ATOM     17  C   UNL     1      -0.610  11.212  20.583  0.00  0.00    +0.000 A 
ENDBRANCH   6  10
BRANCH   1  18
ATOM     18  C   UNL     1       3.395   4.269  19.228  0.00  0.00    +0.000 C 
BRANCH  18  19
ATOM     19  O   UNL     1       4.450   4.630  18.345  0.00  0.00    +0.000 OA
BRANCH  19  25
ATOM     20  C   UNL     1       7.889   7.951  17.862  0.00  0.00    +0.000 C 
ATOM     21  C   UNL     1       7.457   6.647  17.247  0.00  0.00    +0.000 C 
ATOM     22  O   UNL     1       7.311   6.511  16.035  0.00  0.00    +0.000 OA
ATOM     23  N   UNL     1       7.318   5.614  18.146  0.00  0.00    +0.000 N 
ATOM     24  C   UNL     1       6.900   4.259  17.804  0.00  0.00    +0.000 C 
ATOM     25  C   UNL     1       5.789   4.401  18.855  0.00  0.00    +0.000 C 
ATOM     26  C   UNL     1       6.530   5.645  19.379  0.00  0.00    +0.000 C 
ENDBRANCH  19  25
ENDBRANCH  18  19
ENDBRANCH   1  18
TORSDOF 4
ENDMDL
MODEL 3
REMARK VINA RESULT:      -7.3      1.275      2.301
REMARK  Name = 
REMARK  5 active torsions:
REMARK  status: ('A' for Active; 'I' for Inactive)
REMARK    1  A    between atoms: C_1  and  C_2
REMARK    2  A    between atoms: C_6  and  O_7
REMARK    3  A    between atoms: O_7  and  C_8
REMARK    4  A    between atoms: C_8  and  C_9
REMARK    5  A    between atoms: C_14  and  C_15
REMARK                            x       y       z     vdW  Elec       q    Type
REMARK                         _______ _______ _______ _____ _____    ______ ____
ROOT
ATOM      1  C   UNL     1       4.226   2.404  19.112  0.00  0.00    +0.000 C 
ATOM      2  O   UNL     1       4.166   1.779  18.054  0.00  0.00    +0.000 OA
ATOM      3  N   UNL     1       4.962   3.543  19.363  0.00  0.00    +0.000 N 
ATOM      4  C   UNL     1       5.694   4.148  18.388  0.00  0.00    +0.000 A 
ATOM      5  N   UNL     1       5.689   3.911  17.104  0.00  0.00    +0.000 NA
ATOM      6  C   UNL     1       6.611   4.722  16.467  0.00  0.00    +0.000 A 
ATOM      7  C   UNL     1       7.340   5.534  17.316  0.00  0.00    +0.000 A 
ATOM      8  S   UNL     1       6.771   5.352  18.931  0.00  0.00    +0.000 S 
ATOM      9  H   UNL     1       5.009   3.924  20.300  0.00  0.00    +0.000 HD
ENDROOT
BRANCH   6  10
ATOM     10  C   UNL     1       6.771   4.652  15.018  0.00  0.00    +0.000 A 
ATOM     11  C   UNL     1       7.743   5.459  14.399  0.00  0.00    +0.000 A 
ATOM     12  C   UNL     1       7.937   5.415  13.017  0.00  0.00    +0.000 A 
ATOM     13  C   UNL     1       7.164   4.557  12.245  0.00  0.00    +0.000 A 
ATOM     14  F   UNL     1       7.363   4.526  10.919  0.00  0.00    +0.000 F 
ATOM     15  C   UNL     1       6.207   3.740  12.842  0.00  0.00    +0.000 A 
ATOM     16 CL   UNL     1       5.258   2.664  11.890  0.00  0.00    +0.000 Cl
ATOM     17  C   UNL     1       6.008   3.784  14.225  0.00  0.00    +0.000 A 
ENDBRANCH   6  10
BRANCH   1  18
ATOM     18  C   UNL     1       3.512   1.887  20.350  0.00  0.00    +0.000 C 
BRANCH  18  19
ATOM     19  O   UNL     1       3.370   2.917  21.321  0.00  0.00    +0.000 OA
BRANCH  19  25
ATOM     20  C   UNL     1       1.098   4.316  17.324  0.00  0.00    +0.000 C 
ATOM     21  C   UNL     1       1.881   4.905  18.467  0.00  0.00    +0.000 C 
ATOM     22  O   UNL     1       2.827   5.668  18.288  0.00  0.00    +0.000 OA
ATOM     23  N   UNL     1       1.398   4.578  19.714  0.00  0.00    +0.000 N 
ATOM     24  C   UNL     1       1.983   5.013  20.977  0.00  0.00    +0.000 C 
ATOM     25  C   UNL     1       2.058   3.533  21.382  0.00  0.00    +0.000 C 
ATOM     26  C   UNL     1       1.116   3.228  20.202  0.00  0.00    +0.000 C 
ENDBRANCH  19  25
ENDBRANCH  18  19
ENDBRANCH   1  18
TORSDOF 4
ENDMDL
MODEL 4
REMARK VINA RESULT:      -7.2      5.966      8.986
REMARK  Name = 
REMARK  5 active torsions:
REMARK  status: ('A' for Active; 'I' for Inactive)
REMARK    1  A    between atoms: C_1  and  C_2
REMARK    2  A    between atoms: C_6  and  O_7
REMARK    3  A    between atoms: O_7  and  C_8
REMARK    4  A    between atoms: C_8  and  C_9
REMARK    5  A    between atoms: C_14  and  C_15
REMARK                            x       y       z     vdW  Elec       q    Type
REMARK                         _______ _______ _______ _____ _____    ______ ____
ROOT
ATOM      1  C   UNL     1       3.089   5.449  19.712  0.00  0.00    +0.000 C 
ATOM      2  O   UNL     1       2.354   5.372  20.695  0.00  0.00    +0.000 OA
ATOM      3  N   UNL     1       3.171   6.494  18.815  0.00  0.00    +0.000 N 
ATOM      4  C   UNL     1       2.438   7.630  18.977  0.00  0.00    +0.000 A 
ATOM      5  N   UNL     1       1.735   8.002  20.011  0.00  0.00    +0.000 NA
ATOM      6  C   UNL     1       1.112   9.209  19.753  0.00  0.00    +0.000 A 
ATOM      7  C   UNL     1       1.329   9.704  18.480  0.00  0.00    +0.000 A 
ATOM      8  S   UNL     1       2.428   8.682  17.636  0.00  0.00    +0.000 S 
ATOM      9  H   UNL     1       3.746   6.411  17.986  0.00  0.00    +0.000 HD
ENDROOT
BRANCH   6  10
ATOM     10  C   UNL     1       0.283   9.840  20.776  0.00  0.00    +0.000 A 
ATOM     11  C   UNL     1       0.223   9.264  22.058  0.00  0.00    +0.000 A 
ATOM     12  C   UNL     1      -0.549   9.840  23.068  0.00  0.00    +0.000 A 
ATOM     13  C   UNL     1      -1.262  11.004  22.804  0.00  0.00    +0.000 A 
ATOM     14  F   UNL     1      -1.997  11.546  23.785  0.00  0.00    +0.000 F 
ATOM     15  C   UNL     1      -1.203  11.597  21.545  0.00  0.00    +0.000 A 
ATOM     16 CL   UNL     1      -2.071  13.048  21.220  0.00  0.00    +0.000 Cl
ATOM     17  C   UNL     1      -0.433  11.020  20.531  0.00  0.00    +0.000 A 
ENDBRANCH   6  10
BRANCH   1  18
ATOM     18  C   UNL     1       3.970   4.274  19.318  0.00  0.00    +0.000 C 
BRANCH  18  19
ATOM     19  O   UNL     1       3.713   3.873  17.979  0.00  0.00    +0.000 OA
BRANCH  19  25
ATOM     20  C   UNL     1       7.299   7.039  17.521  0.00  0.00    +0.000 C 
ATOM     21  C   UNL     1       6.128   6.507  16.738  0.00  0.00    +0.000 C 
ATOM     22  O   UNL     1       5.304   7.249  16.208  0.00  0.00    +0.000 OA
ATOM     23  N   UNL     1       6.110   5.138  16.605  0.00  0.00    +0.000 N 
ATOM     24  C   UNL     1       5.080   4.380  15.903  0.00  0.00    +0.000 C 
ATOM     25  C   UNL     1       4.889   3.562  17.189  0.00  0.00    +0.000 C 
ATOM     26  C   UNL     1       6.214   4.164  17.693  0.00  0.00    +0.000 C 
ENDBRANCH  19  25
ENDBRANCH  18  19
ENDBRANCH   1  18
TORSDOF 4
ENDMDL
MODEL 5
REMARK VINA RESULT:      -7.1      4.178      5.854
REMARK  Name = 
REMARK  5 active torsions:
REMARK  status: ('A' for Active; 'I' for Inactive)
REMARK    1  A    between atoms: C_1  and  C_2
REMARK    2  A    between atoms: C_6  and  O_7
REMARK    3  A    between atoms: O_7  and  C_8
REMARK    4  A    between atoms: C_8  and  C_9
REMARK    5  A    between atoms: C_14  and  C_15
REMARK                            x       y       z     vdW  Elec       q    Type
REMARK                         _______ _______ _______ _____ _____    ______ ____
ROOT
ATOM      1  C   UNL     1       1.981   7.276  20.223  0.00  0.00    +0.000 C 
ATOM      2  O   UNL     1       2.314   7.883  19.207  0.00  0.00    +0.000 OA
ATOM      3  N   UNL     1       2.271   5.966  20.542  0.00  0.00    +0.000 N 
ATOM      4  C   UNL     1       3.047   5.192  19.734  0.00  0.00    +0.000 A 
ATOM      5  N   UNL     1       3.762   5.555  18.705  0.00  0.00    +0.000 NA
ATOM      6  C   UNL     1       4.373   4.452  18.136  0.00  0.00    +0.000 A 
ATOM      7  C   UNL     1       4.054   3.249  18.739  0.00  0.00    +0.000 A 
ATOM      8  S   UNL     1       3.058   3.531  20.115  0.00  0.00    +0.000 S 
ATOM      9  H   UNL     1       1.867   5.539  21.366  0.00  0.00    +0.000 HD
ENDROOT
BRANCH   6  10
ATOM     10  C   UNL     1       5.245   4.612  16.977  0.00  0.00    +0.000 A 
ATOM     11  C   UNL     1       6.487   5.252  17.141  0.00  0.00    +0.000 A 
ATOM     12  C   UNL     1       7.357   5.417  16.062  0.00  0.00    +0.000 A 
ATOM     13  C   UNL     1       6.993   4.934  14.810  0.00  0.00    +0.000 A 
ATOM     14  F   UNL     1       7.840   5.099  13.784  0.00  0.00    +0.000 F 
ATOM     15  C   UNL     1       5.774   4.285  14.632  0.00  0.00    +0.000 A 
ATOM     16 CL   UNL     1       5.327   3.671  13.087  0.00  0.00    +0.000 Cl
ATOM     17  C   UNL     1       4.899   4.121  15.711  0.00  0.00    +0.000 A 
ENDBRANCH   6  10
BRANCH   1  18
ATOM     18  C   UNL     1       1.077   7.938  21.251  0.00  0.00    +0.000 C 
BRANCH  18  19
ATOM     19  O   UNL     1       1.219   9.352  21.215  0.00  0.00    +0.000 OA
BRANCH  19  25
ATOM     20  C   UNL     1       1.643  13.638  19.083  0.00  0.00    +0.000 C 
ATOM     21  C   UNL     1       1.263  13.050  20.416  0.00  0.00    +0.000 C 
ATOM     22  O   UNL     1       1.760  13.440  21.469  0.00  0.00    +0.000 OA
ATOM     23  N   UNL     1       0.264  12.106  20.354  0.00  0.00    +0.000 N 
ATOM     24  C   UNL     1      -0.275  11.383  21.501  0.00  0.00    +0.000 C 
ATOM     25  C   UNL     1       0.050  10.080  20.756  0.00  0.00    +0.000 C 
ATOM     26  C   UNL     1       0.243  10.928  19.486  0.00  0.00    +0.000 C 
ENDBRANCH  19  25
ENDBRANCH  18  19
ENDBRANCH   1  18
TORSDOF 4
ENDMDL
MODEL 6
REMARK VINA RESULT:      -7.1      4.802      8.038
REMARK  Name = 
REMARK  5 active torsions:
REMARK  status: ('A' for Active; 'I' for Inactive)
REMARK    1  A    between atoms: C_1  and  C_2
REMARK    2  A    between atoms: C_6  and  O_7
REMARK    3  A    between atoms: O_7  and  C_8
REMARK    4  A    between atoms: C_8  and  C_9
REMARK    5  A    between atoms: C_14  and  C_15
REMARK                            x       y       z     vdW  Elec       q    Type
REMARK                         _______ _______ _______ _____ _____    ______ ____
ROOT
ATOM      1  C   UNL     1       6.550   5.234  18.449  0.00  0.00    +0.000 C 
ATOM      2  O   UNL     1       6.540   6.462  18.508  0.00  0.00    +0.000 OA
ATOM      3  N   UNL     1       5.547   4.374  18.846  0.00  0.00    +0.000 N 
ATOM      4  C   UNL     1       4.357   4.838  19.318  0.00  0.00    +0.000 A 
ATOM      5  N   UNL     1       3.899   6.059  19.305  0.00  0.00    +0.000 NA
ATOM      6  C   UNL     1       2.662   6.111  19.920  0.00  0.00    +0.000 A 
ATOM      7  C   UNL     1       2.231   4.902  20.437  0.00  0.00    +0.000 A 
ATOM      8  S   UNL     1       3.356   3.662  20.039  0.00  0.00    +0.000 S 
ATOM      9  H   UNL     1       5.700   3.373  18.838  0.00  0.00    +0.000 HD
ENDROOT
BRANCH   6  10
ATOM     10  C   UNL     1       1.938   7.375  20.008  0.00  0.00    +0.000 A 
ATOM     11  C   UNL     1       1.948   8.246  18.904  0.00  0.00    +0.000 A 
ATOM     12  C   UNL     1       1.260   9.460  18.942  0.00  0.00    +0.000 A 
ATOM     13  C   UNL     1       0.549   9.808  20.084  0.00  0.00    +0.000 A 
ATOM     14  F   UNL     1      -0.107  10.977  20.105  0.00  0.00    +0.000 F 
ATOM     15  C   UNL     1       0.516   8.952  21.182  0.00  0.00    +0.000 A 
ATOM     16 CL   UNL     1      -0.377   9.372  22.593  0.00  0.00    +0.000 Cl
ATOM     17  C   UNL     1       1.206   7.736  21.148  0.00  0.00    +0.000 A 
ENDBRANCH   6  10
BRANCH   1  18
ATOM     18  C   UNL     1       7.797   4.498  17.985  0.00  0.00    +0.000 C 
BRANCH  18  19
ATOM     19  O   UNL     1       7.784   4.317  16.575  0.00  0.00    +0.000 OA
BRANCH  19  25
ATOM     20  C   UNL     1       7.241   3.694  11.841  0.00  0.00    +0.000 C 
ATOM     21  C   UNL     1       7.350   4.807  12.849  0.00  0.00    +0.000 C 
ATOM     22  O   UNL     1       8.140   5.738  12.712  0.00  0.00    +0.000 OA
ATOM     23  N   UNL     1       6.443   4.729  13.880  0.00  0.00    +0.000 N 
ATOM     24  C   UNL     1       6.350   5.677  14.985  0.00  0.00    +0.000 C 
ATOM     25  C   UNL     1       6.490   4.483  15.941  0.00  0.00    +0.000 C 
ATOM     26  C   UNL     1       6.208   3.566  14.737  0.00  0.00    +0.000 C 
ENDBRANCH  19  25
ENDBRANCH  18  19
ENDBRANCH   1  18
TORSDOF 4
ENDMDL
MODEL 7
REMARK VINA RESULT:      -7.1      4.344      6.038
REMARK  Name = 
REMARK  5 active torsions:
REMARK  status: ('A' for Active; 'I' for Inactive)
REMARK    1  A    between atoms: C_1  and  C_2
REMARK    2  A    between atoms: C_6  and  O_7
REMARK    3  A    between atoms: O_7  and  C_8
REMARK    4  A    between atoms: C_8  and  C_9
REMARK    5  A    between atoms: C_14  and  C_15
REMARK                            x       y       z     vdW  Elec       q    Type
REMARK                         _______ _______ _______ _____ _____    ______ ____
ROOT
ATOM      1  C   UNL     1       1.875   7.519  20.249  0.00  0.00    +0.000 C 
ATOM      2  O   UNL     1       2.241   8.111  19.235  0.00  0.00    +0.000 OA
ATOM      3  N   UNL     1       2.132   6.206  20.584  0.00  0.00    +0.000 N 
ATOM      4  C   UNL     1       2.908   5.410  19.799  0.00  0.00    +0.000 A 
ATOM      5  N   UNL     1       3.651   5.750  18.781  0.00  0.00    +0.000 NA
ATOM      6  C   UNL     1       4.251   4.630  18.234  0.00  0.00    +0.000 A 
ATOM      7  C   UNL     1       3.896   3.439  18.840  0.00  0.00    +0.000 A 
ATOM      8  S   UNL     1       2.877   3.752  20.192  0.00  0.00    +0.000 S 
ATOM      9  H   UNL     1       1.702   5.794  21.402  0.00  0.00    +0.000 HD
ENDROOT
BRANCH   6  10
ATOM     10  C   UNL     1       5.151   4.764  17.092  0.00  0.00    +0.000 A 
ATOM     11  C   UNL     1       6.370   5.445  17.260  0.00  0.00    +0.000 A 
ATOM     12  C   UNL     1       7.264   5.586  16.197  0.00  0.00    +0.000 A 
ATOM     13  C   UNL     1       6.948   5.039  14.960  0.00  0.00    +0.000 A 
ATOM     14  F   UNL     1       7.818   5.182  13.950  0.00  0.00    +0.000 F 
ATOM     15  C   UNL     1       5.752   4.348  14.779  0.00  0.00    +0.000 A 
ATOM     16 CL   UNL     1       5.364   3.654  13.252  0.00  0.00    +0.000 Cl
ATOM     17  C   UNL     1       4.853   4.208  15.841  0.00  0.00    +0.000 A 
ENDBRANCH   6  10
BRANCH   1  18
ATOM     18  C   UNL     1       0.964   8.207  21.253  0.00  0.00    +0.000 C 
BRANCH  18  19
ATOM     19  O   UNL     1       0.220   9.249  20.632  0.00  0.00    +0.000 OA
BRANCH  19  25
ATOM     20  C   UNL     1      -3.078  12.721  20.244  0.00  0.00    +0.000 C 
ATOM     21  C   UNL     1      -1.791  12.283  19.601  0.00  0.00    +0.000 C 
ATOM     22  O   UNL     1      -1.680  12.147  18.385  0.00  0.00    +0.000 OA
ATOM     23  N   UNL     1      -0.742  12.127  20.478  0.00  0.00    +0.000 N 
ATOM     24  C   UNL     1       0.603  11.701  20.106  0.00  0.00    +0.000 C 
ATOM     25  C   UNL     1       0.471  10.581  21.149  0.00  0.00    +0.000 C 
ATOM     26  C   UNL     1      -0.756  11.328  21.705  0.00  0.00    +0.000 C 
ENDBRANCH  19  25
ENDBRANCH  18  19
ENDBRANCH   1  18
TORSDOF 4
ENDMDL
MODEL 8
REMARK VINA RESULT:      -7.1      6.754      8.869
REMARK  Name = 
REMARK  5 active torsions:
REMARK  status: ('A' for Active; 'I' for Inactive)
REMARK    1  A    between atoms: C_1  and  C_2
REMARK    2  A    between atoms: C_6  and  O_7
REMARK    3  A    between atoms: O_7  and  C_8
REMARK    4  A    between atoms: C_8  and  C_9
REMARK    5  A    between atoms: C_14  and  C_15
REMARK                            x       y       z     vdW  Elec       q    Type
REMARK                         _______ _______ _______ _____ _____    ______ ____
ROOT
ATOM      1  C   UNL     1       0.393   9.920  21.723  0.00  0.00    +0.000 C 
ATOM      2  O   UNL     1       0.774   8.988  22.429  0.00  0.00    +0.000 OA
ATOM      3  N   UNL     1       0.629  10.092  20.374  0.00  0.00    +0.000 N 
ATOM      4  C   UNL     1       1.301   9.159  19.645  0.00  0.00    +0.000 A 
ATOM      5  N   UNL     1       1.648   7.950  19.994  0.00  0.00    +0.000 NA
ATOM      6  C   UNL     1       2.352   7.343  18.971  0.00  0.00    +0.000 A 
ATOM      7  C   UNL     1       2.566   8.149  17.868  0.00  0.00    +0.000 A 
ATOM      8  S   UNL     1       1.766   9.658  18.083  0.00  0.00    +0.000 S 
ATOM      9  H   UNL     1       0.346  10.946  19.911  0.00  0.00    +0.000 HD
ENDROOT
BRANCH   6  10
ATOM     10  C   UNL     1       2.828   5.971  19.122  0.00  0.00    +0.000 A 
ATOM     11  C   UNL     1       3.734   5.455  18.177  0.00  0.00    +0.000 A 
ATOM     12  C   UNL     1       4.222   4.152  18.289  0.00  0.00    +0.000 A 
ATOM     13  C   UNL     1       3.814   3.358  19.354  0.00  0.00    +0.000 A 
ATOM     14  F   UNL     1       4.293   2.109  19.449  0.00  0.00    +0.000 F 
ATOM     15  C   UNL     1       2.930   3.857  20.307  0.00  0.00    +0.000 A 
ATOM     16 CL   UNL     1       2.434   2.881  21.637  0.00  0.00    +0.000 Cl
ATOM     17  C   UNL     1       2.436   5.160  20.196  0.00  0.00    +0.000 A 
ENDBRANCH   6  10
BRANCH   1  18
ATOM     18  C   UNL     1      -0.347  11.097  22.338  0.00  0.00    +0.000 C 
BRANCH  18  19
ATOM     19  O   UNL     1      -0.675  12.064  21.348  0.00  0.00    +0.000 OA
BRANCH  19  25
ATOM     20  C   UNL     1      -4.197  12.579  24.577  0.00  0.00    +0.000 C 
ATOM     21  C   UNL     1      -3.952  12.766  23.104  0.00  0.00    +0.000 C 
ATOM     22  O   UNL     1      -4.700  12.294  22.251  0.00  0.00    +0.000 OA
ATOM     23  N   UNL     1      -2.875  13.570  22.806  0.00  0.00    +0.000 N 
ATOM     24  C   UNL     1      -2.425  13.897  21.457  0.00  0.00    +0.000 C 
ATOM     25  C   UNL     1      -1.038  13.372  21.858  0.00  0.00    +0.000 C 
ATOM     26  C   UNL     1      -1.515  13.415  23.322  0.00  0.00    +0.000 C 
ENDBRANCH  19  25
ENDBRANCH  18  19
ENDBRANCH   1  18
TORSDOF 4
ENDMDL
MODEL 9
REMARK VINA RESULT:      -6.9      4.587      6.408
REMARK  Name = 
REMARK  5 active torsions:
REMARK  status: ('A' for Active; 'I' for Inactive)
REMARK    1  A    between atoms: C_1  and  C_2
REMARK    2  A    between atoms: C_6  and  O_7
REMARK    3  A    between atoms: O_7  and  C_8
REMARK    4  A    between atoms: C_8  and  C_9
REMARK    5  A    between atoms: C_14  and  C_15
REMARK                            x       y       z     vdW  Elec       q    Type
REMARK                         _______ _______ _______ _____ _____    ______ ____
ROOT
ATOM      1  C   UNL     1       1.175   8.113  20.886  0.00  0.00    +0.000 C 
ATOM      2  O   UNL     1       1.706   8.691  19.939  0.00  0.00    +0.000 OA
ATOM      3  N   UNL     1       1.256   6.771  21.192  0.00  0.00    +0.000 N 
ATOM      4  C   UNL     1       2.024   5.919  20.458  0.00  0.00    +0.000 A 
ATOM      5  N   UNL     1       2.902   6.206  19.537  0.00  0.00    +0.000 NA
ATOM      6  C   UNL     1       3.435   5.044  19.009  0.00  0.00    +0.000 A 
ATOM      7  C   UNL     1       2.895   3.881  19.527  0.00  0.00    +0.000 A 
ATOM      8  S   UNL     1       1.778   4.263  20.779  0.00  0.00    +0.000 S 
ATOM      9  H   UNL     1       0.701   6.385  21.945  0.00  0.00    +0.000 HD
ENDROOT
BRANCH   6  10
ATOM     10  C   UNL     1       4.460   5.113  17.972  0.00  0.00    +0.000 A 
ATOM     11  C   UNL     1       4.388   4.226  16.882  0.00  0.00    +0.000 A 
ATOM     12  C   UNL     1       5.341   4.264  15.862  0.00  0.00    +0.000 A 
ATOM     13  C   UNL     1       6.369   5.197  15.922  0.00  0.00    +0.000 A 
ATOM     14  F   UNL     1       7.275   5.222  14.934  0.00  0.00    +0.000 F 
ATOM     15  C   UNL     1       6.448   6.092  16.985  0.00  0.00    +0.000 A 
ATOM     16 CL   UNL     1       7.711   7.261  17.054  0.00  0.00    +0.000 Cl
ATOM     17  C   UNL     1       5.497   6.055  18.010  0.00  0.00    +0.000 A 
ENDBRANCH   6  10
BRANCH   1  18
ATOM     18  C   UNL     1       0.240   8.867  21.818  0.00  0.00    +0.000 C 
BRANCH  18  19
ATOM     19  O   UNL     1       0.819  10.098  22.232  0.00  0.00    +0.000 OA
BRANCH  19  25
ATOM     20  C   UNL     1      -1.321  11.021  18.030  0.00  0.00    +0.000 C 
ATOM     21  C   UNL     1      -0.141  11.481  18.844  0.00  0.00    +0.000 C 
ATOM     22  O   UNL     1       0.990  11.559  18.372  0.00  0.00    +0.000 OA
ATOM     23  N   UNL     1      -0.456  11.877  20.124  0.00  0.00    +0.000 N 
ATOM     24  C   UNL     1       0.506  12.352  21.112  0.00  0.00    +0.000 C 
ATOM     25  C   UNL     1      -0.023  11.267  22.062  0.00  0.00    +0.000 C 
ATOM     26  C   UNL     1      -1.217  11.100  21.104  0.00  0.00    +0.000 C 
ENDBRANCH  19  25
ENDBRANCH  18  19
ENDBRANCH   1  18
TORSDOF 4
ENDMDL
