MODEL 1
REMARK VINA RESULT:      -6.8      0.000      0.000
REMARK  Name = 
REMARK  5 active torsions:
REMARK  status: ('A' for Active; 'I' for Inactive)
REMARK    1  A    between atoms: C_1  and  N_2
REMARK    2  A    between atoms: N_2  and  C_3
REMARK    3  A    between atoms: C_7  and  C_8
REMARK    4  A    between atoms: C_8  and  O_9
REMARK    5  A    between atoms: C_8  and  C_10
REMARK                            x       y       z     vdW  Elec       q    Type
REMARK                         _______ _______ _______ _____ _____    ______ ____
ROOT
ATOM      1  C   UNL     1      -1.589  12.285  18.585  0.00  0.00    +0.000 C 
ENDROOT
BRANCH   1   2
ATOM      2  C   UNL     1      -2.858  11.761  17.983  0.00  0.00    +0.000 C 
ATOM      3  C   UNL     1      -3.047  11.154  16.794  0.00  0.00    +0.000 C 
ATOM      4  C   UNL     1      -4.472  10.729  16.559  0.00  0.00    +0.000 C 
ATOM      5  C   UNL     1      -5.116  11.182  17.832  0.00  0.00    +0.000 A 
ATOM      6  C   UNL     1      -6.434  11.030  18.229  0.00  0.00    +0.000 A 
ATOM      7  C   UNL     1      -6.811  11.547  19.469  0.00  0.00    +0.000 A 
ATOM      8  C   UNL     1      -5.882  12.223  20.272  0.00  0.00    +0.000 A 
ATOM      9  C   UNL     1      -4.555  12.373  19.857  0.00  0.00    +0.000 A 
ATOM     10  C   UNL     1      -4.170  11.827  18.641  0.00  0.00    +0.000 A 
ENDBRANCH   1   2
BRANCH   1  15
ATOM     11  C   UNL     1       0.973   9.244  20.457  0.00  0.00    +0.000 A 
ATOM     12  C   UNL     1       1.038   9.536  19.079  0.00  0.00    +0.000 A 
ATOM     13 BR   UNL     1       2.156   8.641  17.822  0.00  0.00    +0.000 Br
ATOM     14  C   UNL     1       0.206  10.514  18.501  0.00  0.00    +0.000 A 
ATOM     15  C   UNL     1      -0.736  11.221  19.255  0.00  0.00    +0.000 A 
ATOM     16  C   UNL     1      -0.849  10.919  20.614  0.00  0.00    +0.000 A 
ATOM     17  C   UNL     1      -0.021   9.943  21.191  0.00  0.00    +0.000 A 
ATOM     18 BR   UNL     1      -0.288   9.600  23.053  0.00  0.00    +0.000 Br
BRANCH  11  20
ATOM     19  C   UNL     1       1.499   6.842  20.862  0.00  0.00    +0.000 C 
ATOM     20  N   UNL     1       1.715   8.253  21.133  0.00  0.00    +0.000 N 
ATOM     21  H   UNL     1       2.710   8.481  21.086  0.00  0.00    +0.000 HD
ENDBRANCH  11  20
ENDBRANCH   1  15
BRANCH   1  22
ATOM     22  O   UNL     1      -0.805  12.938  17.581  0.00  0.00    +0.000 OA
ATOM     23  H   UNL     1      -1.221  13.797  17.404  0.00  0.00    +0.000 HD
ENDBRANCH   1  22
TORSDOF 4
ENDMDL
MODEL 2
REMARK VINA RESULT:      -6.8      3.058      6.898
REMARK  Name = 
REMARK  5 active torsions:
REMARK  status: ('A' for Active; 'I' for Inactive)
REMARK    1  A    between atoms: C_1  and  N_2
REMARK    2  A    between atoms: N_2  and  C_3
REMARK    3  A    between atoms: C_7  and  C_8
REMARK    4  A    between atoms: C_8  and  O_9
REMARK    5  A    between atoms: C_8  and  C_10
REMARK                            x       y       z     vdW  Elec       q    Type
REMARK                         _______ _______ _______ _____ _____    ______ ____
ROOT
ATOM      1  C   UNL     1      -0.115  11.816  19.301  0.00  0.00    +0.000 C 
ENDROOT
BRANCH   1   2
ATOM      2  C   UNL     1       0.374  10.574  19.984  0.00  0.00    +0.000 C 
ATOM      3  C   UNL     1       0.184  10.175  21.258  0.00  0.00    +0.000 C 
ATOM      4  C   UNL     1       0.800   8.835  21.563  0.00  0.00    +0.000 C 
ATOM      5  C   UNL     1       1.394   8.488  20.234  0.00  0.00    +0.000 A 
ATOM      6  C   UNL     1       2.070   7.334  19.870  0.00  0.00    +0.000 A 
ATOM      7  C   UNL     1       2.546   7.236  18.563  0.00  0.00    +0.000 A 
ATOM      8  C   UNL     1       2.365   8.291  17.656  0.00  0.00    +0.000 A 
ATOM      9  C   UNL     1       1.684   9.451  18.039  0.00  0.00    +0.000 A 
ATOM     10  C   UNL     1       1.178   9.535  19.327  0.00  0.00    +0.000 A 
ENDBRANCH   1   2
BRANCH   1  15
ATOM     11  C   UNL     1      -4.243  11.620  17.805  0.00  0.00    +0.000 A 
ATOM     12  C   UNL     1      -3.935  12.077  19.103  0.00  0.00    +0.000 A 
ATOM     13 BR   UNL     1      -5.217  12.600  20.413  0.00  0.00    +0.000 Br
ATOM     14  C   UNL     1      -2.605  12.130  19.561  0.00  0.00    +0.000 A 
ATOM     15  C   UNL     1      -1.533  11.712  18.765  0.00  0.00    +0.000 A 
ATOM     16  C   UNL     1      -1.817  11.214  17.491  0.00  0.00    +0.000 A 
ATOM     17  C   UNL     1      -3.143  11.160  17.035  0.00  0.00    +0.000 A 
ATOM     18 BR   UNL     1      -3.406  10.436  15.285  0.00  0.00    +0.000 Br
BRANCH  11  20
ATOM     19  C   UNL     1      -6.390  12.629  17.041  0.00  0.00    +0.000 C 
ATOM     20  N   UNL     1      -5.535  11.474  17.260  0.00  0.00    +0.000 N 
ATOM     21  H   UNL     1      -5.487  10.897  16.418  0.00  0.00    +0.000 HD
ENDBRANCH  11  20
ENDBRANCH   1  15
BRANCH   1  22
ATOM     22  O   UNL     1      -0.042  12.929  20.198  0.00  0.00    +0.000 OA
ATOM     23  H   UNL     1      -0.865  12.936  20.714  0.00  0.00    +0.000 HD
ENDBRANCH   1  22
TORSDOF 4
ENDMDL
MODEL 3
REMARK VINA RESULT:      -6.6      0.639      2.268
REMARK  Name = 
REMARK  5 active torsions:
REMARK  status: ('A' for Active; 'I' for Inactive)
REMARK    1  A    between atoms: C_1  and  N_2
REMARK    2  A    between atoms: N_2  and  C_3
REMARK    3  A    between atoms: C_7  and  C_8
REMARK    4  A    between atoms: C_8  and  O_9
REMARK    5  A    between atoms: C_8  and  C_10
REMARK                            x       y       z     vdW  Elec       q    Type
REMARK                         _______ _______ _______ _____ _____    ______ ____
ROOT
ATOM      1  C   UNL     1      -1.561  12.312  18.753  0.00  0.00    +0.000 C 
ENDROOT
BRANCH   1   2
ATOM      2  C   UNL     1      -2.994  11.908  18.576  0.00  0.00    +0.000 C 
ATOM      3  C   UNL     1      -3.567  11.239  17.555  0.00  0.00    +0.000 C 
ATOM      4  C   UNL     1      -5.036  10.980  17.760  0.00  0.00    +0.000 C 
ATOM      5  C   UNL     1      -5.250  11.608  19.101  0.00  0.00    +0.000 A 
ATOM      6  C   UNL     1      -6.413  11.655  19.852  0.00  0.00    +0.000 A 
ATOM      7  C   UNL     1      -6.375  12.311  21.083  0.00  0.00    +0.000 A 
ATOM      8  C   UNL     1      -5.195  12.925  21.528  0.00  0.00    +0.000 A 
ATOM      9  C   UNL     1      -4.029  12.873  20.757  0.00  0.00    +0.000 A 
ATOM     10  C   UNL     1      -4.056  12.190  19.551  0.00  0.00    +0.000 A 
ENDBRANCH   1   2
BRANCH   1  15
ATOM     11  C   UNL     1       0.932   9.084  20.389  0.00  0.00    +0.000 A 
ATOM     12  C   UNL     1       0.035   9.820  21.191  0.00  0.00    +0.000 A 
ATOM     13 BR   UNL     1      -0.189   9.598  23.070  0.00  0.00    +0.000 Br
ATOM     14  C   UNL     1      -0.754  10.850  20.645  0.00  0.00    +0.000 A 
ATOM     15  C   UNL     1      -0.668  11.209  19.295  0.00  0.00    +0.000 A 
ATOM     16  C   UNL     1       0.246  10.524  18.491  0.00  0.00    +0.000 A 
ATOM     17  C   UNL     1       1.033   9.497  19.035  0.00  0.00    +0.000 A 
ATOM     18 BR   UNL     1       2.263   8.651  17.841  0.00  0.00    +0.000 Br
BRANCH  11  20
ATOM     19  C   UNL     1       1.408   6.673  20.806  0.00  0.00    +0.000 C 
ATOM     20  N   UNL     1       1.806   8.071  20.835  0.00  0.00    +0.000 N 
ATOM     21  H   UNL     1       2.721   8.193  20.399  0.00  0.00    +0.000 HD
ENDBRANCH  11  20
ENDBRANCH   1  15
BRANCH   1  22
ATOM     22  O   UNL     1      -1.024  12.769  17.507  0.00  0.00    +0.000 OA
ATOM     23  H   UNL     1      -1.460  12.262  16.803  0.00  0.00    +0.000 HD
ENDBRANCH   1  22
TORSDOF 4
ENDMDL
MODEL 4
REMARK VINA RESULT:      -6.6      3.033      6.590
REMARK  Name = 
REMARK  5 active torsions:
REMARK  status: ('A' for Active; 'I' for Inactive)
REMARK    1  A    between atoms: C_1  and  N_2
REMARK    2  A    between atoms: N_2  and  C_3
REMARK    3  A    between atoms: C_7  and  C_8
REMARK    4  A    between atoms: C_8  and  O_9
REMARK    5  A    between atoms: C_8  and  C_10
REMARK                            x       y       z     vdW  Elec       q    Type
REMARK                         _______ _______ _______ _____ _____    ______ ____
ROOT
ATOM      1  C   UNL     1       0.046  11.716  19.420  0.00  0.00    +0.000 C 
ENDROOT
BRANCH   1   2
ATOM      2  C   UNL     1       0.514  10.446  20.066  0.00  0.00    +0.000 C 
ATOM      3  C   UNL     1       0.318  10.013  21.327  0.00  0.00    +0.000 C 
ATOM      4  C   UNL     1       0.911   8.654  21.592  0.00  0.00    +0.000 C 
ATOM      5  C   UNL     1       1.498   8.336  20.252  0.00  0.00    +0.000 A 
ATOM      6  C   UNL     1       2.154   7.183  19.853  0.00  0.00    +0.000 A 
ATOM      7  C   UNL     1       2.628   7.116  18.543  0.00  0.00    +0.000 A 
ATOM      8  C   UNL     1       2.464   8.200  17.668  0.00  0.00    +0.000 A 
ATOM      9  C   UNL     1       1.803   9.360  18.086  0.00  0.00    +0.000 A 
ATOM     10  C   UNL     1       1.299   9.413  19.377  0.00  0.00    +0.000 A 
ENDBRANCH   1   2
BRANCH   1  15
ATOM     11  C   UNL     1      -4.143  11.537  18.103  0.00  0.00    +0.000 A 
ATOM     12  C   UNL     1      -3.076  11.139  17.271  0.00  0.00    +0.000 A 
ATOM     13 BR   UNL     1      -3.256  10.545  15.469  0.00  0.00    +0.000 Br
ATOM     14  C   UNL     1      -1.742  11.205  17.714  0.00  0.00    +0.000 A 
ATOM     15  C   UNL     1      -1.409  11.690  18.983  0.00  0.00    +0.000 A 
ATOM     16  C   UNL     1      -2.446  12.132  19.809  0.00  0.00    +0.000 A 
ATOM     17  C   UNL     1      -3.776  12.067  19.367  0.00  0.00    +0.000 A 
ATOM     18 BR   UNL     1      -5.102  12.724  20.578  0.00  0.00    +0.000 Br
BRANCH  11  20
ATOM     19  C   UNL     1      -6.080  12.709  17.062  0.00  0.00    +0.000 C 
ATOM     20  N   UNL     1      -5.508  11.564  17.749  0.00  0.00    +0.000 N 
ATOM     21  H   UNL     1      -5.753  10.696  17.268  0.00  0.00    +0.000 HD
ENDBRANCH  11  20
ENDBRANCH   1  15
BRANCH   1  22
ATOM     22  O   UNL     1       0.239  12.818  20.313  0.00  0.00    +0.000 OA
ATOM     23  H   UNL     1       1.195  12.968  20.384  0.00  0.00    +0.000 HD
ENDBRANCH   1  22
TORSDOF 4
ENDMDL
MODEL 5
REMARK VINA RESULT:      -6.5      3.992      8.558
REMARK  Name = 
REMARK  5 active torsions:
REMARK  status: ('A' for Active; 'I' for Inactive)
REMARK    1  A    between atoms: C_1  and  N_2
REMARK    2  A    between atoms: N_2  and  C_3
REMARK    3  A    between atoms: C_7  and  C_8
REMARK    4  A    between atoms: C_8  and  O_9
REMARK    5  A    between atoms: C_8  and  C_10
REMARK                            x       y       z     vdW  Elec       q    Type
REMARK                         _______ _______ _______ _____ _____    ______ ____
ROOT
ATOM      1  C   UNL     1       2.216   5.197  20.451  0.00  0.00    +0.000 C 
ENDROOT
BRANCH   1   2
ATOM      2  C   UNL     1       2.678   4.653  19.133  0.00  0.00    +0.000 C 
ATOM      3  C   UNL     1       1.960   4.052  18.164  0.00  0.00    +0.000 C 
ATOM      4  C   UNL     1       2.779   3.679  16.956  0.00  0.00    +0.000 C 
ATOM      5  C   UNL     1       4.130   4.174  17.367  0.00  0.00    +0.000 A 
ATOM      6  C   UNL     1       5.310   4.152  16.642  0.00  0.00    +0.000 A 
ATOM      7  C   UNL     1       6.460   4.668  17.241  0.00  0.00    +0.000 A 
ATOM      8  C   UNL     1       6.419   5.169  18.551  0.00  0.00    +0.000 A 
ATOM      9  C   UNL     1       5.220   5.181  19.272  0.00  0.00    +0.000 A 
ATOM     10  C   UNL     1       4.070   4.703  18.665  0.00  0.00    +0.000 A 
ENDBRANCH   1   2
BRANCH   1  15
ATOM     11  C   UNL     1       0.929   9.391  20.199  0.00  0.00    +0.000 A 
ATOM     12  C   UNL     1       1.675   8.772  19.175  0.00  0.00    +0.000 A 
ATOM     13 BR   UNL     1       2.295   9.637  17.594  0.00  0.00    +0.000 Br
ATOM     14  C   UNL     1       2.077   7.426  19.278  0.00  0.00    +0.000 A 
ATOM     15  C   UNL     1       1.780   6.652  20.404  0.00  0.00    +0.000 A 
ATOM     16  C   UNL     1       1.080   7.257  21.450  0.00  0.00    +0.000 A 
ATOM     17  C   UNL     1       0.680   8.598  21.349  0.00  0.00    +0.000 A 
ATOM     18 BR   UNL     1      -0.249   9.320  22.856  0.00  0.00    +0.000 Br
BRANCH  11  20
ATOM     19  C   UNL     1      -0.671  11.176  19.518  0.00  0.00    +0.000 C 
ATOM     20  N   UNL     1       0.519  10.741  20.228  0.00  0.00    +0.000 N 
ATOM     21  H   UNL     1       0.504  11.072  21.194  0.00  0.00    +0.000 HD
ENDBRANCH  11  20
ENDBRANCH   1  15
BRANCH   1  22
ATOM     22  O   UNL     1       1.131   4.408  20.952  0.00  0.00    +0.000 OA
ATOM     23  H   UNL     1       1.299   4.253  21.896  0.00  0.00    +0.000 HD
ENDBRANCH   1  22
TORSDOF 4
ENDMDL
MODEL 6
REMARK VINA RESULT:      -6.5      4.007      8.794
REMARK  Name = 
REMARK  5 active torsions:
REMARK  status: ('A' for Active; 'I' for Inactive)
REMARK    1  A    between atoms: C_1  and  N_2
REMARK    2  A    between atoms: N_2  and  C_3
REMARK    3  A    between atoms: C_7  and  C_8
REMARK    4  A    between atoms: C_8  and  O_9
REMARK    5  A    between atoms: C_8  and  C_10
REMARK                            x       y       z     vdW  Elec       q    Type
REMARK                         _______ _______ _______ _____ _____    ______ ____
ROOT
ATOM      1  C   UNL     1       2.213   5.236  20.391  0.00  0.00    +0.000 C 
ENDROOT
BRANCH   1   2
ATOM      2  C   UNL     1       2.669   4.658  19.085  0.00  0.00    +0.000 C 
ATOM      3  C   UNL     1       1.945   4.032  18.135  0.00  0.00    +0.000 C 
ATOM      4  C   UNL     1       2.758   3.628  16.933  0.00  0.00    +0.000 C 
ATOM      5  C   UNL     1       4.111   4.134  17.324  0.00  0.00    +0.000 A 
ATOM      6  C   UNL     1       5.288   4.093  16.594  0.00  0.00    +0.000 A 
ATOM      7  C   UNL     1       6.440   4.623  17.174  0.00  0.00    +0.000 A 
ATOM      8  C   UNL     1       6.406   5.158  18.470  0.00  0.00    +0.000 A 
ATOM      9  C   UNL     1       5.212   5.189  19.197  0.00  0.00    +0.000 A 
ATOM     10  C   UNL     1       4.058   4.696  18.608  0.00  0.00    +0.000 A 
ENDBRANCH   1   2
BRANCH   1  15
ATOM     11  C   UNL     1       1.055   9.474  20.285  0.00  0.00    +0.000 A 
ATOM     12  C   UNL     1       0.737   8.636  21.374  0.00  0.00    +0.000 A 
ATOM     13 BR   UNL     1      -0.277   9.159  22.900  0.00  0.00    +0.000 Br
ATOM     14  C   UNL     1       1.119   7.281  21.386  0.00  0.00    +0.000 A 
ATOM     15  C   UNL     1       1.803   6.697  20.315  0.00  0.00    +0.000 A 
ATOM     16  C   UNL     1       2.090   7.497  19.206  0.00  0.00    +0.000 A 
ATOM     17  C   UNL     1       1.709   8.847  19.193  0.00  0.00    +0.000 A 
ATOM     18 BR   UNL     1       2.135   9.831  17.610  0.00  0.00    +0.000 Br
BRANCH  11  20
ATOM     19  C   UNL     1      -0.665  11.191  19.732  0.00  0.00    +0.000 C 
ATOM     20  N   UNL     1       0.681  10.826  20.141  0.00  0.00    +0.000 N 
ATOM     21  H   UNL     1       0.957  11.348  20.975  0.00  0.00    +0.000 HD
ENDBRANCH  11  20
ENDBRANCH   1  15
BRANCH   1  22
ATOM     22  O   UNL     1       1.113   4.476  20.905  0.00  0.00    +0.000 OA
ATOM     23  H   UNL     1       1.481   3.670  21.301  0.00  0.00    +0.000 HD
ENDBRANCH   1  22
TORSDOF 4
ENDMDL
MODEL 7
REMARK VINA RESULT:      -6.5      2.963      7.052
REMARK  Name = 
REMARK  5 active torsions:
REMARK  status: ('A' for Active; 'I' for Inactive)
REMARK    1  A    between atoms: C_1  and  N_2
REMARK    2  A    between atoms: N_2  and  C_3
REMARK    3  A    between atoms: C_7  and  C_8
REMARK    4  A    between atoms: C_8  and  O_9
REMARK    5  A    between atoms: C_8  and  C_10
REMARK                            x       y       z     vdW  Elec       q    Type
REMARK                         _______ _______ _______ _____ _____    ______ ____
ROOT
ATOM      1  C   UNL     1       0.855  10.791  18.988  0.00  0.00    +0.000 C 
ENDROOT
BRANCH   1   2
ATOM      2  C   UNL     1       1.096   9.488  19.688  0.00  0.00    +0.000 C 
ATOM      3  C   UNL     1       0.626   9.063  20.878  0.00  0.00    +0.000 C 
ATOM      4  C   UNL     1       1.058   7.663  21.227  0.00  0.00    +0.000 C 
ATOM      5  C   UNL     1       1.872   7.310  20.022  0.00  0.00    +0.000 A 
ATOM      6  C   UNL     1       2.510   6.114  19.736  0.00  0.00    +0.000 A 
ATOM      7  C   UNL     1       3.225   6.019  18.542  0.00  0.00    +0.000 A 
ATOM      8  C   UNL     1       3.313   7.117  17.674  0.00  0.00    +0.000 A 
ATOM      9  C   UNL     1       2.667   8.320  17.977  0.00  0.00    +0.000 A 
ATOM     10  C   UNL     1       1.926   8.403  19.145  0.00  0.00    +0.000 A 
ENDBRANCH   1   2
BRANCH   1  15
ATOM     11  C   UNL     1      -3.344  11.630  17.997  0.00  0.00    +0.000 A 
ATOM     12  C   UNL     1      -2.761  12.047  19.212  0.00  0.00    +0.000 A 
ATOM     13 BR   UNL     1      -3.681  12.950  20.615  0.00  0.00    +0.000 Br
ATOM     14  C   UNL     1      -1.414  11.767  19.508  0.00  0.00    +0.000 A 
ATOM     15  C   UNL     1      -0.600  11.043  18.629  0.00  0.00    +0.000 A 
ATOM     16  C   UNL     1      -1.168  10.581  17.440  0.00  0.00    +0.000 A 
ATOM     17  C   UNL     1      -2.511  10.860  17.144  0.00  0.00    +0.000 A 
ATOM     18 BR   UNL     1      -3.179  10.153  15.498  0.00  0.00    +0.000 Br
BRANCH  11  20
ATOM     19  C   UNL     1      -5.748  11.010  18.216  0.00  0.00    +0.000 C 
ATOM     20  N   UNL     1      -4.691  11.807  17.617  0.00  0.00    +0.000 N 
ATOM     21  H   UNL     1      -4.926  12.801  17.650  0.00  0.00    +0.000 HD
ENDBRANCH  11  20
ENDBRANCH   1  15
BRANCH   1  22
ATOM     22  O   UNL     1       1.323  11.875  19.799  0.00  0.00    +0.000 OA
ATOM     23  H   UNL     1       2.075  12.278  19.335  0.00  0.00    +0.000 HD
ENDBRANCH   1  22
TORSDOF 4
ENDMDL
MODEL 8
REMARK VINA RESULT:      -6.4      2.949      6.580
REMARK  Name = 
REMARK  5 active torsions:
REMARK  status: ('A' for Active; 'I' for Inactive)
REMARK    1  A    between atoms: C_1  and  N_2
REMARK    2  A    between atoms: N_2  and  C_3
REMARK    3  A    between atoms: C_7  and  C_8
REMARK    4  A    between atoms: C_8  and  O_9
REMARK    5  A    between atoms: C_8  and  C_10
REMARK                            x       y       z     vdW  Elec       q    Type
REMARK                         _______ _______ _______ _____ _____    ______ ____
ROOT
ATOM      1  C   UNL     1       0.628  11.206  20.207  0.00  0.00    +0.000 C 
ENDROOT
BRANCH   1   2
ATOM      2  C   UNL     1       0.944   9.769  20.495  0.00  0.00    +0.000 C 
ATOM      3  C   UNL     1       0.661   9.041  21.594  0.00  0.00    +0.000 C 
ATOM      4  C   UNL     1       1.107   7.606  21.492  0.00  0.00    +0.000 C 
ATOM      5  C   UNL     1       1.708   7.594  20.122  0.00  0.00    +0.000 A 
ATOM      6  C   UNL     1       2.260   6.524  19.436  0.00  0.00    +0.000 A 
ATOM      7  C   UNL     1       2.772   6.756  18.159  0.00  0.00    +0.000 A 
ATOM      8  C   UNL     1       2.748   8.044  17.603  0.00  0.00    +0.000 A 
ATOM      9  C   UNL     1       2.191   9.115  18.309  0.00  0.00    +0.000 A 
ATOM     10  C   UNL     1       1.648   8.878  19.563  0.00  0.00    +0.000 A 
ENDBRANCH   1   2
BRANCH   1  15
ATOM     11  C   UNL     1      -3.405  11.753  18.548  0.00  0.00    +0.000 A 
ATOM     12  C   UNL     1      -2.405  11.030  17.866  0.00  0.00    +0.000 A 
ATOM     13 BR   UNL     1      -2.599  10.256  16.136  0.00  0.00    +0.000 Br
ATOM     14  C   UNL     1      -1.119  10.868  18.418  0.00  0.00    +0.000 A 
ATOM     15  C   UNL     1      -0.767  11.434  19.647  0.00  0.00    +0.000 A 
ATOM     16  C   UNL     1      -1.728  12.191  20.320  0.00  0.00    +0.000 A 
ATOM     17  C   UNL     1      -3.009  12.354  19.771  0.00  0.00    +0.000 A 
ATOM     18 BR   UNL     1      -4.228  13.433  20.774  0.00  0.00    +0.000 Br
BRANCH  11  20
ATOM     19  C   UNL     1      -5.765  11.036  18.190  0.00  0.00    +0.000 C 
ATOM     20  N   UNL     1      -4.705  12.023  18.073  0.00  0.00    +0.000 N 
ATOM     21  H   UNL     1      -5.017  12.930  18.427  0.00  0.00    +0.000 HD
ENDBRANCH  11  20
ENDBRANCH   1  15
BRANCH   1  22
ATOM     22  O   UNL     1       0.779  11.988  21.397  0.00  0.00    +0.000 OA
ATOM     23  H   UNL     1       1.422  11.531  21.962  0.00  0.00    +0.000 HD
ENDBRANCH   1  22
TORSDOF 4
ENDMDL
MODEL 9
REMARK VINA RESULT:      -6.3      3.735      5.377
REMARK  Name = 
REMARK  5 active torsions:
REMARK  status: ('A' for Active; 'I' for Inactive)
REMARK    1  A    between atoms: C_1  and  N_2
REMARK    2  A    between atoms: N_2  and  C_3
REMARK    3  A    between atoms: C_7  and  C_8
REMARK    4  A    between atoms: C_8  and  O_9
REMARK    5  A    between atoms: C_8  and  C_10
REMARK                            x       y       z     vdW  Elec       q    Type
REMARK                         _______ _______ _______ _____ _____    ______ ____
ROOT
ATOM      1  C   UNL     1       1.093   8.282  21.471  0.00  0.00    +0.000 C 
ENDROOT
BRANCH   1   2
ATOM      2  C   UNL     1       0.419   9.396  20.728  0.00  0.00    +0.000 C 
ATOM      3  C   UNL     1       0.448   9.677  19.409  0.00  0.00    +0.000 C 
ATOM      4  C   UNL     1      -0.398  10.864  19.031  0.00  0.00    +0.000 C 
ATOM      5  C   UNL     1      -0.957  11.248  20.365  0.00  0.00    +0.000 A 
ATOM      6  C   UNL     1      -1.854  12.262  20.661  0.00  0.00    +0.000 A 
ATOM      7  C   UNL     1      -2.229  12.441  21.992  0.00  0.00    +0.000 A 
ATOM      8  C   UNL     1      -1.689  11.629  23.001  0.00  0.00    +0.000 A 
ATOM      9  C   UNL     1      -0.782  10.611  22.688  0.00  0.00    +0.000 A 
ATOM     10  C   UNL     1      -0.436  10.409  21.360  0.00  0.00    +0.000 A 
ENDBRANCH   1   2
BRANCH   1  15
ATOM     11  C   UNL     1       2.601   5.061  18.889  0.00  0.00    +0.000 A 
ATOM     12  C   UNL     1       1.768   4.807  19.999  0.00  0.00    +0.000 A 
ATOM     13 BR   UNL     1       1.233   3.077  20.593  0.00  0.00    +0.000 Br
ATOM     14  C   UNL     1       1.298   5.855  20.812  0.00  0.00    +0.000 A 
ATOM     15  C   UNL     1       1.651   7.188  20.576  0.00  0.00    +0.000 A 
ATOM     16  C   UNL     1       2.510   7.460  19.509  0.00  0.00    +0.000 A 
ATOM     17  C   UNL     1       2.981   6.415  18.699  0.00  0.00    +0.000 A 
ATOM     18 BR   UNL     1       4.170   6.911  17.286  0.00  0.00    +0.000 Br
BRANCH  11  20
ATOM     19  C   UNL     1       4.321   3.308  18.464  0.00  0.00    +0.000 C 
ATOM     20  N   UNL     1       3.173   4.091  18.040  0.00  0.00    +0.000 N 
ATOM     21  H   UNL     1       2.438   3.483  17.673  0.00  0.00    +0.000 HD
ENDBRANCH  11  20
ENDBRANCH   1  15
BRANCH   1  22
ATOM     22  O   UNL     1       2.156   8.804  22.276  0.00  0.00    +0.000 OA
ATOM     23  H   UNL     1       1.944   8.598  23.201  0.00  0.00    +0.000 HD
ENDBRANCH   1  22
TORSDOF 4
ENDMDL
