MODEL 1
REMARK VINA RESULT:      -8.0      0.000      0.000
REMARK  Name = 
REMARK  12 active torsions:
REMARK  status: ('A' for Active; 'I' for Inactive)
REMARK    1  A    between atoms: C_1  and  O_2
REMARK    2  A    between atoms: O_2  and  C_3
REMARK    3  A    between atoms: C_6  and  C_7
REMARK    4  A    between atoms: C_7  and  N_8
REMARK    5  A    between atoms: C_9  and  C_11
REMARK    6  A    between atoms: C_11  and  C_12
REMARK    7  A    between atoms: C_12  and  N_13
REMARK    8  A    between atoms: N_13  and  S_14
REMARK    9  A    between atoms: S_14  and  C_17
REMARK   10  A    between atoms: C_21  and  C_22
REMARK   11  A    between atoms: C_27  and  O_28
REMARK   12  A    between atoms: O_28  and  C_29
REMARK                            x       y       z     vdW  Elec       q    Type
REMARK                         _______ _______ _______ _____ _____    ______ ____
ROOT
ATOM      1  C   UNL     1       7.255   5.113  18.385  0.00  0.00    +0.000 C 
ENDROOT
BRANCH   1   2
ATOM      2  N   UNL     1       7.496   4.866  16.962  0.00  0.00    +0.000 NA
ATOM      3  H   UNL     1       8.028   3.971  16.854  0.00  0.00    +0.000 HD
BRANCH   2   4
ATOM      4  S   UNL     1       5.950   4.673  16.119  0.00  0.00    +0.000 S 
ATOM      5  O   UNL     1       6.007   5.680  14.960  0.00  0.00    +0.000 OA
ATOM      6  O   UNL     1       6.043   3.325  15.387  0.00  0.00    +0.000 OA
BRANCH   4   7
ATOM      7  C   UNL     1       4.466   4.864  17.103  0.00  0.00    +0.000 A 
ATOM      8  C   UNL     1       3.889   6.121  17.278  0.00  0.00    +0.000 A 
ATOM      9  C   UNL     1       2.730   6.251  18.035  0.00  0.00    +0.000 A 
ATOM     10  C   UNL     1       2.138   5.127  18.618  0.00  0.00    +0.000 A 
ATOM     11  C   UNL     1       2.700   3.836  18.458  0.00  0.00    +0.000 A 
ATOM     12  C   UNL     1       3.880   3.735  17.685  0.00  0.00    +0.000 A 
BRANCH  11  13
ATOM     13  C   UNL     1       2.070   2.607  19.080  0.00  0.00    +0.000 C 
ATOM     14  N   UNL     1       1.662   1.617  18.361  0.00  0.00    +0.000 NA
ATOM     15  N   UNL     1       1.897   2.490  20.488  0.00  0.00    +0.000 N 
ATOM     16  H   UNL     1       1.720   1.561  17.340  0.00  0.00    +0.000 HD
ATOM     17  H   UNL     1       2.181   3.211  21.161  0.00  0.00    +0.000 HD
ATOM     18  H   UNL     1       1.465   1.639  20.878  0.00  0.00    +0.000 HD
ENDBRANCH  11  13
ENDBRANCH   4   7
ENDBRANCH   2   4
ENDBRANCH   1   2
BRANCH   1  19
ATOM     19  C   UNL     1       8.200   6.210  18.885  0.00  0.00    +0.000 C 
BRANCH  19  21
ATOM     20  N   UNL     1       8.600   8.656  18.613  0.00  0.00    +0.000 N 
ATOM     21  C   UNL     1       7.962   7.526  18.189  0.00  0.00    +0.000 C 
ATOM     22  O   UNL     1       7.216   7.557  17.220  0.00  0.00    +0.000 OA
ATOM     23  H   UNL     1       9.229   8.602  19.430  0.00  0.00    +0.000 HD
BRANCH  20  24
ATOM     24  C   UNL     1       8.487   9.938  17.938  0.00  0.00    +0.000 C 
BRANCH  24  28
ATOM     25  C   UNL     1      10.857  13.030  19.854  0.00  0.00    +0.000 A 
ATOM     26  C   UNL     1      10.202  12.038  20.620  0.00  0.00    +0.000 A 
ATOM     27  C   UNL     1       9.444  11.037  20.005  0.00  0.00    +0.000 A 
ATOM     28  C   UNL     1       9.327  10.996  18.611  0.00  0.00    +0.000 A 
ATOM     29  C   UNL     1       9.976  11.970  17.843  0.00  0.00    +0.000 A 
ATOM     30  C   UNL     1      10.733  12.989  18.436  0.00  0.00    +0.000 A 
BRANCH  25  32
ATOM     31  C   UNL     1      11.114  15.226  20.895  0.00  0.00    +0.000 C 
ATOM     32  O   UNL     1      11.593  14.008  20.448  0.00  0.00    +0.000 OA
ENDBRANCH  25  32
BRANCH  30  33
ATOM     33  O   UNL     1      11.296  13.887  17.582  0.00  0.00    +0.000 OA
ATOM     34  C   UNL     1      10.825  15.120  17.191  0.00  0.00    +0.000 C 
ENDBRANCH  30  33
ENDBRANCH  24  28
ENDBRANCH  20  24
ENDBRANCH  19  21
ENDBRANCH   1  19
TORSDOF 10
ENDMDL
MODEL 2
REMARK VINA RESULT:      -7.9      5.632      7.892
REMARK  Name = 
REMARK  12 active torsions:
REMARK  status: ('A' for Active; 'I' for Inactive)
REMARK    1  A    between atoms: C_1  and  O_2
REMARK    2  A    between atoms: O_2  and  C_3
REMARK    3  A    between atoms: C_6  and  C_7
REMARK    4  A    between atoms: C_7  and  N_8
REMARK    5  A    between atoms: C_9  and  C_11
REMARK    6  A    between atoms: C_11  and  C_12
REMARK    7  A    between atoms: C_12  and  N_13
REMARK    8  A    between atoms: N_13  and  S_14
REMARK    9  A    between atoms: S_14  and  C_17
REMARK   10  A    between atoms: C_21  and  C_22
REMARK   11  A    between atoms: C_27  and  O_28
REMARK   12  A    between atoms: O_28  and  C_29
REMARK                            x       y       z     vdW  Elec       q    Type
REMARK                         _______ _______ _______ _____ _____    ______ ____
ROOT
ATOM      1  C   UNL     1       2.349   2.515  20.907  0.00  0.00    +0.000 C 
ENDROOT
BRANCH   1   2
ATOM      2  N   UNL     1       3.679   2.343  20.322  0.00  0.00    +0.000 NA
ATOM      3  H   UNL     1       3.993   1.355  20.465  0.00  0.00    +0.000 HD
BRANCH   2   4
ATOM      4  S   UNL     1       3.606   2.631  18.576  0.00  0.00    +0.000 S 
ATOM      5  O   UNL     1       3.894   1.262  17.939  0.00  0.00    +0.000 OA
ATOM      6  O   UNL     1       2.117   2.836  18.252  0.00  0.00    +0.000 OA
BRANCH   4   7
ATOM      7  C   UNL     1       4.673   3.913  17.924  0.00  0.00    +0.000 A 
ATOM      8  C   UNL     1       4.484   4.403  16.633  0.00  0.00    +0.000 A 
ATOM      9  C   UNL     1       5.314   5.406  16.145  0.00  0.00    +0.000 A 
ATOM     10  C   UNL     1       6.335   5.929  16.945  0.00  0.00    +0.000 A 
ATOM     11  C   UNL     1       6.551   5.452  18.262  0.00  0.00    +0.000 A 
ATOM     12  C   UNL     1       5.693   4.430  18.729  0.00  0.00    +0.000 A 
BRANCH  11  13
ATOM     13  C   UNL     1       7.650   6.009  19.143  0.00  0.00    +0.000 C 
ATOM     14  N   UNL     1       7.988   5.436  20.249  0.00  0.00    +0.000 NA
ATOM     15  N   UNL     1       8.358   7.192  18.793  0.00  0.00    +0.000 N 
ATOM     16  H   UNL     1       7.568   4.583  20.628  0.00  0.00    +0.000 HD
ATOM     17  H   UNL     1       8.179   7.735  17.940  0.00  0.00    +0.000 HD
ATOM     18  H   UNL     1       9.101   7.544  19.415  0.00  0.00    +0.000 HD
ENDBRANCH  11  13
ENDBRANCH   4   7
ENDBRANCH   2   4
ENDBRANCH   1   2
BRANCH   1  19
ATOM     19  C   UNL     1       2.283   3.849  21.656  0.00  0.00    +0.000 C 
BRANCH  19  21
ATOM     20  N   UNL     1       2.592   6.030  20.486  0.00  0.00    +0.000 N 
ATOM     21  C   UNL     1       1.783   4.970  20.779  0.00  0.00    +0.000 C 
ATOM     22  O   UNL     1       0.656   4.897  20.311  0.00  0.00    +0.000 OA
ATOM     23  H   UNL     1       3.542   6.064  20.889  0.00  0.00    +0.000 HD
BRANCH  20  24
ATOM     24  C   UNL     1       2.209   7.099  19.580  0.00  0.00    +0.000 C 
BRANCH  24  28
ATOM     25  C   UNL     1       0.397  10.434  21.690  0.00  0.00    +0.000 A 
ATOM     26  C   UNL     1       0.931   9.331  22.396  0.00  0.00    +0.000 A 
ATOM     27  C   UNL     1       1.522   8.259  21.720  0.00  0.00    +0.000 A 
ATOM     28  C   UNL     1       1.601   8.264  20.323  0.00  0.00    +0.000 A 
ATOM     29  C   UNL     1       1.080   9.354  19.614  0.00  0.00    +0.000 A 
ATOM     30  C   UNL     1       0.475  10.435  20.269  0.00  0.00    +0.000 A 
BRANCH  25  32
ATOM     31  C   UNL     1      -1.477  11.516  22.825  0.00  0.00    +0.000 C 
ATOM     32  O   UNL     1      -0.181  11.477  22.344  0.00  0.00    +0.000 OA
ENDBRANCH  25  32
BRANCH  30  33
ATOM     33  O   UNL     1      -0.011  11.421  19.466  0.00  0.00    +0.000 OA
ATOM     34  C   UNL     1      -0.981  11.342  18.492  0.00  0.00    +0.000 C 
ENDBRANCH  30  33
ENDBRANCH  24  28
ENDBRANCH  20  24
ENDBRANCH  19  21
ENDBRANCH   1  19
TORSDOF 10
ENDMDL
MODEL 3
REMARK VINA RESULT:      -7.8      2.102      2.636
REMARK  Name = 
REMARK  12 active torsions:
REMARK  status: ('A' for Active; 'I' for Inactive)
REMARK    1  A    between atoms: C_1  and  O_2
REMARK    2  A    between atoms: O_2  and  C_3
REMARK    3  A    between atoms: C_6  and  C_7
REMARK    4  A    between atoms: C_7  and  N_8
REMARK    5  A    between atoms: C_9  and  C_11
REMARK    6  A    between atoms: C_11  and  C_12
REMARK    7  A    between atoms: C_12  and  N_13
REMARK    8  A    between atoms: N_13  and  S_14
REMARK    9  A    between atoms: S_14  and  C_17
REMARK   10  A    between atoms: C_21  and  C_22
REMARK   11  A    between atoms: C_27  and  O_28
REMARK   12  A    between atoms: O_28  and  C_29
REMARK                            x       y       z     vdW  Elec       q    Type
REMARK                         _______ _______ _______ _____ _____    ______ ____
ROOT
ATOM      1  C   UNL     1       7.435   5.031  17.750  0.00  0.00    +0.000 C 
ENDROOT
BRANCH   1   2
ATOM      2  N   UNL     1       6.504   4.136  18.439  0.00  0.00    +0.000 NA
ATOM      3  H   UNL     1       6.459   4.400  19.450  0.00  0.00    +0.000 HD
BRANCH   2   4
ATOM      4  S   UNL     1       4.878   4.331  17.764  0.00  0.00    +0.000 S 
ATOM      5  O   UNL     1       5.021   5.437  16.707  0.00  0.00    +0.000 OA
ATOM      6  O   UNL     1       4.635   3.083  16.901  0.00  0.00    +0.000 OA
BRANCH   4   7
ATOM      7  C   UNL     1       3.559   4.678  18.925  0.00  0.00    +0.000 A 
ATOM      8  C   UNL     1       2.911   3.639  19.591  0.00  0.00    +0.000 A 
ATOM      9  C   UNL     1       1.896   3.926  20.498  0.00  0.00    +0.000 A 
ATOM     10  C   UNL     1       1.526   5.251  20.748  0.00  0.00    +0.000 A 
ATOM     11  C   UNL     1       2.167   6.328  20.087  0.00  0.00    +0.000 A 
ATOM     12  C   UNL     1       3.193   6.006  19.169  0.00  0.00    +0.000 A 
BRANCH  11  13
ATOM     13  C   UNL     1       1.781   7.770  20.348  0.00  0.00    +0.000 C 
ATOM     14  N   UNL     1       1.603   8.217  21.545  0.00  0.00    +0.000 NA
ATOM     15  N   UNL     1       1.594   8.695  19.284  0.00  0.00    +0.000 N 
ATOM     16  H   UNL     1       1.701   7.669  22.405  0.00  0.00    +0.000 HD
ATOM     17  H   UNL     1       1.705   8.457  18.292  0.00  0.00    +0.000 HD
ATOM     18  H   UNL     1       1.332   9.670  19.497  0.00  0.00    +0.000 HD
ENDBRANCH  11  13
ENDBRANCH   4   7
ENDBRANCH   2   4
ENDBRANCH   1   2
BRANCH   1  19
ATOM     19  C   UNL     1       7.762   6.227  18.649  0.00  0.00    +0.000 C 
BRANCH  19  21
ATOM     20  N   UNL     1       8.425   8.620  18.427  0.00  0.00    +0.000 N 
ATOM     21  C   UNL     1       7.842   7.518  17.873  0.00  0.00    +0.000 C 
ATOM     22  O   UNL     1       7.407   7.549  16.731  0.00  0.00    +0.000 OA
ATOM     23  H   UNL     1       8.790   8.566  19.391  0.00  0.00    +0.000 HD
BRANCH  20  24
ATOM     24  C   UNL     1       8.615   9.868  17.707  0.00  0.00    +0.000 C 
BRANCH  24  28
ATOM     25  C   UNL     1      10.115  13.014  20.298  0.00  0.00    +0.000 A 
ATOM     26  C   UNL     1       9.996  11.684  20.764  0.00  0.00    +0.000 A 
ATOM     27  C   UNL     1       9.520  10.668  19.929  0.00  0.00    +0.000 A 
ATOM     28  C   UNL     1       9.158  10.951  18.608  0.00  0.00    +0.000 A 
ATOM     29  C   UNL     1       9.277  12.264  18.135  0.00  0.00    +0.000 A 
ATOM     30  C   UNL     1       9.742  13.301  18.954  0.00  0.00    +0.000 A 
BRANCH  25  32
ATOM     31  C   UNL     1       9.838  14.675  22.069  0.00  0.00    +0.000 C 
ATOM     32  O   UNL     1      10.573  14.006  21.107  0.00  0.00    +0.000 OA
ENDBRANCH  25  32
BRANCH  30  33
ATOM     33  O   UNL     1       9.791  14.535  18.382  0.00  0.00    +0.000 OA
ATOM     34  C   UNL     1      10.712  15.038  17.491  0.00  0.00    +0.000 C 
ENDBRANCH  30  33
ENDBRANCH  24  28
ENDBRANCH  20  24
ENDBRANCH  19  21
ENDBRANCH   1  19
TORSDOF 10
ENDMDL
MODEL 4
REMARK VINA RESULT:      -7.8      0.897      1.703
REMARK  Name = 
REMARK  12 active torsions:
REMARK  status: ('A' for Active; 'I' for Inactive)
REMARK    1  A    between atoms: C_1  and  O_2
REMARK    2  A    between atoms: O_2  and  C_3
REMARK    3  A    between atoms: C_6  and  C_7
REMARK    4  A    between atoms: C_7  and  N_8
REMARK    5  A    between atoms: C_9  and  C_11
REMARK    6  A    between atoms: C_11  and  C_12
REMARK    7  A    between atoms: C_12  and  N_13
REMARK    8  A    between atoms: N_13  and  S_14
REMARK    9  A    between atoms: S_14  and  C_17
REMARK   10  A    between atoms: C_21  and  C_22
REMARK   11  A    between atoms: C_27  and  O_28
REMARK   12  A    between atoms: O_28  and  C_29
REMARK                            x       y       z     vdW  Elec       q    Type
REMARK                         _______ _______ _______ _____ _____    ______ ____
ROOT
ATOM      1  C   UNL     1       7.375   5.020  18.197  0.00  0.00    +0.000 C 
ENDROOT
BRANCH   1   2
ATOM      2  N   UNL     1       7.598   5.042  16.750  0.00  0.00    +0.000 NA
ATOM      3  H   UNL     1       8.231   4.252  16.488  0.00  0.00    +0.000 HD
BRANCH   2   4
ATOM      4  S   UNL     1       6.060   4.797  15.905  0.00  0.00    +0.000 S 
ATOM      5  O   UNL     1       6.107   5.767  14.715  0.00  0.00    +0.000 OA
ATOM      6  O   UNL     1       6.180   3.427  15.217  0.00  0.00    +0.000 OA
BRANCH   4   7
ATOM      7  C   UNL     1       4.567   4.994  16.874  0.00  0.00    +0.000 A 
ATOM      8  C   UNL     1       4.107   6.265  17.215  0.00  0.00    +0.000 A 
ATOM      9  C   UNL     1       2.939   6.402  17.958  0.00  0.00    +0.000 A 
ATOM     10  C   UNL     1       2.222   5.271  18.361  0.00  0.00    +0.000 A 
ATOM     11  C   UNL     1       2.664   3.966  18.029  0.00  0.00    +0.000 A 
ATOM     12  C   UNL     1       3.856   3.858  17.275  0.00  0.00    +0.000 A 
BRANCH  11  13
ATOM     13  C   UNL     1       1.898   2.731  18.455  0.00  0.00    +0.000 C 
ATOM     14  N   UNL     1       2.218   1.555  18.030  0.00  0.00    +0.000 NA
ATOM     15  N   UNL     1       0.788   2.811  19.340  0.00  0.00    +0.000 N 
ATOM     16  H   UNL     1       2.990   1.345  17.391  0.00  0.00    +0.000 HD
ATOM     17  H   UNL     1       0.439   3.688  19.743  0.00  0.00    +0.000 HD
ATOM     18  H   UNL     1       0.289   1.950  19.611  0.00  0.00    +0.000 HD
ENDBRANCH  11  13
ENDBRANCH   4   7
ENDBRANCH   2   4
ENDBRANCH   1   2
BRANCH   1  19
ATOM     19  C   UNL     1       8.144   6.169  18.855  0.00  0.00    +0.000 C 
BRANCH  19  21
ATOM     20  N   UNL     1       8.633   8.584  18.475  0.00  0.00    +0.000 N 
ATOM     21  C   UNL     1       7.861   7.495  18.194  0.00  0.00    +0.000 C 
ATOM     22  O   UNL     1       6.950   7.568  17.381  0.00  0.00    +0.000 OA
ATOM     23  H   UNL     1       9.399   8.494  19.161  0.00  0.00    +0.000 HD
BRANCH  20  24
ATOM     24  C   UNL     1       8.474   9.868  17.812  0.00  0.00    +0.000 C 
BRANCH  24  28
ATOM     25  C   UNL     1      11.232  12.791  19.454  0.00  0.00    +0.000 A 
ATOM     26  C   UNL     1      11.286  12.429  18.088  0.00  0.00    +0.000 A 
ATOM     27  C   UNL     1      10.394  11.493  17.555  0.00  0.00    +0.000 A 
ATOM     28  C   UNL     1       9.422  10.901  18.369  0.00  0.00    +0.000 A 
ATOM     29  C   UNL     1       9.357  11.257  19.723  0.00  0.00    +0.000 A 
ATOM     30  C   UNL     1      10.245  12.184  20.282  0.00  0.00    +0.000 A 
BRANCH  25  32
ATOM     31  C   UNL     1      11.914  15.068  20.023  0.00  0.00    +0.000 C 
ATOM     32  O   UNL     1      12.100  13.699  19.978  0.00  0.00    +0.000 OA
ENDBRANCH  25  32
BRANCH  30  33
ATOM     33  O   UNL     1      10.092  12.428  21.612  0.00  0.00    +0.000 OA
ATOM     34  C   UNL     1       9.022  12.995  22.269  0.00  0.00    +0.000 C 
ENDBRANCH  30  33
ENDBRANCH  24  28
ENDBRANCH  20  24
ENDBRANCH  19  21
ENDBRANCH   1  19
TORSDOF 10
ENDMDL
MODEL 5
REMARK VINA RESULT:      -7.8      2.330      2.882
REMARK  Name = 
REMARK  12 active torsions:
REMARK  status: ('A' for Active; 'I' for Inactive)
REMARK    1  A    between atoms: C_1  and  O_2
REMARK    2  A    between atoms: O_2  and  C_3
REMARK    3  A    between atoms: C_6  and  C_7
REMARK    4  A    between atoms: C_7  and  N_8
REMARK    5  A    between atoms: C_9  and  C_11
REMARK    6  A    between atoms: C_11  and  C_12
REMARK    7  A    between atoms: C_12  and  N_13
REMARK    8  A    between atoms: N_13  and  S_14
REMARK    9  A    between atoms: S_14  and  C_17
REMARK   10  A    between atoms: C_21  and  C_22
REMARK   11  A    between atoms: C_27  and  O_28
REMARK   12  A    between atoms: O_28  and  C_29
REMARK                            x       y       z     vdW  Elec       q    Type
REMARK                         _______ _______ _______ _____ _____    ______ ____
ROOT
ATOM      1  C   UNL     1       8.145   7.803  18.177  0.00  0.00    +0.000 C 
ENDROOT
BRANCH   1   2
ATOM      2  N   UNL     1       7.618   7.009  17.066  0.00  0.00    +0.000 NA
ATOM      3  H   UNL     1       8.373   6.867  16.356  0.00  0.00    +0.000 HD
BRANCH   2   4
ATOM      4  S   UNL     1       7.130   5.411  17.654  0.00  0.00    +0.000 S 
ATOM      5  O   UNL     1       7.830   4.416  16.715  0.00  0.00    +0.000 OA
ATOM      6  O   UNL     1       7.891   5.205  18.974  0.00  0.00    +0.000 OA
BRANCH   4   7
ATOM      7  C   UNL     1       5.371   5.097  17.774  0.00  0.00    +0.000 A 
ATOM      8  C   UNL     1       4.461   6.154  17.763  0.00  0.00    +0.000 A 
ATOM      9  C   UNL     1       3.098   5.893  17.845  0.00  0.00    +0.000 A 
ATOM     10  C   UNL     1       2.635   4.577  17.935  0.00  0.00    +0.000 A 
ATOM     11  C   UNL     1       3.535   3.482  17.947  0.00  0.00    +0.000 A 
ATOM     12  C   UNL     1       4.915   3.778  17.865  0.00  0.00    +0.000 A 
BRANCH  11  13
ATOM     13  C   UNL     1       3.050   2.050  18.040  0.00  0.00    +0.000 C 
ATOM     14  N   UNL     1       1.806   1.745  17.890  0.00  0.00    +0.000 NA
ATOM     15  N   UNL     1       3.946   0.976  18.302  0.00  0.00    +0.000 N 
ATOM     16  H   UNL     1       1.050   2.409  17.699  0.00  0.00    +0.000 HD
ATOM     17  H   UNL     1       4.956   1.094  18.441  0.00  0.00    +0.000 HD
ATOM     18  H   UNL     1       3.583   0.013  18.358  0.00  0.00    +0.000 HD
ENDBRANCH  11  13
ENDBRANCH   4   7
ENDBRANCH   2   4
ENDBRANCH   1   2
BRANCH   1  19
ATOM     19  C   UNL     1       8.089   9.291  17.819  0.00  0.00    +0.000 C 
BRANCH  19  21
ATOM     20  N   UNL     1       9.891  11.012  17.927  0.00  0.00    +0.000 N 
ATOM     21  C   UNL     1       9.113  10.098  18.577  0.00  0.00    +0.000 C 
ATOM     22  O   UNL     1       9.210   9.944  19.786  0.00  0.00    +0.000 OA
ATOM     23  H   UNL     1       9.785  11.127  16.907  0.00  0.00    +0.000 HD
BRANCH  20  24
ATOM     24  C   UNL     1      10.834  11.884  18.606  0.00  0.00    +0.000 C 
BRANCH  24  28
ATOM     25  C   UNL     1       9.007  15.710  19.541  0.00  0.00    +0.000 A 
ATOM     26  C   UNL     1      10.128  15.243  20.267  0.00  0.00    +0.000 A 
ATOM     27  C   UNL     1      10.723  14.015  19.963  0.00  0.00    +0.000 A 
ATOM     28  C   UNL     1      10.219  13.225  18.923  0.00  0.00    +0.000 A 
ATOM     29  C   UNL     1       9.113  13.681  18.195  0.00  0.00    +0.000 A 
ATOM     30  C   UNL     1       8.494  14.903  18.487  0.00  0.00    +0.000 A 
BRANCH  25  32
ATOM     31  C   UNL     1       7.581  17.153  20.903  0.00  0.00    +0.000 C 
ATOM     32  O   UNL     1       8.423  16.903  19.835  0.00  0.00    +0.000 OA
ENDBRANCH  25  32
BRANCH  30  33
ATOM     33  O   UNL     1       7.415  15.222  17.720  0.00  0.00    +0.000 OA
ATOM     34  C   UNL     1       6.134  14.720  17.780  0.00  0.00    +0.000 C 
ENDBRANCH  30  33
ENDBRANCH  24  28
ENDBRANCH  20  24
ENDBRANCH  19  21
ENDBRANCH   1  19
TORSDOF 10
ENDMDL
MODEL 6
REMARK VINA RESULT:      -7.8      4.661      7.721
REMARK  Name = 
REMARK  12 active torsions:
REMARK  status: ('A' for Active; 'I' for Inactive)
REMARK    1  A    between atoms: C_1  and  O_2
REMARK    2  A    between atoms: O_2  and  C_3
REMARK    3  A    between atoms: C_6  and  C_7
REMARK    4  A    between atoms: C_7  and  N_8
REMARK    5  A    between atoms: C_9  and  C_11
REMARK    6  A    between atoms: C_11  and  C_12
REMARK    7  A    between atoms: C_12  and  N_13
REMARK    8  A    between atoms: N_13  and  S_14
REMARK    9  A    between atoms: S_14  and  C_17
REMARK   10  A    between atoms: C_21  and  C_22
REMARK   11  A    between atoms: C_27  and  O_28
REMARK   12  A    between atoms: O_28  and  C_29
REMARK                            x       y       z     vdW  Elec       q    Type
REMARK                         _______ _______ _______ _____ _____    ______ ____
ROOT
ATOM      1  C   UNL     1       1.595   5.541  20.836  0.00  0.00    +0.000 C 
ENDROOT
BRANCH   1   2
ATOM      2  N   UNL     1       2.859   5.903  20.194  0.00  0.00    +0.000 NA
ATOM      3  H   UNL     1       3.291   5.046  19.777  0.00  0.00    +0.000 HD
BRANCH   2   4
ATOM      4  S   UNL     1       2.553   7.043  18.873  0.00  0.00    +0.000 S 
ATOM      5  O   UNL     1       3.936   7.321  18.265  0.00  0.00    +0.000 OA
ATOM      6  O   UNL     1       1.869   6.222  17.767  0.00  0.00    +0.000 OA
BRANCH   4   7
ATOM      7  C   UNL     1       1.688   8.554  19.294  0.00  0.00    +0.000 A 
ATOM      8  C   UNL     1       1.553   9.577  18.357  0.00  0.00    +0.000 A 
ATOM      9  C   UNL     1       0.868  10.739  18.697  0.00  0.00    +0.000 A 
ATOM     10  C   UNL     1       0.313  10.885  19.971  0.00  0.00    +0.000 A 
ATOM     11  C   UNL     1       0.434   9.862  20.945  0.00  0.00    +0.000 A 
ATOM     12  C   UNL     1       1.137   8.693  20.572  0.00  0.00    +0.000 A 
BRANCH  11  13
ATOM     13  C   UNL     1      -0.164  10.002  22.329  0.00  0.00    +0.000 C 
ATOM     14  N   UNL     1      -0.288  11.152  22.901  0.00  0.00    +0.000 NA
ATOM     15  N   UNL     1      -0.614   8.870  23.065  0.00  0.00    +0.000 N 
ATOM     16  H   UNL     1      -0.008  12.050  22.496  0.00  0.00    +0.000 HD
ATOM     17  H   UNL     1      -0.567   7.906  22.716  0.00  0.00    +0.000 HD
ATOM     18  H   UNL     1      -1.018   9.001  24.004  0.00  0.00    +0.000 HD
ENDBRANCH  11  13
ENDBRANCH   4   7
ENDBRANCH   2   4
ENDBRANCH   1   2
BRANCH   1  19
ATOM     19  C   UNL     1       1.305   4.056  20.603  0.00  0.00    +0.000 C 
BRANCH  19  21
ATOM     20  N   UNL     1       2.420   3.367  18.482  0.00  0.00    +0.000 N 
ATOM     21  C   UNL     1       2.416   3.371  19.847  0.00  0.00    +0.000 C 
ATOM     22  O   UNL     1       3.326   2.850  20.475  0.00  0.00    +0.000 OA
ATOM     23  H   UNL     1       1.643   3.818  17.975  0.00  0.00    +0.000 HD
BRANCH  20  24
ATOM     24  C   UNL     1       3.500   2.804  17.689  0.00  0.00    +0.000 C 
BRANCH  24  28
ATOM     25  C   UNL     1       6.599   5.714  16.806  0.00  0.00    +0.000 A 
ATOM     26  C   UNL     1       5.461   5.591  15.977  0.00  0.00    +0.000 A 
ATOM     27  C   UNL     1       4.458   4.660  16.263  0.00  0.00    +0.000 A 
ATOM     28  C   UNL     1       4.562   3.833  17.387  0.00  0.00    +0.000 A 
ATOM     29  C   UNL     1       5.683   3.951  18.218  0.00  0.00    +0.000 A 
ATOM     30  C   UNL     1       6.706   4.869  17.947  0.00  0.00    +0.000 A 
BRANCH  25  32
ATOM     31  C   UNL     1       7.736   7.853  17.127  0.00  0.00    +0.000 C 
ATOM     32  O   UNL     1       7.580   6.615  16.530  0.00  0.00    +0.000 OA
ENDBRANCH  25  32
BRANCH  30  33
ATOM     33  O   UNL     1       7.751   4.870  18.819  0.00  0.00    +0.000 OA
ATOM     34  C   UNL     1       7.954   5.667  19.923  0.00  0.00    +0.000 C 
ENDBRANCH  30  33
ENDBRANCH  24  28
ENDBRANCH  20  24
ENDBRANCH  19  21
ENDBRANCH   1  19
TORSDOF 10
ENDMDL
MODEL 7
REMARK VINA RESULT:      -7.7      5.768      9.289
REMARK  Name = 
REMARK  12 active torsions:
REMARK  status: ('A' for Active; 'I' for Inactive)
REMARK    1  A    between atoms: C_1  and  O_2
REMARK    2  A    between atoms: O_2  and  C_3
REMARK    3  A    between atoms: C_6  and  C_7
REMARK    4  A    between atoms: C_7  and  N_8
REMARK    5  A    between atoms: C_9  and  C_11
REMARK    6  A    between atoms: C_11  and  C_12
REMARK    7  A    between atoms: C_12  and  N_13
REMARK    8  A    between atoms: N_13  and  S_14
REMARK    9  A    between atoms: S_14  and  C_17
REMARK   10  A    between atoms: C_21  and  C_22
REMARK   11  A    between atoms: C_27  and  O_28
REMARK   12  A    between atoms: O_28  and  C_29
REMARK                            x       y       z     vdW  Elec       q    Type
REMARK                         _______ _______ _______ _____ _____    ______ ____
ROOT
ATOM      1  C   UNL     1       2.353   5.851  18.617  0.00  0.00    +0.000 C 
ENDROOT
BRANCH   1   2
ATOM      2  N   UNL     1       2.177   4.578  19.318  0.00  0.00    +0.000 NA
ATOM      3  H   UNL     1       1.283   4.134  19.005  0.00  0.00    +0.000 HD
BRANCH   2   4
ATOM      4  S   UNL     1       3.497   3.476  18.894  0.00  0.00    +0.000 S 
ATOM      5  O   UNL     1       3.754   2.661  20.171  0.00  0.00    +0.000 OA
ATOM      6  O   UNL     1       2.877   2.428  17.956  0.00  0.00    +0.000 OA
BRANCH   4   7
ATOM      7  C   UNL     1       4.998   4.221  18.259  0.00  0.00    +0.000 A 
ATOM      8  C   UNL     1       5.866   4.900  19.112  0.00  0.00    +0.000 A 
ATOM      9  C   UNL     1       7.033   5.463  18.605  0.00  0.00    +0.000 A 
ATOM     10  C   UNL     1       7.341   5.347  17.246  0.00  0.00    +0.000 A 
ATOM     11  C   UNL     1       6.477   4.661  16.355  0.00  0.00    +0.000 A 
ATOM     12  C   UNL     1       5.298   4.102  16.898  0.00  0.00    +0.000 A 
BRANCH  11  13
ATOM     13  C   UNL     1       6.797   4.523  14.881  0.00  0.00    +0.000 C 
ATOM     14  N   UNL     1       6.298   3.572  14.165  0.00  0.00    +0.000 NA
ATOM     15  N   UNL     1       7.665   5.435  14.218  0.00  0.00    +0.000 N 
ATOM     16  H   UNL     1       5.662   2.845  14.505  0.00  0.00    +0.000 HD
ATOM     17  H   UNL     1       8.122   6.229  14.680  0.00  0.00    +0.000 HD
ATOM     18  H   UNL     1       7.860   5.313  13.213  0.00  0.00    +0.000 HD
ENDBRANCH  11  13
ENDBRANCH   4   7
ENDBRANCH   2   4
ENDBRANCH   1   2
BRANCH   1  19
ATOM     19  C   UNL     1       2.229   7.009  19.612  0.00  0.00    +0.000 C 
BRANCH  19  21
ATOM     20  N   UNL     1       1.180   9.267  19.475  0.00  0.00    +0.000 N 
ATOM     21  C   UNL     1       2.005   8.331  18.922  0.00  0.00    +0.000 C 
ATOM     22  O   UNL     1       2.600   8.561  17.878  0.00  0.00    +0.000 OA
ATOM     23  H   UNL     1       0.695   9.049  20.360  0.00  0.00    +0.000 HD
BRANCH  20  24
ATOM     24  C   UNL     1       0.987  10.592  18.912  0.00  0.00    +0.000 C 
BRANCH  24  28
ATOM     25  C   UNL     1      -3.218  11.308  18.095  0.00  0.00    +0.000 A 
ATOM     26  C   UNL     1      -2.561  11.970  19.158  0.00  0.00    +0.000 A 
ATOM     27  C   UNL     1      -1.206  11.747  19.419  0.00  0.00    +0.000 A 
ATOM     28  C   UNL     1      -0.469  10.864  18.622  0.00  0.00    +0.000 A 
ATOM     29  C   UNL     1      -1.109  10.206  17.563  0.00  0.00    +0.000 A 
ATOM     30  C   UNL     1      -2.468  10.406  17.288  0.00  0.00    +0.000 A 
BRANCH  25  32
ATOM     31  C   UNL     1      -5.595  10.856  18.434  0.00  0.00    +0.000 C 
ATOM     32  O   UNL     1      -4.537  11.519  17.840  0.00  0.00    +0.000 OA
ENDBRANCH  25  32
BRANCH  30  33
ATOM     33  O   UNL     1      -2.975   9.692  16.245  0.00  0.00    +0.000 OA
ATOM     34  C   UNL     1      -2.986  10.009  14.906  0.00  0.00    +0.000 C 
ENDBRANCH  30  33
ENDBRANCH  24  28
ENDBRANCH  20  24
ENDBRANCH  19  21
ENDBRANCH   1  19
TORSDOF 10
ENDMDL
MODEL 8
REMARK VINA RESULT:      -7.7      5.679      9.460
REMARK  Name = 
REMARK  12 active torsions:
REMARK  status: ('A' for Active; 'I' for Inactive)
REMARK    1  A    between atoms: C_1  and  O_2
REMARK    2  A    between atoms: O_2  and  C_3
REMARK    3  A    between atoms: C_6  and  C_7
REMARK    4  A    between atoms: C_7  and  N_8
REMARK    5  A    between atoms: C_9  and  C_11
REMARK    6  A    between atoms: C_11  and  C_12
REMARK    7  A    between atoms: C_12  and  N_13
REMARK    8  A    between atoms: N_13  and  S_14
REMARK    9  A    between atoms: S_14  and  C_17
REMARK   10  A    between atoms: C_21  and  C_22
REMARK   11  A    between atoms: C_27  and  O_28
REMARK   12  A    between atoms: O_28  and  C_29
REMARK                            x       y       z     vdW  Elec       q    Type
REMARK                         _______ _______ _______ _____ _____    ______ ____
ROOT
ATOM      1  C   UNL     1       1.607   6.763  20.065  0.00  0.00    +0.000 C 
ENDROOT
BRANCH   1   2
ATOM      2  N   UNL     1       2.423   5.771  20.768  0.00  0.00    +0.000 NA
ATOM      3  H   UNL     1       1.881   5.392  21.579  0.00  0.00    +0.000 HD
BRANCH   2   4
ATOM      4  S   UNL     1       2.780   4.416  19.685  0.00  0.00    +0.000 S 
ATOM      5  O   UNL     1       2.753   3.173  20.588  0.00  0.00    +0.000 OA
ATOM      6  O   UNL     1       1.517   4.226  18.829  0.00  0.00    +0.000 OA
BRANCH   4   7
ATOM      7  C   UNL     1       4.293   4.521  18.732  0.00  0.00    +0.000 A 
ATOM      8  C   UNL     1       4.341   4.039  17.425  0.00  0.00    +0.000 A 
ATOM      9  C   UNL     1       5.521   4.138  16.695  0.00  0.00    +0.000 A 
ATOM     10  C   UNL     1       6.657   4.722  17.264  0.00  0.00    +0.000 A 
ATOM     11  C   UNL     1       6.638   5.221  18.590  0.00  0.00    +0.000 A 
ATOM     12  C   UNL     1       5.426   5.105  19.309  0.00  0.00    +0.000 A 
BRANCH  11  13
ATOM     13  C   UNL     1       7.858   5.860  19.220  0.00  0.00    +0.000 C 
ATOM     14  N   UNL     1       8.354   6.964  18.772  0.00  0.00    +0.000 NA
ATOM     15  N   UNL     1       8.516   5.269  20.335  0.00  0.00    +0.000 N 
ATOM     16  H   UNL     1       7.988   7.500  17.979  0.00  0.00    +0.000 HD
ATOM     17  H   UNL     1       8.217   4.393  20.778  0.00  0.00    +0.000 HD
ATOM     18  H   UNL     1       9.344   5.731  20.740  0.00  0.00    +0.000 HD
ENDBRANCH  11  13
ENDBRANCH   4   7
ENDBRANCH   2   4
ENDBRANCH   1   2
BRANCH   1  19
ATOM     19  C   UNL     1       2.389   7.322  18.874  0.00  0.00    +0.000 C 
BRANCH  19  21
ATOM     20  N   UNL     1       1.122   9.421  19.331  0.00  0.00    +0.000 N 
ATOM     21  C   UNL     1       1.935   8.710  18.497  0.00  0.00    +0.000 C 
ATOM     22  O   UNL     1       2.334   9.198  17.449  0.00  0.00    +0.000 OA
ATOM     23  H   UNL     1       0.804   8.988  20.212  0.00  0.00    +0.000 HD
BRANCH  20  24
ATOM     24  C   UNL     1       0.717  10.792  19.073  0.00  0.00    +0.000 C 
BRANCH  24  28
ATOM     25  C   UNL     1      -3.448  10.954  17.853  0.00  0.00    +0.000 A 
ATOM     26  C   UNL     1      -3.009  11.608  19.027  0.00  0.00    +0.000 A 
ATOM     27  C   UNL     1      -1.667  11.564  19.419  0.00  0.00    +0.000 A 
ATOM     28  C   UNL     1      -0.729  10.872  18.645  0.00  0.00    +0.000 A 
ATOM     29  C   UNL     1      -1.152  10.225  17.477  0.00  0.00    +0.000 A 
ATOM     30  C   UNL     1      -2.492  10.247  17.069  0.00  0.00    +0.000 A 
BRANCH  25  32
ATOM     31  C   UNL     1      -5.525  12.130  17.331  0.00  0.00    +0.000 C 
ATOM     32  O   UNL     1      -4.752  10.992  17.470  0.00  0.00    +0.000 OA
ENDBRANCH  25  32
BRANCH  30  33
ATOM     33  O   UNL     1      -2.778   9.562  15.928  0.00  0.00    +0.000 OA
ATOM     34  C   UNL     1      -3.099  10.055  14.683  0.00  0.00    +0.000 C 
ENDBRANCH  30  33
ENDBRANCH  24  28
ENDBRANCH  20  24
ENDBRANCH  19  21
ENDBRANCH   1  19
TORSDOF 10
ENDMDL
MODEL 9
REMARK VINA RESULT:      -7.6      6.298      8.110
REMARK  Name = 
REMARK  12 active torsions:
REMARK  status: ('A' for Active; 'I' for Inactive)
REMARK    1  A    between atoms: C_1  and  O_2
REMARK    2  A    between atoms: O_2  and  C_3
REMARK    3  A    between atoms: C_6  and  C_7
REMARK    4  A    between atoms: C_7  and  N_8
REMARK    5  A    between atoms: C_9  and  C_11
REMARK    6  A    between atoms: C_11  and  C_12
REMARK    7  A    between atoms: C_12  and  N_13
REMARK    8  A    between atoms: N_13  and  S_14
REMARK    9  A    between atoms: S_14  and  C_17
REMARK   10  A    between atoms: C_21  and  C_22
REMARK   11  A    between atoms: C_27  and  O_28
REMARK   12  A    between atoms: O_28  and  C_29
REMARK                            x       y       z     vdW  Elec       q    Type
REMARK                         _______ _______ _______ _____ _____    ______ ____
ROOT
ATOM      1  C   UNL     1       1.566   2.953  20.318  0.00  0.00    +0.000 C 
ENDROOT
BRANCH   1   2
ATOM      2  N   UNL     1       1.497   3.607  19.011  0.00  0.00    +0.000 NA
ATOM      3  H   UNL     1       1.585   4.642  19.139  0.00  0.00    +0.000 HD
BRANCH   2   4
ATOM      4  S   UNL     1       2.855   3.076  18.005  0.00  0.00    +0.000 S 
ATOM      5  O   UNL     1       3.734   2.235  18.944  0.00  0.00    +0.000 OA
ATOM      6  O   UNL     1       2.278   2.014  17.057  0.00  0.00    +0.000 OA
BRANCH   4   7
ATOM      7  C   UNL     1       3.794   4.357  17.175  0.00  0.00    +0.000 A 
ATOM      8  C   UNL     1       3.600   5.699  17.499  0.00  0.00    +0.000 A 
ATOM      9  C   UNL     1       4.345   6.680  16.854  0.00  0.00    +0.000 A 
ATOM     10  C   UNL     1       5.289   6.327  15.885  0.00  0.00    +0.000 A 
ATOM     11  C   UNL     1       5.509   4.972  15.535  0.00  0.00    +0.000 A 
ATOM     12  C   UNL     1       4.735   3.996  16.206  0.00  0.00    +0.000 A 
BRANCH  11  13
ATOM     13  C   UNL     1       6.530   4.571  14.490  0.00  0.00    +0.000 C 
ATOM     14  N   UNL     1       6.391   3.501  13.782  0.00  0.00    +0.000 NA
ATOM     15  N   UNL     1       7.692   5.355  14.245  0.00  0.00    +0.000 N 
ATOM     16  H   UNL     1       5.610   2.843  13.848  0.00  0.00    +0.000 HD
ATOM     17  H   UNL     1       7.912   6.224  14.745  0.00  0.00    +0.000 HD
ATOM     18  H   UNL     1       8.366   5.054  13.526  0.00  0.00    +0.000 HD
ENDBRANCH  11  13
ENDBRANCH   4   7
ENDBRANCH   2   4
ENDBRANCH   1   2
BRANCH   1  19
ATOM     19  C   UNL     1       1.848   3.997  21.403  0.00  0.00    +0.000 C 
BRANCH  19  21
ATOM     20  N   UNL     1       1.520   6.382  20.752  0.00  0.00    +0.000 N 
ATOM     21  C   UNL     1       2.346   5.298  20.825  0.00  0.00    +0.000 C 
ATOM     22  O   UNL     1       3.509   5.373  20.453  0.00  0.00    +0.000 OA
ATOM     23  H   UNL     1       0.545   6.293  21.077  0.00  0.00    +0.000 HD
BRANCH  20  24
ATOM     24  C   UNL     1       1.957   7.688  20.289  0.00  0.00    +0.000 C 
BRANCH  24  28
ATOM     25  C   UNL     1      -0.525  10.859  21.913  0.00  0.00    +0.000 A 
ATOM     26  C   UNL     1      -0.295   9.671  22.643  0.00  0.00    +0.000 A 
ATOM     27  C   UNL     1       0.510   8.651  22.126  0.00  0.00    +0.000 A 
ATOM     28  C   UNL     1       1.111   8.794  20.871  0.00  0.00    +0.000 A 
ATOM     29  C   UNL     1       0.894   9.970  20.141  0.00  0.00    +0.000 A 
ATOM     30  C   UNL     1       0.085  11.002  20.633  0.00  0.00    +0.000 A 
BRANCH  25  32
ATOM     31  C   UNL     1      -2.356  11.692  23.300  0.00  0.00    +0.000 C 
ATOM     32  O   UNL     1      -1.310  11.853  22.410  0.00  0.00    +0.000 OA
ENDBRANCH  25  32
BRANCH  30  33
ATOM     33  O   UNL     1      -0.064  12.082  19.819  0.00  0.00    +0.000 OA
ATOM     34  C   UNL     1      -1.040  12.328  18.880  0.00  0.00    +0.000 C 
ENDBRANCH  30  33
ENDBRANCH  24  28
ENDBRANCH  20  24
ENDBRANCH  19  21
ENDBRANCH   1  19
TORSDOF 10
ENDMDL
