MODEL 1
REMARK VINA RESULT:      -8.7      0.000      0.000
REMARK  Name = 
REMARK  5 active torsions:
REMARK  status: ('A' for Active; 'I' for Inactive)
REMARK    1  A    between atoms: O_1  and  C_2
REMARK    2  A    between atoms: C_9  and  N_10
REMARK    3  A    between atoms: N_10  and  C_11
REMARK    4  A    between atoms: C_11  and  C_12
REMARK    5  A    between atoms: C_14  and  C_15
REMARK                            x       y       z     vdW  Elec       q    Type
REMARK                         _______ _______ _______ _____ _____    ______ ____
ROOT
ATOM      1  N   UNL     1       5.517   3.660  19.268  0.00  0.00    +0.000 NA
ATOM      2  H   UNL     1       5.856   3.083  18.501  0.00  0.00    +0.000 HD
ENDROOT
BRANCH   1  10
ATOM      3  C   UNL     1       2.001   2.901  20.626  0.00  0.00    +0.000 C 
ATOM      4  C   UNL     1       1.420   4.315  20.458  0.00  0.00    +0.000 C 
ATOM      5  C   UNL     1       1.877   4.916  19.119  0.00  0.00    +0.000 C 
ATOM      6  C   UNL     1       1.422   4.011  17.966  0.00  0.00    +0.000 C 
ATOM      7  C   UNL     1       2.023   2.606  18.131  0.00  0.00    +0.000 C 
ATOM      8  C   UNL     1       1.542   2.010  19.462  0.00  0.00    +0.000 C 
ATOM      9  C   UNL     1       3.563   2.705  18.143  0.00  0.00    +0.000 C 
ATOM     10  C   UNL     1       4.047   3.609  19.313  0.00  0.00    +0.000 C 
ATOM     11  C   UNL     1       3.411   5.011  19.115  0.00  0.00    +0.000 C 
ATOM     12  C   UNL     1       3.533   2.984  20.631  0.00  0.00    +0.000 C 
BRANCH   3  13
ATOM     13  O   UNL     1       1.571   2.348  21.862  0.00  0.00    +0.000 OA
ATOM     14  H   UNL     1       2.353   2.038  22.344  0.00  0.00    +0.000 HD
ENDBRANCH   3  13
ENDBRANCH   1  10
BRANCH   1  15
ATOM     15  C   UNL     1       6.076   5.016  19.143  0.00  0.00    +0.000 C 
BRANCH  15  16
ATOM     16  C   UNL     1       6.571   5.244  17.756  0.00  0.00    +0.000 A 
ATOM     17  C   UNL     1       6.366   4.426  16.629  0.00  0.00    +0.000 A 
ATOM     18  C   UNL     1       6.933   5.104  15.573  0.00  0.00    +0.000 A 
ATOM     19  O   UNL     1       7.464   6.268  16.065  0.00  0.00    +0.000 OA
ATOM     20  N   UNL     1       7.228   6.362  17.425  0.00  0.00    +0.000 NA
BRANCH  18  21
ATOM     21  C   UNL     1       6.978   4.745  14.185  0.00  0.00    +0.000 A 
ATOM     22  C   UNL     1       7.836   5.242  13.224  0.00  0.00    +0.000 A 
ATOM     23  C   UNL     1       7.577   4.699  11.933  0.00  0.00    +0.000 A 
ATOM     24  C   UNL     1       6.533   3.803  11.949  0.00  0.00    +0.000 A 
ATOM     25  S   UNL     1       5.885   3.606  13.514  0.00  0.00    +0.000 S 
ENDBRANCH  18  21
ENDBRANCH  15  16
ENDBRANCH   1  15
TORSDOF 5
ENDMDL
MODEL 2
REMARK VINA RESULT:      -8.5      1.396      2.048
REMARK  Name = 
REMARK  5 active torsions:
REMARK  status: ('A' for Active; 'I' for Inactive)
REMARK    1  A    between atoms: O_1  and  C_2
REMARK    2  A    between atoms: C_9  and  N_10
REMARK    3  A    between atoms: N_10  and  C_11
REMARK    4  A    between atoms: C_11  and  C_12
REMARK    5  A    between atoms: C_14  and  C_15
REMARK                            x       y       z     vdW  Elec       q    Type
REMARK                         _______ _______ _______ _____ _____    ______ ____
ROOT
ATOM      1  N   UNL     1       5.568   3.725  19.223  0.00  0.00    +0.000 NA
ATOM      2  H   UNL     1       5.784   3.058  18.485  0.00  0.00    +0.000 HD
ENDROOT
BRANCH   1  10
ATOM      3  C   UNL     1       2.333   5.769  19.596  0.00  0.00    +0.000 C 
ATOM      4  C   UNL     1       1.736   5.439  18.218  0.00  0.00    +0.000 C 
ATOM      5  C   UNL     1       1.960   3.954  17.890  0.00  0.00    +0.000 C 
ATOM      6  C   UNL     1       1.312   3.084  18.976  0.00  0.00    +0.000 C 
ATOM      7  C   UNL     1       1.928   3.406  20.347  0.00  0.00    +0.000 C 
ATOM      8  C   UNL     1       1.680   4.886  20.670  0.00  0.00    +0.000 C 
ATOM      9  C   UNL     1       3.448   3.141  20.300  0.00  0.00    +0.000 C 
ATOM     10  C   UNL     1       4.127   4.024  19.214  0.00  0.00    +0.000 C 
ATOM     11  C   UNL     1       3.470   3.675  17.851  0.00  0.00    +0.000 C 
ATOM     12  C   UNL     1       3.844   5.503  19.567  0.00  0.00    +0.000 C 
BRANCH   3  13
ATOM     13  O   UNL     1       2.119   7.141  19.897  0.00  0.00    +0.000 OA
ATOM     14  H   UNL     1       1.576   7.525  19.193  0.00  0.00    +0.000 HD
ENDBRANCH   3  13
ENDBRANCH   1  10
BRANCH   1  15
ATOM     15  C   UNL     1       6.437   4.905  19.085  0.00  0.00    +0.000 C 
BRANCH  15  16
ATOM     16  C   UNL     1       6.804   5.110  17.655  0.00  0.00    +0.000 A 
ATOM     17  C   UNL     1       6.486   4.282  16.562  0.00  0.00    +0.000 A 
ATOM     18  C   UNL     1       6.960   4.940  15.450  0.00  0.00    +0.000 A 
ATOM     19  O   UNL     1       7.547   6.103  15.876  0.00  0.00    +0.000 OA
ATOM     20  N   UNL     1       7.439   6.216  17.250  0.00  0.00    +0.000 NA
BRANCH  18  21
ATOM     21  C   UNL     1       6.872   4.564  14.068  0.00  0.00    +0.000 A 
ATOM     22  C   UNL     1       5.981   3.673  13.503  0.00  0.00    +0.000 A 
ATOM     23  C   UNL     1       6.201   3.500  12.106  0.00  0.00    +0.000 A 
ATOM     24  C   UNL     1       7.249   4.265  11.649  0.00  0.00    +0.000 A 
ATOM     25  S   UNL     1       7.948   5.199  12.893  0.00  0.00    +0.000 S 
ENDBRANCH  18  21
ENDBRANCH  15  16
ENDBRANCH   1  15
TORSDOF 5
ENDMDL
MODEL 3
REMARK VINA RESULT:      -8.2      1.496      1.906
REMARK  Name = 
REMARK  5 active torsions:
REMARK  status: ('A' for Active; 'I' for Inactive)
REMARK    1  A    between atoms: O_1  and  C_2
REMARK    2  A    between atoms: C_9  and  N_10
REMARK    3  A    between atoms: N_10  and  C_11
REMARK    4  A    between atoms: C_11  and  C_12
REMARK    5  A    between atoms: C_14  and  C_15
REMARK                            x       y       z     vdW  Elec       q    Type
REMARK                         _______ _______ _______ _____ _____    ______ ____
ROOT
ATOM      1  N   UNL     1       3.416   6.016  18.191  0.00  0.00    +0.000 NA
ATOM      2  H   UNL     1       2.827   6.769  18.538  0.00  0.00    +0.000 HD
ENDROOT
BRANCH   1  10
ATOM      3  C   UNL     1       3.740   2.546  19.817  0.00  0.00    +0.000 C 
ATOM      4  C   UNL     1       2.827   2.813  21.025  0.00  0.00    +0.000 C 
ATOM      5  C   UNL     1       1.589   3.610  20.583  0.00  0.00    +0.000 C 
ATOM      6  C   UNL     1       0.831   2.825  19.504  0.00  0.00    +0.000 C 
ATOM      7  C   UNL     1       1.744   2.579  18.291  0.00  0.00    +0.000 C 
ATOM      8  C   UNL     1       2.965   1.767  18.744  0.00  0.00    +0.000 C 
ATOM      9  C   UNL     1       2.214   3.934  17.722  0.00  0.00    +0.000 C 
ATOM     10  C   UNL     1       2.997   4.742  18.797  0.00  0.00    +0.000 C 
ATOM     11  C   UNL     1       2.045   4.958  20.004  0.00  0.00    +0.000 C 
ATOM     12  C   UNL     1       4.209   3.886  19.234  0.00  0.00    +0.000 C 
BRANCH   3  13
ATOM     13  O   UNL     1       4.880   1.805  20.229  0.00  0.00    +0.000 OA
ATOM     14  H   UNL     1       5.490   1.744  19.479  0.00  0.00    +0.000 HD
ENDBRANCH   3  13
ENDBRANCH   1  10
BRANCH   1  15
ATOM     15  C   UNL     1       4.830   6.359  18.411  0.00  0.00    +0.000 C 
BRANCH  15  16
ATOM     16  C   UNL     1       5.672   5.803  17.314  0.00  0.00    +0.000 A 
ATOM     17  C   UNL     1       5.246   5.365  16.046  0.00  0.00    +0.000 A 
ATOM     18  C   UNL     1       6.394   5.032  15.365  0.00  0.00    +0.000 A 
ATOM     19  O   UNL     1       7.454   5.253  16.207  0.00  0.00    +0.000 OA
ATOM     20  N   UNL     1       7.005   5.746  17.419  0.00  0.00    +0.000 NA
BRANCH  18  21
ATOM     21  C   UNL     1       6.547   4.564  14.017  0.00  0.00    +0.000 A 
ATOM     22  C   UNL     1       5.810   3.578  13.391  0.00  0.00    +0.000 A 
ATOM     23  C   UNL     1       6.256   3.333  12.060  0.00  0.00    +0.000 A 
ATOM     24  C   UNL     1       7.314   4.139  11.712  0.00  0.00    +0.000 A 
ATOM     25  S   UNL     1       7.753   5.198  12.975  0.00  0.00    +0.000 S 
ENDBRANCH  18  21
ENDBRANCH  15  16
ENDBRANCH   1  15
TORSDOF 5
ENDMDL
MODEL 4
REMARK VINA RESULT:      -8.2      4.859      7.269
REMARK  Name = 
REMARK  5 active torsions:
REMARK  status: ('A' for Active; 'I' for Inactive)
REMARK    1  A    between atoms: O_1  and  C_2
REMARK    2  A    between atoms: C_9  and  N_10
REMARK    3  A    between atoms: N_10  and  C_11
REMARK    4  A    between atoms: C_11  and  C_12
REMARK    5  A    between atoms: C_14  and  C_15
REMARK                            x       y       z     vdW  Elec       q    Type
REMARK                         _______ _______ _______ _____ _____    ______ ____
ROOT
ATOM      1  N   UNL     1       3.564   6.431  19.100  0.00  0.00    +0.000 NA
ATOM      2  H   UNL     1       4.570   6.435  18.950  0.00  0.00    +0.000 HD
ENDROOT
BRANCH   1  10
ATOM      3  C   UNL     1       3.776   2.634  19.668  0.00  0.00    +0.000 C 
ATOM      4  C   UNL     1       2.917   2.581  20.942  0.00  0.00    +0.000 C 
ATOM      5  C   UNL     1       1.704   3.515  20.798  0.00  0.00    +0.000 C 
ATOM      6  C   UNL     1       0.875   3.095  19.576  0.00  0.00    +0.000 C 
ATOM      7  C   UNL     1       1.735   3.170  18.304  0.00  0.00    +0.000 C 
ATOM      8  C   UNL     1       2.931   2.219  18.455  0.00  0.00    +0.000 C 
ATOM      9  C   UNL     1       2.251   4.612  18.118  0.00  0.00    +0.000 C 
ATOM     10  C   UNL     1       3.105   5.054  19.342  0.00  0.00    +0.000 C 
ATOM     11  C   UNL     1       2.204   4.954  20.602  0.00  0.00    +0.000 C 
ATOM     12  C   UNL     1       4.289   4.066  19.466  0.00  0.00    +0.000 C 
BRANCH   3  13
ATOM     13  O   UNL     1       4.893   1.766  19.804  0.00  0.00    +0.000 OA
ATOM     14  H   UNL     1       4.873   1.383  20.694  0.00  0.00    +0.000 HD
ENDBRANCH   3  13
ENDBRANCH   1  10
BRANCH   1  15
ATOM     15  C   UNL     1       2.899   7.107  17.975  0.00  0.00    +0.000 C 
BRANCH  15  16
ATOM     16  C   UNL     1       2.081   8.250  18.470  0.00  0.00    +0.000 A 
ATOM     17  C   UNL     1       1.471   8.383  19.732  0.00  0.00    +0.000 A 
ATOM     18  C   UNL     1       0.916   9.642  19.743  0.00  0.00    +0.000 A 
ATOM     19  O   UNL     1       1.177  10.221  18.527  0.00  0.00    +0.000 OA
ATOM     20  N   UNL     1       1.914   9.357  17.737  0.00  0.00    +0.000 NA
BRANCH  18  21
ATOM     21  C   UNL     1       0.207  10.311  20.795  0.00  0.00    +0.000 A 
ATOM     22  C   UNL     1      -0.204  11.630  20.814  0.00  0.00    +0.000 A 
ATOM     23  C   UNL     1      -0.846  11.979  22.037  0.00  0.00    +0.000 A 
ATOM     24  C   UNL     1      -0.907  10.918  22.911  0.00  0.00    +0.000 A 
ATOM     25  S   UNL     1      -0.214   9.507  22.250  0.00  0.00    +0.000 S 
ENDBRANCH  18  21
ENDBRANCH  15  16
ENDBRANCH   1  15
TORSDOF 5
ENDMDL
MODEL 5
REMARK VINA RESULT:      -8.1      1.198      1.573
REMARK  Name = 
REMARK  5 active torsions:
REMARK  status: ('A' for Active; 'I' for Inactive)
REMARK    1  A    between atoms: O_1  and  C_2
REMARK    2  A    between atoms: C_9  and  N_10
REMARK    3  A    between atoms: N_10  and  C_11
REMARK    4  A    between atoms: C_11  and  C_12
REMARK    5  A    between atoms: C_14  and  C_15
REMARK                            x       y       z     vdW  Elec       q    Type
REMARK                         _______ _______ _______ _____ _____    ______ ____
ROOT
ATOM      1  N   UNL     1       5.000   5.549  19.518  0.00  0.00    +0.000 NA
ATOM      2  H   UNL     1       4.926   5.881  20.477  0.00  0.00    +0.000 HD
ENDROOT
BRANCH   1  10
ATOM      3  C   UNL     1       3.431   2.112  18.800  0.00  0.00    +0.000 C 
ATOM      4  C   UNL     1       2.391   2.134  19.932  0.00  0.00    +0.000 C 
ATOM      5  C   UNL     1       1.758   3.531  20.038  0.00  0.00    +0.000 C 
ATOM      6  C   UNL     1       1.101   3.900  18.701  0.00  0.00    +0.000 C 
ATOM      7  C   UNL     1       2.151   3.895  17.578  0.00  0.00    +0.000 C 
ATOM      8  C   UNL     1       2.760   2.490  17.471  0.00  0.00    +0.000 C 
ATOM      9  C   UNL     1       3.264   4.910  17.913  0.00  0.00    +0.000 C 
ATOM     10  C   UNL     1       3.953   4.547  19.260  0.00  0.00    +0.000 C 
ATOM     11  C   UNL     1       2.859   4.553  20.361  0.00  0.00    +0.000 C 
ATOM     12  C   UNL     1       4.541   3.124  19.115  0.00  0.00    +0.000 C 
BRANCH   3  13
ATOM     13  O   UNL     1       4.010   0.818  18.702  0.00  0.00    +0.000 OA
ATOM     14  H   UNL     1       4.678   0.836  18.001  0.00  0.00    +0.000 HD
ENDBRANCH   3  13
ENDBRANCH   1  10
BRANCH   1  15
ATOM     15  C   UNL     1       6.371   5.076  19.269  0.00  0.00    +0.000 C 
BRANCH  15  16
ATOM     16  C   UNL     1       6.754   5.330  17.852  0.00  0.00    +0.000 A 
ATOM     17  C   UNL     1       6.590   4.466  16.752  0.00  0.00    +0.000 A 
ATOM     18  C   UNL     1       7.007   5.184  15.654  0.00  0.00    +0.000 A 
ATOM     19  O   UNL     1       7.415   6.417  16.094  0.00  0.00    +0.000 OA
ATOM     20  N   UNL     1       7.246   6.513  17.464  0.00  0.00    +0.000 NA
BRANCH  18  21
ATOM     21  C   UNL     1       7.019   4.800  14.271  0.00  0.00    +0.000 A 
ATOM     22  C   UNL     1       7.833   5.303  13.275  0.00  0.00    +0.000 A 
ATOM     23  C   UNL     1       7.548   4.728  12.003  0.00  0.00    +0.000 A 
ATOM     24  C   UNL     1       6.530   3.805  12.068  0.00  0.00    +0.000 A 
ATOM     25  S   UNL     1       5.937   3.620  13.656  0.00  0.00    +0.000 S 
ENDBRANCH  18  21
ENDBRANCH  15  16
ENDBRANCH   1  15
TORSDOF 5
ENDMDL
MODEL 6
REMARK VINA RESULT:      -8.1      1.160      1.525
REMARK  Name = 
REMARK  5 active torsions:
REMARK  status: ('A' for Active; 'I' for Inactive)
REMARK    1  A    between atoms: O_1  and  C_2
REMARK    2  A    between atoms: C_9  and  N_10
REMARK    3  A    between atoms: N_10  and  C_11
REMARK    4  A    between atoms: C_11  and  C_12
REMARK    5  A    between atoms: C_14  and  C_15
REMARK                            x       y       z     vdW  Elec       q    Type
REMARK                         _______ _______ _______ _____ _____    ______ ____
ROOT
ATOM      1  N   UNL     1       5.858   3.744  18.574  0.00  0.00    +0.000 NA
ATOM      2  H   UNL     1       6.034   2.977  17.930  0.00  0.00    +0.000 HD
ENDROOT
BRANCH   1  10
ATOM      3  C   UNL     1       2.711   3.127  20.695  0.00  0.00    +0.000 C 
ATOM      4  C   UNL     1       2.168   4.565  20.660  0.00  0.00    +0.000 C 
ATOM      5  C   UNL     1       2.337   5.156  19.251  0.00  0.00    +0.000 C 
ATOM      6  C   UNL     1       1.594   4.279  18.233  0.00  0.00    +0.000 C 
ATOM      7  C   UNL     1       2.155   2.848  18.261  0.00  0.00    +0.000 C 
ATOM      8  C   UNL     1       1.962   2.264  19.668  0.00  0.00    +0.000 C 
ATOM      9  C   UNL     1       3.660   2.882  17.924  0.00  0.00    +0.000 C 
ATOM     10  C   UNL     1       4.435   3.756  18.952  0.00  0.00    +0.000 C 
ATOM     11  C   UNL     1       3.832   5.185  18.899  0.00  0.00    +0.000 C 
ATOM     12  C   UNL     1       4.206   3.143  20.353  0.00  0.00    +0.000 C 
BRANCH   3  13
ATOM     13  O   UNL     1       2.548   2.583  21.998  0.00  0.00    +0.000 OA
ATOM     14  H   UNL     1       2.808   3.258  22.643  0.00  0.00    +0.000 HD
ENDBRANCH   3  13
ENDBRANCH   1  10
BRANCH   1  15
ATOM     15  C   UNL     1       6.342   5.002  17.982  0.00  0.00    +0.000 C 
BRANCH  15  16
ATOM     16  C   UNL     1       6.564   4.831  16.519  0.00  0.00    +0.000 A 
ATOM     17  C   UNL     1       5.882   3.962  15.645  0.00  0.00    +0.000 A 
ATOM     18  C   UNL     1       6.378   4.236  14.391  0.00  0.00    +0.000 A 
ATOM     19  O   UNL     1       7.325   5.219  14.525  0.00  0.00    +0.000 OA
ATOM     20  N   UNL     1       7.433   5.599  15.851  0.00  0.00    +0.000 NA
BRANCH  18  21
ATOM     21  C   UNL     1       6.007   3.670  13.125  0.00  0.00    +0.000 A 
ATOM     22  C   UNL     1       4.731   3.528  12.619  0.00  0.00    +0.000 A 
ATOM     23  C   UNL     1       4.721   2.883  11.349  0.00  0.00    +0.000 A 
ATOM     24  C   UNL     1       5.988   2.556  10.925  0.00  0.00    +0.000 A 
ATOM     25  S   UNL     1       7.181   3.042  12.043  0.00  0.00    +0.000 S 
ENDBRANCH  18  21
ENDBRANCH  15  16
ENDBRANCH   1  15
TORSDOF 5
ENDMDL
MODEL 7
REMARK VINA RESULT:      -8.1      1.182      2.096
REMARK  Name = 
REMARK  5 active torsions:
REMARK  status: ('A' for Active; 'I' for Inactive)
REMARK    1  A    between atoms: O_1  and  C_2
REMARK    2  A    between atoms: C_9  and  N_10
REMARK    3  A    between atoms: N_10  and  C_11
REMARK    4  A    between atoms: C_11  and  C_12
REMARK    5  A    between atoms: C_14  and  C_15
REMARK                            x       y       z     vdW  Elec       q    Type
REMARK                         _______ _______ _______ _____ _____    ______ ____
ROOT
ATOM      1  N   UNL     1       5.575   3.618  19.106  0.00  0.00    +0.000 NA
ATOM      2  H   UNL     1       5.738   3.096  18.248  0.00  0.00    +0.000 HD
ENDROOT
BRANCH   1  10
ATOM      3  C   UNL     1       1.812   3.901  18.372  0.00  0.00    +0.000 C 
ATOM      4  C   UNL     1       1.360   2.692  19.207  0.00  0.00    +0.000 C 
ATOM      5  C   UNL     1       2.130   2.655  20.537  0.00  0.00    +0.000 C 
ATOM      6  C   UNL     1       1.886   3.959  21.309  0.00  0.00    +0.000 C 
ATOM      7  C   UNL     1       2.357   5.161  20.476  0.00  0.00    +0.000 C 
ATOM      8  C   UNL     1       1.567   5.196  19.160  0.00  0.00    +0.000 C 
ATOM      9  C   UNL     1       3.861   5.010  20.165  0.00  0.00    +0.000 C 
ATOM     10  C   UNL     1       4.130   3.699  19.370  0.00  0.00    +0.000 C 
ATOM     11  C   UNL     1       3.630   2.515  20.241  0.00  0.00    +0.000 C 
ATOM     12  C   UNL     1       3.308   3.769  18.061  0.00  0.00    +0.000 C 
BRANCH   3  13
ATOM     13  O   UNL     1       1.094   3.934  17.146  0.00  0.00    +0.000 OA
ATOM     14  H   UNL     1       0.517   4.713  17.153  0.00  0.00    +0.000 HD
ENDBRANCH   3  13
ENDBRANCH   1  10
BRANCH   1  15
ATOM     15  C   UNL     1       6.254   4.921  19.022  0.00  0.00    +0.000 C 
BRANCH  15  16
ATOM     16  C   UNL     1       6.728   5.167  17.631  0.00  0.00    +0.000 A 
ATOM     17  C   UNL     1       6.480   4.379  16.490  0.00  0.00    +0.000 A 
ATOM     18  C   UNL     1       7.044   5.065  15.439  0.00  0.00    +0.000 A 
ATOM     19  O   UNL     1       7.614   6.204  15.945  0.00  0.00    +0.000 OA
ATOM     20  N   UNL     1       7.407   6.275  17.311  0.00  0.00    +0.000 NA
BRANCH  18  21
ATOM     21  C   UNL     1       7.053   4.736  14.042  0.00  0.00    +0.000 A 
ATOM     22  C   UNL     1       7.855   5.287  13.063  0.00  0.00    +0.000 A 
ATOM     23  C   UNL     1       7.571   4.759  11.770  0.00  0.00    +0.000 A 
ATOM     24  C   UNL     1       6.566   3.820  11.804  0.00  0.00    +0.000 A 
ATOM     25  S   UNL     1       5.983   3.566  13.387  0.00  0.00    +0.000 S 
ENDBRANCH  18  21
ENDBRANCH  15  16
ENDBRANCH   1  15
TORSDOF 5
ENDMDL
MODEL 8
REMARK VINA RESULT:      -8.0      5.370      7.892
REMARK  Name = 
REMARK  5 active torsions:
REMARK  status: ('A' for Active; 'I' for Inactive)
REMARK    1  A    between atoms: O_1  and  C_2
REMARK    2  A    between atoms: C_9  and  N_10
REMARK    3  A    between atoms: N_10  and  C_11
REMARK    4  A    between atoms: C_11  and  C_12
REMARK    5  A    between atoms: C_14  and  C_15
REMARK                            x       y       z     vdW  Elec       q    Type
REMARK                         _______ _______ _______ _____ _____    ______ ____
ROOT
ATOM      1  N   UNL     1       2.704   6.828  19.794  0.00  0.00    +0.000 NA
ATOM      2  H   UNL     1       3.629   7.038  20.163  0.00  0.00    +0.000 HD
ENDROOT
BRANCH   1  10
ATOM      3  C   UNL     1       3.798   3.165  19.383  0.00  0.00    +0.000 C 
ATOM      4  C   UNL     1       2.779   2.548  20.356  0.00  0.00    +0.000 C 
ATOM      5  C   UNL     1       1.408   3.219  20.177  0.00  0.00    +0.000 C 
ATOM      6  C   UNL     1       0.936   3.044  18.727  0.00  0.00    +0.000 C 
ATOM      7  C   UNL     1       1.949   3.679  17.761  0.00  0.00    +0.000 C 
ATOM      8  C   UNL     1       3.308   2.987  17.938  0.00  0.00    +0.000 C 
ATOM      9  C   UNL     1       2.095   5.181  18.087  0.00  0.00    +0.000 C 
ATOM     10  C   UNL     1       2.586   5.381  19.550  0.00  0.00    +0.000 C 
ATOM     11  C   UNL     1       1.542   4.717  20.489  0.00  0.00    +0.000 C 
ATOM     12  C   UNL     1       3.947   4.661  19.690  0.00  0.00    +0.000 C 
BRANCH   3  13
ATOM     13  O   UNL     1       5.062   2.538  19.549  0.00  0.00    +0.000 OA
ATOM     14  H   UNL     1       4.942   1.582  19.450  0.00  0.00    +0.000 HD
ENDBRANCH   3  13
ENDBRANCH   1  10
BRANCH   1  15
ATOM     15  C   UNL     1       2.446   7.668  18.614  0.00  0.00    +0.000 C 
BRANCH  15  16
ATOM     16  C   UNL     1       1.564   8.812  18.979  0.00  0.00    +0.000 A 
ATOM     17  C   UNL     1       0.870   9.007  20.189  0.00  0.00    +0.000 A 
ATOM     18  C   UNL     1       0.277  10.244  20.079  0.00  0.00    +0.000 A 
ATOM     19  O   UNL     1       0.598  10.750  18.845  0.00  0.00    +0.000 OA
ATOM     20  N   UNL     1       1.410   9.862  18.163  0.00  0.00    +0.000 NA
BRANCH  18  21
ATOM     21  C   UNL     1      -0.518  10.957  21.038  0.00  0.00    +0.000 A 
ATOM     22  C   UNL     1      -0.544  10.763  22.405  0.00  0.00    +0.000 A 
ATOM     23  C   UNL     1      -1.482  11.617  23.054  0.00  0.00    +0.000 A 
ATOM     24  C   UNL     1      -2.138  12.436  22.165  0.00  0.00    +0.000 A 
ATOM     25  S   UNL     1      -1.611  12.189  20.562  0.00  0.00    +0.000 S 
ENDBRANCH  18  21
ENDBRANCH  15  16
ENDBRANCH   1  15
TORSDOF 5
ENDMDL
MODEL 9
REMARK VINA RESULT:      -8.0      4.591      7.132
REMARK  Name = 
REMARK  5 active torsions:
REMARK  status: ('A' for Active; 'I' for Inactive)
REMARK    1  A    between atoms: O_1  and  C_2
REMARK    2  A    between atoms: C_9  and  N_10
REMARK    3  A    between atoms: N_10  and  C_11
REMARK    4  A    between atoms: C_11  and  C_12
REMARK    5  A    between atoms: C_14  and  C_15
REMARK                            x       y       z     vdW  Elec       q    Type
REMARK                         _______ _______ _______ _____ _____    ______ ____
ROOT
ATOM      1  N   UNL     1       3.753   6.343  18.719  0.00  0.00    +0.000 NA
ATOM      2  H   UNL     1       4.736   6.268  18.468  0.00  0.00    +0.000 HD
ENDROOT
BRANCH   1  10
ATOM      3  C   UNL     1       2.310   3.326  20.618  0.00  0.00    +0.000 C 
ATOM      4  C   UNL     1       1.057   3.131  19.748  0.00  0.00    +0.000 C 
ATOM      5  C   UNL     1       1.414   3.314  18.264  0.00  0.00    +0.000 C 
ATOM      6  C   UNL     1       2.501   2.306  17.868  0.00  0.00    +0.000 C 
ATOM      7  C   UNL     1       3.757   2.520  18.729  0.00  0.00    +0.000 C 
ATOM      8  C   UNL     1       3.390   2.315  20.205  0.00  0.00    +0.000 C 
ATOM      9  C   UNL     1       4.277   3.958  18.526  0.00  0.00    +0.000 C 
ATOM     10  C   UNL     1       3.194   4.998  18.934  0.00  0.00    +0.000 C 
ATOM     11  C   UNL     1       1.943   4.741  18.051  0.00  0.00    +0.000 C 
ATOM     12  C   UNL     1       2.844   4.751  20.420  0.00  0.00    +0.000 C 
BRANCH   3  13
ATOM     13  O   UNL     1       1.976   3.151  21.988  0.00  0.00    +0.000 OA
ATOM     14  H   UNL     1       1.040   2.908  22.043  0.00  0.00    +0.000 HD
ENDBRANCH   3  13
ENDBRANCH   1  10
BRANCH   1  15
ATOM     15  C   UNL     1       3.048   7.141  17.704  0.00  0.00    +0.000 C 
BRANCH  15  16
ATOM     16  C   UNL     1       2.208   8.183  18.359  0.00  0.00    +0.000 A 
ATOM     17  C   UNL     1       1.689   8.166  19.667  0.00  0.00    +0.000 A 
ATOM     18  C   UNL     1       1.067   9.383  19.833  0.00  0.00    +0.000 A 
ATOM     19  O   UNL     1       1.203  10.081  18.661  0.00  0.00    +0.000 OA
ATOM     20  N   UNL     1       1.925   9.338  17.745  0.00  0.00    +0.000 NA
BRANCH  18  21
ATOM     21  C   UNL     1       0.404   9.912  20.991  0.00  0.00    +0.000 A 
ATOM     22  C   UNL     1       0.102   9.238  22.157  0.00  0.00    +0.000 A 
ATOM     23  C   UNL     1      -0.600  10.056  23.088  0.00  0.00    +0.000 A 
ATOM     24  C   UNL     1      -0.810  11.327  22.605  0.00  0.00    +0.000 A 
ATOM     25  S   UNL     1      -0.145  11.536  21.048  0.00  0.00    +0.000 S 
ENDBRANCH  18  21
ENDBRANCH  15  16
ENDBRANCH   1  15
TORSDOF 5
ENDMDL
