MODEL 1
REMARK VINA RESULT:      -6.9      0.000      0.000
REMARK  Name = 
REMARK  4 active torsions:
REMARK  status: ('A' for Active; 'I' for Inactive)
REMARK    1  A    between atoms: C_1  and  C_2
REMARK    2  A    between atoms: C_2  and  C_3
REMARK    3  A    between atoms: C_8  and  C_9
REMARK    4  A    between atoms: C_9  and  O_11
REMARK                            x       y       z     vdW  Elec       q    Type
REMARK                         _______ _______ _______ _____ _____    ______ ____
ROOT
ATOM      1  C   UNL     1       9.960  12.637  18.076  0.00  0.00    +0.000 C 
ATOM      2  C   UNL     1      10.478  11.203  18.444  0.00  0.00    +0.000 C 
ATOM      3  C   UNL     1       9.522  10.461  19.394  0.00  0.00    +0.000 C 
ATOM      4  C   UNL     1       9.059  11.286  20.593  0.00  0.00    +0.000 C 
ATOM      5  N   UNL     1       9.379  12.705  20.537  0.00  0.00    +0.000 N 
ATOM      6  C   UNL     1       9.123  13.584  21.575  0.00  0.00    +0.000 A 
ATOM      7  C   UNL     1       9.728  14.771  21.220  0.00  0.00    +0.000 A 
ATOM      8  C   UNL     1      10.153  14.662  19.869  0.00  0.00    +0.000 A 
ATOM      9  C   UNL     1       9.886  13.372  19.421  0.00  0.00    +0.000 A 
ATOM     10  C   UNL     1      10.599  15.785  19.072  0.00  0.00    +0.000 A 
ATOM     11  C   UNL     1      11.798  16.409  19.464  0.00  0.00    +0.000 A 
ATOM     12  C   UNL     1      12.333  17.446  18.708  0.00  0.00    +0.000 A 
ATOM     13  C   UNL     1      11.677  17.863  17.553  0.00  0.00    +0.000 A 
ATOM     14  C   UNL     1      10.472  17.264  17.168  0.00  0.00    +0.000 A 
ATOM     15  C   UNL     1       9.897  16.248  17.943  0.00  0.00    +0.000 A 
ATOM     16  N   UNL     1       8.697  15.658  17.463  0.00  0.00    +0.000 N 
ATOM     17  C   UNL     1       7.808  14.930  18.222  0.00  0.00    +0.000 C 
ATOM     18  O   UNL     1       7.314  15.342  19.273  0.00  0.00    +0.000 OA
ATOM     19  C   UNL     1       7.432  13.589  17.627  0.00  0.00    +0.000 C 
ATOM     20  C   UNL     1       8.526  12.527  17.402  0.00  0.00    +0.000 C 
ATOM     21  H   UNL     1       8.515  15.733  16.468  0.00  0.00    +0.000 HD
ENDROOT
BRANCH   1  23
ATOM     22  C   UNL     1      12.333  13.422  16.919  0.00  0.00    +0.000 C 
ATOM     23  C   UNL     1      10.830  13.217  16.901  0.00  0.00    +0.000 C 
ENDBRANCH   1  23
BRANCH   6  24
ATOM     24  C   UNL     1       8.374  13.283  22.767  0.00  0.00    +0.000 C 
ATOM     25  O   UNL     1       8.818  12.800  23.795  0.00  0.00    +0.000 OA
BRANCH  24  26
ATOM     26  O   UNL     1       7.050  13.554  22.625  0.00  0.00    +0.000 OA
ATOM     27  H   UNL     1       6.907  14.368  22.103  0.00  0.00    +0.000 HD
ENDBRANCH  24  26
ENDBRANCH   6  24
TORSDOF 3
ENDMDL
MODEL 2
REMARK VINA RESULT:      -6.4      1.581      5.142
REMARK  Name = 
REMARK  4 active torsions:
REMARK  status: ('A' for Active; 'I' for Inactive)
REMARK    1  A    between atoms: C_1  and  C_2
REMARK    2  A    between atoms: C_2  and  C_3
REMARK    3  A    between atoms: C_8  and  C_9
REMARK    4  A    between atoms: C_9  and  O_11
REMARK                            x       y       z     vdW  Elec       q    Type
REMARK                         _______ _______ _______ _____ _____    ______ ____
ROOT
ATOM      1  C   UNL     1      11.246  15.675  18.226  0.00  0.00    +0.000 C 
ATOM      2  C   UNL     1      11.439  16.735  17.087  0.00  0.00    +0.000 C 
ATOM      3  C   UNL     1      10.859  18.110  17.463  0.00  0.00    +0.000 C 
ATOM      4  C   UNL     1       9.447  18.062  18.039  0.00  0.00    +0.000 C 
ATOM      5  N   UNL     1       8.954  16.735  18.379  0.00  0.00    +0.000 N 
ATOM      6  C   UNL     1       7.666  16.492  18.822  0.00  0.00    +0.000 A 
ATOM      7  C   UNL     1       7.533  15.119  18.855  0.00  0.00    +0.000 A 
ATOM      8  C   UNL     1       8.816  14.547  18.646  0.00  0.00    +0.000 A 
ATOM      9  C   UNL     1       9.724  15.571  18.396  0.00  0.00    +0.000 A 
ATOM     10  C   UNL     1       9.119  13.149  18.864  0.00  0.00    +0.000 A 
ATOM     11  C   UNL     1       8.497  12.221  18.008  0.00  0.00    +0.000 A 
ATOM     12  C   UNL     1       8.794  10.865  18.102  0.00  0.00    +0.000 A 
ATOM     13  C   UNL     1       9.717  10.429  19.048  0.00  0.00    +0.000 A 
ATOM     14  C   UNL     1      10.323  11.342  19.920  0.00  0.00    +0.000 A 
ATOM     15  C   UNL     1      10.001  12.704  19.867  0.00  0.00    +0.000 A 
ATOM     16  N   UNL     1      10.692  13.575  20.752  0.00  0.00    +0.000 N 
ATOM     17  C   UNL     1      10.283  14.841  21.104  0.00  0.00    +0.000 C 
ATOM     18  O   UNL     1       9.164  15.094  21.554  0.00  0.00    +0.000 OA
ATOM     19  C   UNL     1      11.348  15.907  20.952  0.00  0.00    +0.000 C 
ATOM     20  C   UNL     1      11.938  16.194  19.558  0.00  0.00    +0.000 C 
ATOM     21  H   UNL     1      11.588  13.255  21.105  0.00  0.00    +0.000 HD
ENDROOT
BRANCH   1  23
ATOM     22  C   UNL     1      11.903  13.479  16.698  0.00  0.00    +0.000 C 
ATOM     23  C   UNL     1      12.097  14.395  17.892  0.00  0.00    +0.000 C 
ENDBRANCH   1  23
BRANCH   6  24
ATOM     24  C   UNL     1       6.691  17.493  19.166  0.00  0.00    +0.000 C 
ATOM     25  O   UNL     1       6.808  18.346  20.030  0.00  0.00    +0.000 OA
BRANCH  24  26
ATOM     26  O   UNL     1       5.549  17.371  18.440  0.00  0.00    +0.000 OA
ATOM     27  H   UNL     1       5.286  16.434  18.344  0.00  0.00    +0.000 HD
ENDBRANCH  24  26
ENDBRANCH   6  24
TORSDOF 3
ENDMDL
MODEL 3
REMARK VINA RESULT:      -6.1      1.469      1.778
REMARK  Name = 
REMARK  4 active torsions:
REMARK  status: ('A' for Active; 'I' for Inactive)
REMARK    1  A    between atoms: C_1  and  C_2
REMARK    2  A    between atoms: C_2  and  C_3
REMARK    3  A    between atoms: C_8  and  C_9
REMARK    4  A    between atoms: C_9  and  O_11
REMARK                            x       y       z     vdW  Elec       q    Type
REMARK                         _______ _______ _______ _____ _____    ______ ____
ROOT
ATOM      1  C   UNL     1      10.392  13.146  18.854  0.00  0.00    +0.000 C 
ATOM      2  C   UNL     1      11.041  11.719  18.818  0.00  0.00    +0.000 C 
ATOM      3  C   UNL     1      10.043  10.612  19.197  0.00  0.00    +0.000 C 
ATOM      4  C   UNL     1       9.234  10.899  20.459  0.00  0.00    +0.000 C 
ATOM      5  N   UNL     1       9.337  12.257  20.974  0.00  0.00    +0.000 N 
ATOM      6  C   UNL     1       8.750  12.668  22.158  0.00  0.00    +0.000 A 
ATOM      7  C   UNL     1       9.224  13.943  22.388  0.00  0.00    +0.000 A 
ATOM      8  C   UNL     1       9.917  14.373  21.225  0.00  0.00    +0.000 A 
ATOM      9  C   UNL     1       9.944  13.324  20.311  0.00  0.00    +0.000 A 
ATOM     10  C   UNL     1      10.333  15.739  20.995  0.00  0.00    +0.000 A 
ATOM     11  C   UNL     1      11.321  16.258  21.851  0.00  0.00    +0.000 A 
ATOM     12  C   UNL     1      11.829  17.537  21.649  0.00  0.00    +0.000 A 
ATOM     13  C   UNL     1      11.356  18.303  20.588  0.00  0.00    +0.000 A 
ATOM     14  C   UNL     1      10.356  17.805  19.744  0.00  0.00    +0.000 A 
ATOM     15  C   UNL     1       9.803  16.536  19.962  0.00  0.00    +0.000 A 
ATOM     16  N   UNL     1       8.826  16.081  19.036  0.00  0.00    +0.000 N 
ATOM     17  C   UNL     1       7.928  15.062  19.263  0.00  0.00    +0.000 C 
ATOM     18  O   UNL     1       7.180  15.019  20.241  0.00  0.00    +0.000 OA
ATOM     19  C   UNL     1       7.886  14.013  18.171  0.00  0.00    +0.000 C 
ATOM     20  C   UNL     1       9.152  13.191  17.862  0.00  0.00    +0.000 C 
ATOM     21  H   UNL     1       8.833  16.505  18.115  0.00  0.00    +0.000 HD
ENDROOT
BRANCH   1  23
ATOM     22  C   UNL     1      11.245  14.782  16.808  0.00  0.00    +0.000 C 
ATOM     23  C   UNL     1      11.377  14.181  18.194  0.00  0.00    +0.000 C 
ENDBRANCH   1  23
BRANCH   6  24
ATOM     24  C   UNL     1       7.837  11.895  22.958  0.00  0.00    +0.000 C 
ATOM     25  O   UNL     1       6.623  12.015  22.987  0.00  0.00    +0.000 OA
BRANCH  24  26
ATOM     26  O   UNL     1       8.481  11.005  23.758  0.00  0.00    +0.000 OA
ATOM     27  H   UNL     1       8.035  10.917  24.624  0.00  0.00    +0.000 HD
ENDBRANCH  24  26
ENDBRANCH   6  24
TORSDOF 3
ENDMDL
MODEL 4
REMARK VINA RESULT:      -6.0      0.955      1.154
REMARK  Name = 
REMARK  4 active torsions:
REMARK  status: ('A' for Active; 'I' for Inactive)
REMARK    1  A    between atoms: C_1  and  C_2
REMARK    2  A    between atoms: C_2  and  C_3
REMARK    3  A    between atoms: C_8  and  C_9
REMARK    4  A    between atoms: C_9  and  O_11
REMARK                            x       y       z     vdW  Elec       q    Type
REMARK                         _______ _______ _______ _____ _____    ______ ____
ROOT
ATOM      1  C   UNL     1      10.359  12.943  18.938  0.00  0.00    +0.000 C 
ATOM      2  C   UNL     1      10.957  11.737  19.741  0.00  0.00    +0.000 C 
ATOM      3  C   UNL     1       9.878  10.942  20.497  0.00  0.00    +0.000 C 
ATOM      4  C   UNL     1       8.906  11.806  21.297  0.00  0.00    +0.000 C 
ATOM      5  N   UNL     1       8.980  13.236  21.039  0.00  0.00    +0.000 N 
ATOM      6  C   UNL     1       8.244  14.175  21.740  0.00  0.00    +0.000 A 
ATOM      7  C   UNL     1       8.723  15.404  21.337  0.00  0.00    +0.000 A 
ATOM      8  C   UNL     1       9.590  15.199  20.231  0.00  0.00    +0.000 A 
ATOM      9  C   UNL     1       9.712  13.831  20.010  0.00  0.00    +0.000 A 
ATOM     10  C   UNL     1      10.081  16.265  19.385  0.00  0.00    +0.000 A 
ATOM     11  C   UNL     1      10.953  17.198  19.975  0.00  0.00    +0.000 A 
ATOM     12  C   UNL     1      11.528  18.208  19.210  0.00  0.00    +0.000 A 
ATOM     13  C   UNL     1      11.239  18.289  17.851  0.00  0.00    +0.000 A 
ATOM     14  C   UNL     1      10.354  17.379  17.260  0.00  0.00    +0.000 A 
ATOM     15  C   UNL     1       9.733  16.384  18.026  0.00  0.00    +0.000 A 
ATOM     16  N   UNL     1       8.883  15.470  17.346  0.00  0.00    +0.000 N 
ATOM     17  C   UNL     1       7.928  14.677  17.941  0.00  0.00    +0.000 C 
ATOM     18  O   UNL     1       7.047  15.114  18.683  0.00  0.00    +0.000 OA
ATOM     19  C   UNL     1       8.008  13.213  17.561  0.00  0.00    +0.000 C 
ATOM     20  C   UNL     1       9.276  12.409  17.906  0.00  0.00    +0.000 C 
ATOM     21  H   UNL     1       9.037  15.354  16.350  0.00  0.00    +0.000 HD
ENDROOT
BRANCH   1  23
ATOM     22  C   UNL     1      11.537  13.336  16.480  0.00  0.00    +0.000 C 
ATOM     23  C   UNL     1      11.462  13.528  17.982  0.00  0.00    +0.000 C 
ENDBRANCH   1  23
BRANCH   6  24
ATOM     24  C   UNL     1       7.200  13.890  22.688  0.00  0.00    +0.000 C 
ATOM     25  O   UNL     1       6.036  13.633  22.425  0.00  0.00    +0.000 OA
BRANCH  24  26
ATOM     26  O   UNL     1       7.632  13.981  23.974  0.00  0.00    +0.000 OA
ATOM     27  H   UNL     1       6.887  14.121  24.591  0.00  0.00    +0.000 HD
ENDBRANCH  24  26
ENDBRANCH   6  24
TORSDOF 3
ENDMDL
MODEL 5
REMARK VINA RESULT:      -5.8      9.259     11.510
REMARK  Name = 
REMARK  4 active torsions:
REMARK  status: ('A' for Active; 'I' for Inactive)
REMARK    1  A    between atoms: C_1  and  C_2
REMARK    2  A    between atoms: C_2  and  C_3
REMARK    3  A    between atoms: C_8  and  C_9
REMARK    4  A    between atoms: C_9  and  O_11
REMARK                            x       y       z     vdW  Elec       q    Type
REMARK                         _______ _______ _______ _____ _____    ______ ____
ROOT
ATOM      1  C   UNL     1      -2.089  11.358  18.914  0.00  0.00    +0.000 C 
ATOM      2  C   UNL     1      -3.629  11.545  19.142  0.00  0.00    +0.000 C 
ATOM      3  C   UNL     1      -3.970  12.918  19.747  0.00  0.00    +0.000 C 
ATOM      4  C   UNL     1      -3.109  13.308  20.945  0.00  0.00    +0.000 C 
ATOM      5  N   UNL     1      -1.950  12.462  21.186  0.00  0.00    +0.000 N 
ATOM      6  C   UNL     1      -1.114  12.608  22.280  0.00  0.00    +0.000 A 
ATOM      7  C   UNL     1      -0.264  11.523  22.251  0.00  0.00    +0.000 A 
ATOM      8  C   UNL     1      -0.450  10.850  21.014  0.00  0.00    +0.000 A 
ATOM      9  C   UNL     1      -1.480  11.475  20.318  0.00  0.00    +0.000 A 
ATOM     10  C   UNL     1       0.438   9.821  20.516  0.00  0.00    +0.000 A 
ATOM     11  C   UNL     1       0.481   8.614  21.237  0.00  0.00    +0.000 A 
ATOM     12  C   UNL     1       1.251   7.548  20.782  0.00  0.00    +0.000 A 
ATOM     13  C   UNL     1       1.977   7.680  19.602  0.00  0.00    +0.000 A 
ATOM     14  C   UNL     1       1.959   8.886  18.890  0.00  0.00    +0.000 A 
ATOM     15  C   UNL     1       1.224   9.983  19.359  0.00  0.00    +0.000 A 
ATOM     16  N   UNL     1       1.217  11.156  18.558  0.00  0.00    +0.000 N 
ATOM     17  C   UNL     1       0.874  12.416  18.995  0.00  0.00    +0.000 C 
ATOM     18  O   UNL     1       1.383  12.958  19.977  0.00  0.00    +0.000 OA
ATOM     19  C   UNL     1      -0.148  13.121  18.127  0.00  0.00    +0.000 C 
ATOM     20  C   UNL     1      -1.550  12.505  17.957  0.00  0.00    +0.000 C 
ATOM     21  H   UNL     1       1.426  11.041  17.573  0.00  0.00    +0.000 HD
ENDROOT
BRANCH   1  23
ATOM     22  C   UNL     1      -2.272   9.865  16.607  0.00  0.00    +0.000 C 
ATOM     23  C   UNL     1      -1.846  10.067  18.048  0.00  0.00    +0.000 C 
ENDBRANCH   1  23
BRANCH   6  24
ATOM     24  C   UNL     1      -1.156  13.687  23.232  0.00  0.00    +0.000 C 
ATOM     25  O   UNL     1      -2.003  13.857  24.093  0.00  0.00    +0.000 OA
BRANCH  24  26
ATOM     26  O   UNL     1      -0.142  14.573  23.051  0.00  0.00    +0.000 OA
ATOM     27  H   UNL     1       0.311  14.427  22.196  0.00  0.00    +0.000 HD
ENDBRANCH  24  26
ENDBRANCH   6  24
TORSDOF 3
ENDMDL
MODEL 6
REMARK VINA RESULT:      -5.6      9.040     11.392
REMARK  Name = 
REMARK  4 active torsions:
REMARK  status: ('A' for Active; 'I' for Inactive)
REMARK    1  A    between atoms: C_1  and  C_2
REMARK    2  A    between atoms: C_2  and  C_3
REMARK    3  A    between atoms: C_8  and  C_9
REMARK    4  A    between atoms: C_9  and  O_11
REMARK                            x       y       z     vdW  Elec       q    Type
REMARK                         _______ _______ _______ _____ _____    ______ ____
ROOT
ATOM      1  C   UNL     1       4.750   6.687  16.930  0.00  0.00    +0.000 C 
ATOM      2  C   UNL     1       3.375   7.226  17.456  0.00  0.00    +0.000 C 
ATOM      3  C   UNL     1       3.097   6.803  18.909  0.00  0.00    +0.000 C 
ATOM      4  C   UNL     1       3.336   5.322  19.191  0.00  0.00    +0.000 C 
ATOM      5  N   UNL     1       4.017   4.586  18.135  0.00  0.00    +0.000 N 
ATOM      6  C   UNL     1       4.232   3.220  18.177  0.00  0.00    +0.000 A 
ATOM      7  C   UNL     1       4.728   2.880  16.936  0.00  0.00    +0.000 A 
ATOM      8  C   UNL     1       5.019   4.080  16.233  0.00  0.00    +0.000 A 
ATOM      9  C   UNL     1       4.616   5.160  17.013  0.00  0.00    +0.000 A 
ATOM     10  C   UNL     1       5.785   4.129  15.007  0.00  0.00    +0.000 A 
ATOM     11  C   UNL     1       5.209   3.530  13.871  0.00  0.00    +0.000 A 
ATOM     12  C   UNL     1       5.847   3.600  12.637  0.00  0.00    +0.000 A 
ATOM     13  C   UNL     1       7.060   4.274  12.529  0.00  0.00    +0.000 A 
ATOM     14  C   UNL     1       7.652   4.852  13.658  0.00  0.00    +0.000 A 
ATOM     15  C   UNL     1       7.044   4.752  14.916  0.00  0.00    +0.000 A 
ATOM     16  N   UNL     1       7.682   5.404  16.005  0.00  0.00    +0.000 N 
ATOM     17  C   UNL     1       7.458   5.134  17.337  0.00  0.00    +0.000 C 
ATOM     18  O   UNL     1       7.536   4.006  17.825  0.00  0.00    +0.000 OA
ATOM     19  C   UNL     1       7.164   6.358  18.180  0.00  0.00    +0.000 C 
ATOM     20  C   UNL     1       5.921   7.212  17.867  0.00  0.00    +0.000 C 
ATOM     21  H   UNL     1       8.309   6.169  15.779  0.00  0.00    +0.000 HD
ENDROOT
BRANCH   1  23
ATOM     22  C   UNL     1       4.458   7.065  14.217  0.00  0.00    +0.000 C 
ATOM     23  C   UNL     1       5.089   7.381  15.560  0.00  0.00    +0.000 C 
ENDBRANCH   1  23
BRANCH   6  24
ATOM     24  C   UNL     1       3.975   2.361  19.303  0.00  0.00    +0.000 C 
ATOM     25  O   UNL     1       2.880   2.005  19.704  0.00  0.00    +0.000 OA
BRANCH  24  26
ATOM     26  O   UNL     1       5.117   2.000  19.946  0.00  0.00    +0.000 OA
ATOM     27  H   UNL     1       5.886   2.505  19.616  0.00  0.00    +0.000 HD
ENDBRANCH  24  26
ENDBRANCH   6  24
TORSDOF 3
ENDMDL
MODEL 7
REMARK VINA RESULT:      -5.6      1.922      2.774
REMARK  Name = 
REMARK  4 active torsions:
REMARK  status: ('A' for Active; 'I' for Inactive)
REMARK    1  A    between atoms: C_1  and  C_2
REMARK    2  A    between atoms: C_2  and  C_3
REMARK    3  A    between atoms: C_8  and  C_9
REMARK    4  A    between atoms: C_9  and  O_11
REMARK                            x       y       z     vdW  Elec       q    Type
REMARK                         _______ _______ _______ _____ _____    ______ ____
ROOT
ATOM      1  C   UNL     1       9.828  12.916  20.511  0.00  0.00    +0.000 C 
ATOM      2  C   UNL     1       9.720  12.562  22.035  0.00  0.00    +0.000 C 
ATOM      3  C   UNL     1       8.290  12.174  22.447  0.00  0.00    +0.000 C 
ATOM      4  C   UNL     1       7.210  13.132  21.950  0.00  0.00    +0.000 C 
ATOM      5  N   UNL     1       7.647  14.115  20.970  0.00  0.00    +0.000 N 
ATOM      6  C   UNL     1       6.830  15.120  20.482  0.00  0.00    +0.000 A 
ATOM      7  C   UNL     1       7.648  15.939  19.733  0.00  0.00    +0.000 A 
ATOM      8  C   UNL     1       8.907  15.296  19.593  0.00  0.00    +0.000 A 
ATOM      9  C   UNL     1       8.889  14.117  20.332  0.00  0.00    +0.000 A 
ATOM     10  C   UNL     1       9.932  15.728  18.668  0.00  0.00    +0.000 A 
ATOM     11  C   UNL     1      10.529  16.978  18.916  0.00  0.00    +0.000 A 
ATOM     12  C   UNL     1      11.575  17.431  18.118  0.00  0.00    +0.000 A 
ATOM     13  C   UNL     1      12.034  16.636  17.072  0.00  0.00    +0.000 A 
ATOM     14  C   UNL     1      11.431  15.401  16.803  0.00  0.00    +0.000 A 
ATOM     15  C   UNL     1      10.348  14.952  17.569  0.00  0.00    +0.000 A 
ATOM     16  N   UNL     1       9.820  13.668  17.265  0.00  0.00    +0.000 N 
ATOM     17  C   UNL     1       8.575  13.211  17.638  0.00  0.00    +0.000 C 
ATOM     18  O   UNL     1       7.529  13.817  17.404  0.00  0.00    +0.000 OA
ATOM     19  C   UNL     1       8.586  11.855  18.314  0.00  0.00    +0.000 C 
ATOM     20  C   UNL     1       9.346  11.677  19.642  0.00  0.00    +0.000 C 
ATOM     21  H   UNL     1      10.435  13.021  16.785  0.00  0.00    +0.000 HD
ENDROOT
BRANCH   1  23
ATOM     22  C   UNL     1      12.236  11.886  19.660  0.00  0.00    +0.000 C 
ATOM     23  C   UNL     1      11.345  13.028  20.110  0.00  0.00    +0.000 C 
ENDBRANCH   1  23
BRANCH   6  24
ATOM     24  C   UNL     1       5.418  15.250  20.730  0.00  0.00    +0.000 C 
ATOM     25  O   UNL     1       4.521  14.743  20.076  0.00  0.00    +0.000 OA
BRANCH  24  26
ATOM     26  O   UNL     1       5.153  16.069  21.781  0.00  0.00    +0.000 OA
ATOM     27  H   UNL     1       5.007  16.990  21.488  0.00  0.00    +0.000 HD
ENDBRANCH  24  26
ENDBRANCH   6  24
TORSDOF 3
ENDMDL
MODEL 8
REMARK VINA RESULT:      -5.6      8.109      9.734
REMARK  Name = 
REMARK  4 active torsions:
REMARK  status: ('A' for Active; 'I' for Inactive)
REMARK    1  A    between atoms: C_1  and  C_2
REMARK    2  A    between atoms: C_2  and  C_3
REMARK    3  A    between atoms: C_8  and  C_9
REMARK    4  A    between atoms: C_9  and  O_11
REMARK                            x       y       z     vdW  Elec       q    Type
REMARK                         _______ _______ _______ _____ _____    ______ ____
ROOT
ATOM      1  C   UNL     1       0.509  10.520  20.568  0.00  0.00    +0.000 C 
ATOM      2  C   UNL     1       0.568   9.475  21.736  0.00  0.00    +0.000 C 
ATOM      3  C   UNL     1      -0.699   9.497  22.607  0.00  0.00    +0.000 C 
ATOM      4  C   UNL     1      -1.142  10.893  23.040  0.00  0.00    +0.000 C 
ATOM      5  N   UNL     1      -0.465  11.998  22.376  0.00  0.00    +0.000 N 
ATOM      6  C   UNL     1      -0.670  13.325  22.710  0.00  0.00    +0.000 A 
ATOM      7  C   UNL     1       0.272  14.039  22.000  0.00  0.00    +0.000 A 
ATOM      8  C   UNL     1       0.890  13.157  21.074  0.00  0.00    +0.000 A 
ATOM      9  C   UNL     1       0.386  11.876  21.277  0.00  0.00    +0.000 A 
ATOM     10  C   UNL     1       1.742  13.595  19.990  0.00  0.00    +0.000 A 
ATOM     11  C   UNL     1       2.971  14.183  20.343  0.00  0.00    +0.000 A 
ATOM     12  C   UNL     1       3.880  14.561  19.360  0.00  0.00    +0.000 A 
ATOM     13  C   UNL     1       3.570  14.350  18.020  0.00  0.00    +0.000 A 
ATOM     14  C   UNL     1       2.340  13.787  17.658  0.00  0.00    +0.000 A 
ATOM     15  C   UNL     1       1.396  13.441  18.634  0.00  0.00    +0.000 A 
ATOM     16  N   UNL     1       0.190  12.833  18.192  0.00  0.00    +0.000 N 
ATOM     17  C   UNL     1      -0.975  12.753  18.920  0.00  0.00    +0.000 C 
ATOM     18  O   UNL     1      -1.527  13.730  19.429  0.00  0.00    +0.000 OA
ATOM     19  C   UNL     1      -1.569  11.362  18.997  0.00  0.00    +0.000 C 
ATOM     20  C   UNL     1      -0.762  10.230  19.660  0.00  0.00    +0.000 C 
ATOM     21  H   UNL     1       0.214  12.370  17.290  0.00  0.00    +0.000 HD
ENDROOT
BRANCH   1  23
ATOM     22  C   UNL     1       1.587   9.566  18.220  0.00  0.00    +0.000 C 
ATOM     23  C   UNL     1       1.694  10.250  19.570  0.00  0.00    +0.000 C 
ENDBRANCH   1  23
BRANCH   6  24
ATOM     24  C   UNL     1      -1.670  13.820  23.617  0.00  0.00    +0.000 C 
ATOM     25  O   UNL     1      -2.873  13.626  23.542  0.00  0.00    +0.000 OA
BRANCH  24  26
ATOM     26  O   UNL     1      -1.139  14.605  24.591  0.00  0.00    +0.000 OA
ATOM     27  H   UNL     1      -1.806  15.219  24.957  0.00  0.00    +0.000 HD
ENDBRANCH  24  26
ENDBRANCH   6  24
TORSDOF 3
ENDMDL
MODEL 9
REMARK VINA RESULT:      -5.5      2.602      5.148
REMARK  Name = 
REMARK  4 active torsions:
REMARK  status: ('A' for Active; 'I' for Inactive)
REMARK    1  A    between atoms: C_1  and  C_2
REMARK    2  A    between atoms: C_2  and  C_3
REMARK    3  A    between atoms: C_8  and  C_9
REMARK    4  A    between atoms: C_9  and  O_11
REMARK                            x       y       z     vdW  Elec       q    Type
REMARK                         _______ _______ _______ _____ _____    ______ ____
ROOT
ATOM      1  C   UNL     1       8.798  13.534  21.238  0.00  0.00    +0.000 C 
ATOM      2  C   UNL     1       9.294  12.048  21.201  0.00  0.00    +0.000 C 
ATOM      3  C   UNL     1      10.763  11.931  20.756  0.00  0.00    +0.000 C 
ATOM      4  C   UNL     1      11.107  12.737  19.506  0.00  0.00    +0.000 C 
ATOM      5  N   UNL     1      10.087  13.677  19.066  0.00  0.00    +0.000 N 
ATOM      6  C   UNL     1      10.187  14.419  17.902  0.00  0.00    +0.000 A 
ATOM      7  C   UNL     1       8.964  15.036  17.744  0.00  0.00    +0.000 A 
ATOM      8  C   UNL     1       8.212  14.837  18.933  0.00  0.00    +0.000 A 
ATOM      9  C   UNL     1       8.944  14.021  19.790  0.00  0.00    +0.000 A 
ATOM     10  C   UNL     1       6.988  15.546  19.240  0.00  0.00    +0.000 A 
ATOM     11  C   UNL     1       5.876  15.281  18.419  0.00  0.00    +0.000 A 
ATOM     12  C   UNL     1       4.643  15.863  18.693  0.00  0.00    +0.000 A 
ATOM     13  C   UNL     1       4.512  16.709  19.792  0.00  0.00    +0.000 A 
ATOM     14  C   UNL     1       5.619  16.996  20.600  0.00  0.00    +0.000 A 
ATOM     15  C   UNL     1       6.877  16.453  20.311  0.00  0.00    +0.000 A 
ATOM     16  N   UNL     1       7.941  16.754  21.204  0.00  0.00    +0.000 N 
ATOM     17  C   UNL     1       9.281  16.628  20.916  0.00  0.00    +0.000 C 
ATOM     18  O   UNL     1       9.817  17.140  19.932  0.00  0.00    +0.000 OA
ATOM     19  C   UNL     1      10.071  15.851  21.950  0.00  0.00    +0.000 C 
ATOM     20  C   UNL     1       9.716  14.377  22.222  0.00  0.00    +0.000 C 
ATOM     21  H   UNL     1       7.685  17.027  22.146  0.00  0.00    +0.000 HD
ENDROOT
BRANCH   1  23
ATOM     22  C   UNL     1       7.159  13.975  23.408  0.00  0.00    +0.000 C 
ATOM     23  C   UNL     1       7.401  13.597  21.960  0.00  0.00    +0.000 C 
ENDBRANCH   1  23
BRANCH   6  24
ATOM     24  C   UNL     1      11.347  14.504  17.055  0.00  0.00    +0.000 C 
ATOM     25  O   UNL     1      12.330  15.203  17.245  0.00  0.00    +0.000 OA
BRANCH  24  26
ATOM     26  O   UNL     1      11.230  13.734  15.942  0.00  0.00    +0.000 OA
ATOM     27  H   UNL     1      10.361  13.862  15.511  0.00  0.00    +0.000 HD
ENDBRANCH  24  26
ENDBRANCH   6  24
TORSDOF 3
ENDMDL
