MODEL 1
REMARK VINA RESULT:      -7.5      0.000      0.000
REMARK  Name = 
REMARK  4 active torsions:
REMARK  status: ('A' for Active; 'I' for Inactive)
REMARK    1  A    between atoms: N_5  and  C_6
REMARK    2  A    between atoms: C_6  and  C_7
REMARK    3  A    between atoms: N_13  and  C_14
REMARK    4  A    between atoms: C_14  and  C_15
REMARK                            x       y       z     vdW  Elec       q    Type
REMARK                         _______ _______ _______ _____ _____    ______ ____
ROOT
ATOM      1  C   UNL     1       7.405   7.497  17.820  0.00  0.00    +0.000 A 
ATOM      2  C   UNL     1       7.619   6.357  18.561  0.00  0.00    +0.000 A 
ATOM      3  N   UNL     1       6.533   5.578  18.325  0.00  0.00    +0.000 N 
ATOM      4  C   UNL     1       5.696   6.227  17.457  0.00  0.00    +0.000 A 
ATOM      5  N   UNL     1       6.197   7.405  17.138  0.00  0.00    +0.000 NA
ATOM      6  C   UNL     1       4.378   5.620  17.061  0.00  0.00    +0.000 C 
ATOM      7  N   UNL     1       4.318   4.161  17.331  0.00  0.00    +0.000 NA
ATOM      8  C   UNL     1       4.803   3.879  18.700  0.00  0.00    +0.000 C 
ATOM      9  C   UNL     1       6.272   4.262  18.862  0.00  0.00    +0.000 C 
ENDROOT
BRANCH   1  10
ATOM     10  C   UNL     1       8.286   8.706  17.717  0.00  0.00    +0.000 C 
BRANCH  10  15
ATOM     11  C   UNL     1      10.838  12.717  19.682  0.00  0.00    +0.000 A 
ATOM     12  C   UNL     1      10.663  12.320  18.367  0.00  0.00    +0.000 A 
ATOM     13  C   UNL     1       9.960  11.147  18.096  0.00  0.00    +0.000 A 
ATOM     14  C   UNL     1       9.437  10.396  19.146  0.00  0.00    +0.000 A 
ATOM     15  N   UNL     1       8.790   9.204  18.980  0.00  0.00    +0.000 N 
ATOM     16  N   UNL     1       9.598  10.785  20.428  0.00  0.00    +0.000 NA
ATOM     17  C   UNL     1      10.290  11.922  20.670  0.00  0.00    +0.000 A 
ATOM     18  H   UNL     1       8.343   8.874  19.827  0.00  0.00    +0.000 HD
ENDBRANCH  10  15
ENDBRANCH   1  10
BRANCH   7  19
ATOM     19  C   UNL     1       2.934   3.665  17.135  0.00  0.00    +0.000 C 
BRANCH  19  20
ATOM     20  C   UNL     1       2.144   3.622  18.426  0.00  0.00    +0.000 A 
ATOM     21  N   UNL     1       1.759   4.699  19.087  0.00  0.00    +0.000 NA
ATOM     22  C   UNL     1       1.225   4.331  20.306  0.00  0.00    +0.000 A 
ATOM     23  C   UNL     1       1.152   2.976  20.537  0.00  0.00    +0.000 A 
ATOM     24  S   UNL     1       1.784   2.123  19.192  0.00  0.00    +0.000 S 
ENDBRANCH  19  20
ENDBRANCH   7  19
TORSDOF 4
ENDMDL
MODEL 2
REMARK VINA RESULT:      -7.4      6.026      9.172
REMARK  Name = 
REMARK  4 active torsions:
REMARK  status: ('A' for Active; 'I' for Inactive)
REMARK    1  A    between atoms: N_5  and  C_6
REMARK    2  A    between atoms: C_6  and  C_7
REMARK    3  A    between atoms: N_13  and  C_14
REMARK    4  A    between atoms: C_14  and  C_15
REMARK                            x       y       z     vdW  Elec       q    Type
REMARK                         _______ _______ _______ _____ _____    ______ ____
ROOT
ATOM      1  C   UNL     1       2.433   7.883  18.556  0.00  0.00    +0.000 A 
ATOM      2  C   UNL     1       1.808   9.010  18.070  0.00  0.00    +0.000 A 
ATOM      3  N   UNL     1       1.112   9.505  19.123  0.00  0.00    +0.000 N 
ATOM      4  C   UNL     1       1.322   8.706  20.216  0.00  0.00    +0.000 A 
ATOM      5  N   UNL     1       2.117   7.702  19.898  0.00  0.00    +0.000 NA
ATOM      6  C   UNL     1       0.623   8.985  21.518  0.00  0.00    +0.000 C 
ATOM      7  N   UNL     1       0.098  10.371  21.598  0.00  0.00    +0.000 NA
ATOM      8  C   UNL     1      -0.635  10.707  20.357  0.00  0.00    +0.000 C 
ATOM      9  C   UNL     1       0.289  10.692  19.142  0.00  0.00    +0.000 C 
ENDROOT
BRANCH   1  10
ATOM     10  C   UNL     1       3.327   6.935  17.814  0.00  0.00    +0.000 C 
BRANCH  10  15
ATOM     11  C   UNL     1       2.674   1.901  18.647  0.00  0.00    +0.000 A 
ATOM     12  C   UNL     1       1.867   2.816  17.990  0.00  0.00    +0.000 A 
ATOM     13  C   UNL     1       2.251   4.156  17.946  0.00  0.00    +0.000 A 
ATOM     14  C   UNL     1       3.439   4.554  18.551  0.00  0.00    +0.000 A 
ATOM     15  N   UNL     1       3.864   5.853  18.612  0.00  0.00    +0.000 N 
ATOM     16  N   UNL     1       4.232   3.665  19.183  0.00  0.00    +0.000 NA
ATOM     17  C   UNL     1       3.838   2.371  19.222  0.00  0.00    +0.000 A 
ATOM     18  H   UNL     1       4.815   5.944  18.948  0.00  0.00    +0.000 HD
ENDBRANCH  10  15
ENDBRANCH   1  10
BRANCH   7  19
ATOM     19  C   UNL     1      -0.767  10.518  22.794  0.00  0.00    +0.000 C 
BRANCH  19  20
ATOM     20  C   UNL     1      -1.242  11.942  22.996  0.00  0.00    +0.000 A 
ATOM     21  N   UNL     1      -0.430  12.980  23.091  0.00  0.00    +0.000 NA
ATOM     22  C   UNL     1      -1.147  14.102  23.453  0.00  0.00    +0.000 A 
ATOM     23  C   UNL     1      -2.507  13.923  23.573  0.00  0.00    +0.000 A 
ATOM     24  S   UNL     1      -2.910  12.292  23.234  0.00  0.00    +0.000 S 
ENDBRANCH  19  20
ENDBRANCH   7  19
TORSDOF 4
ENDMDL
MODEL 3
REMARK VINA RESULT:      -7.3      1.304      1.795
REMARK  Name = 
REMARK  4 active torsions:
REMARK  status: ('A' for Active; 'I' for Inactive)
REMARK    1  A    between atoms: N_5  and  C_6
REMARK    2  A    between atoms: C_6  and  C_7
REMARK    3  A    between atoms: N_13  and  C_14
REMARK    4  A    between atoms: C_14  and  C_15
REMARK                            x       y       z     vdW  Elec       q    Type
REMARK                         _______ _______ _______ _____ _____    ______ ____
ROOT
ATOM      1  C   UNL     1       7.589   6.956  18.134  0.00  0.00    +0.000 A 
ATOM      2  C   UNL     1       7.116   6.738  16.859  0.00  0.00    +0.000 A 
ATOM      3  N   UNL     1       6.233   5.717  16.984  0.00  0.00    +0.000 N 
ATOM      4  C   UNL     1       6.166   5.338  18.298  0.00  0.00    +0.000 A 
ATOM      5  N   UNL     1       6.990   6.071  19.024  0.00  0.00    +0.000 NA
ATOM      6  C   UNL     1       5.304   4.181  18.723  0.00  0.00    +0.000 C 
ATOM      7  N   UNL     1       4.273   3.837  17.711  0.00  0.00    +0.000 NA
ATOM      8  C   UNL     1       4.888   3.759  16.368  0.00  0.00    +0.000 C 
ATOM      9  C   UNL     1       5.450   5.110  15.932  0.00  0.00    +0.000 C 
ENDROOT
BRANCH   1  10
ATOM     10  C   UNL     1       8.603   7.967  18.580  0.00  0.00    +0.000 C 
BRANCH  10  15
ATOM     11  C   UNL     1       9.975  12.831  19.540  0.00  0.00    +0.000 A 
ATOM     12  C   UNL     1      10.126  11.686  20.305  0.00  0.00    +0.000 A 
ATOM     13  C   UNL     1       9.614  10.477  19.834  0.00  0.00    +0.000 A 
ATOM     14  C   UNL     1       8.967  10.434  18.603  0.00  0.00    +0.000 A 
ATOM     15  N   UNL     1       8.381   9.311  18.090  0.00  0.00    +0.000 N 
ATOM     16  N   UNL     1       8.827  11.545  17.850  0.00  0.00    +0.000 NA
ATOM     17  C   UNL     1       9.324  12.709  18.328  0.00  0.00    +0.000 A 
ATOM     18  H   UNL     1       8.095   9.417  17.125  0.00  0.00    +0.000 HD
ENDBRANCH  10  15
ENDBRANCH   1  10
BRANCH   7  19
ATOM     19  C   UNL     1       3.609   2.562  18.076  0.00  0.00    +0.000 C 
BRANCH  19  20
ATOM     20  C   UNL     1       2.592   2.734  19.186  0.00  0.00    +0.000 A 
ATOM     21  N   UNL     1       1.358   3.163  18.990  0.00  0.00    +0.000 NA
ATOM     22  C   UNL     1       0.744   3.385  20.206  0.00  0.00    +0.000 A 
ATOM     23  C   UNL     1       1.493   3.066  21.316  0.00  0.00    +0.000 A 
ATOM     24  S   UNL     1       3.028   2.478  20.831  0.00  0.00    +0.000 S 
ENDBRANCH  19  20
ENDBRANCH   7  19
TORSDOF 4
ENDMDL
MODEL 4
REMARK VINA RESULT:      -7.2      5.334      7.220
REMARK  Name = 
REMARK  4 active torsions:
REMARK  status: ('A' for Active; 'I' for Inactive)
REMARK    1  A    between atoms: N_5  and  C_6
REMARK    2  A    between atoms: C_6  and  C_7
REMARK    3  A    between atoms: N_13  and  C_14
REMARK    4  A    between atoms: C_14  and  C_15
REMARK                            x       y       z     vdW  Elec       q    Type
REMARK                         _______ _______ _______ _____ _____    ______ ____
ROOT
ATOM      1  C   UNL     1       3.986   5.575  18.420  0.00  0.00    +0.000 A 
ATOM      2  C   UNL     1       3.289   5.645  19.606  0.00  0.00    +0.000 A 
ATOM      3  N   UNL     1       2.585   6.802  19.530  0.00  0.00    +0.000 N 
ATOM      4  C   UNL     1       2.841   7.405  18.327  0.00  0.00    +0.000 A 
ATOM      5  N   UNL     1       3.700   6.684  17.631  0.00  0.00    +0.000 NA
ATOM      6  C   UNL     1       2.237   8.740  17.993  0.00  0.00    +0.000 C 
ATOM      7  N   UNL     1       1.068   9.069  18.849  0.00  0.00    +0.000 NA
ATOM      8  C   UNL     1       1.395   8.816  20.270  0.00  0.00    +0.000 C 
ATOM      9  C   UNL     1       1.682   7.338  20.522  0.00  0.00    +0.000 C 
ENDROOT
BRANCH   1  10
ATOM     10  C   UNL     1       4.936   4.505  17.973  0.00  0.00    +0.000 C 
BRANCH  10  15
ATOM     11  C   UNL     1       6.887   4.462  13.213  0.00  0.00    +0.000 A 
ATOM     12  C   UNL     1       5.859   3.720  13.771  0.00  0.00    +0.000 A 
ATOM     13  C   UNL     1       5.551   3.885  15.120  0.00  0.00    +0.000 A 
ATOM     14  C   UNL     1       6.272   4.796  15.887  0.00  0.00    +0.000 A 
ATOM     15  N   UNL     1       6.083   4.980  17.228  0.00  0.00    +0.000 N 
ATOM     16  N   UNL     1       7.268   5.528  15.345  0.00  0.00    +0.000 NA
ATOM     17  C   UNL     1       7.556   5.347  14.036  0.00  0.00    +0.000 A 
ATOM     18  H   UNL     1       6.580   5.784  17.592  0.00  0.00    +0.000 HD
ENDBRANCH  10  15
ENDBRANCH   1  10
BRANCH   7  19
ATOM     19  C   UNL     1       0.659  10.477  18.631  0.00  0.00    +0.000 C 
BRANCH  19  20
ATOM     20  C   UNL     1      -0.803  10.606  18.254  0.00  0.00    +0.000 A 
ATOM     21  N   UNL     1      -1.396   9.851  17.346  0.00  0.00    +0.000 NA
ATOM     22  C   UNL     1      -2.667  10.330  17.100  0.00  0.00    +0.000 A 
ATOM     23  C   UNL     1      -3.053  11.407  17.866  0.00  0.00    +0.000 A 
ATOM     24  S   UNL     1      -1.782  11.852  18.925  0.00  0.00    +0.000 S 
ENDBRANCH  19  20
ENDBRANCH   7  19
TORSDOF 4
ENDMDL
MODEL 5
REMARK VINA RESULT:      -7.1      5.068      7.195
REMARK  Name = 
REMARK  4 active torsions:
REMARK  status: ('A' for Active; 'I' for Inactive)
REMARK    1  A    between atoms: N_5  and  C_6
REMARK    2  A    between atoms: C_6  and  C_7
REMARK    3  A    between atoms: N_13  and  C_14
REMARK    4  A    between atoms: C_14  and  C_15
REMARK                            x       y       z     vdW  Elec       q    Type
REMARK                         _______ _______ _______ _____ _____    ______ ____
ROOT
ATOM      1  C   UNL     1       3.520   5.215  18.942  0.00  0.00    +0.000 A 
ATOM      2  C   UNL     1       2.761   5.465  20.063  0.00  0.00    +0.000 A 
ATOM      3  N   UNL     1       2.247   6.705  19.868  0.00  0.00    +0.000 N 
ATOM      4  C   UNL     1       2.674   7.183  18.657  0.00  0.00    +0.000 A 
ATOM      5  N   UNL     1       3.461   6.299  18.073  0.00  0.00    +0.000 NA
ATOM      6  C   UNL     1       2.304   8.567  18.203  0.00  0.00    +0.000 C 
ATOM      7  N   UNL     1       1.142   9.119  18.944  0.00  0.00    +0.000 NA
ATOM      8  C   UNL     1       1.326   8.916  20.398  0.00  0.00    +0.000 C 
ATOM      9  C   UNL     1       1.368   7.433  20.754  0.00  0.00    +0.000 C 
ENDROOT
BRANCH   1  10
ATOM     10  C   UNL     1       4.327   3.990  18.632  0.00  0.00    +0.000 C 
BRANCH  10  15
ATOM     11  C   UNL     1       6.855   4.731  14.213  0.00  0.00    +0.000 A 
ATOM     12  C   UNL     1       5.577   4.251  14.448  0.00  0.00    +0.000 A 
ATOM     13  C   UNL     1       5.138   4.094  15.762  0.00  0.00    +0.000 A 
ATOM     14  C   UNL     1       5.983   4.427  16.817  0.00  0.00    +0.000 A 
ATOM     15  N   UNL     1       5.662   4.248  18.134  0.00  0.00    +0.000 N 
ATOM     16  N   UNL     1       7.225   4.903  16.592  0.00  0.00    +0.000 NA
ATOM     17  C   UNL     1       7.634   5.041  15.311  0.00  0.00    +0.000 A 
ATOM     18  H   UNL     1       6.322   4.684  18.766  0.00  0.00    +0.000 HD
ENDBRANCH  10  15
ENDBRANCH   1  10
BRANCH   7  19
ATOM     19  C   UNL     1       0.966  10.555  18.617  0.00  0.00    +0.000 C 
BRANCH  19  20
ATOM     20  C   UNL     1      -0.492  10.957  18.531  0.00  0.00    +0.000 A 
ATOM     21  N   UNL     1      -1.047  11.872  19.305  0.00  0.00    +0.000 NA
ATOM     22  C   UNL     1      -2.414  11.880  19.111  0.00  0.00    +0.000 A 
ATOM     23  C   UNL     1      -2.880  11.014  18.148  0.00  0.00    +0.000 A 
ATOM     24  S   UNL     1      -1.571  10.145  17.464  0.00  0.00    +0.000 S 
ENDBRANCH  19  20
ENDBRANCH   7  19
TORSDOF 4
ENDMDL
MODEL 6
REMARK VINA RESULT:      -7.1      1.343      1.926
REMARK  Name = 
REMARK  4 active torsions:
REMARK  status: ('A' for Active; 'I' for Inactive)
REMARK    1  A    between atoms: N_5  and  C_6
REMARK    2  A    between atoms: C_6  and  C_7
REMARK    3  A    between atoms: N_13  and  C_14
REMARK    4  A    between atoms: C_14  and  C_15
REMARK                            x       y       z     vdW  Elec       q    Type
REMARK                         _______ _______ _______ _____ _____    ______ ____
ROOT
ATOM      1  C   UNL     1       7.799   7.703  18.149  0.00  0.00    +0.000 A 
ATOM      2  C   UNL     1       6.914   7.851  17.104  0.00  0.00    +0.000 A 
ATOM      3  N   UNL     1       6.176   6.713  17.107  0.00  0.00    +0.000 N 
ATOM      4  C   UNL     1       6.596   5.908  18.133  0.00  0.00    +0.000 A 
ATOM      5  N   UNL     1       7.592   6.482  18.781  0.00  0.00    +0.000 NA
ATOM      6  C   UNL     1       5.991   4.548  18.341  0.00  0.00    +0.000 C 
ATOM      7  N   UNL     1       4.683   4.395  17.654  0.00  0.00    +0.000 NA
ATOM      8  C   UNL     1       4.783   4.879  16.260  0.00  0.00    +0.000 C 
ATOM      9  C   UNL     1       5.097   6.372  16.209  0.00  0.00    +0.000 C 
ENDROOT
BRANCH   1  10
ATOM     10  C   UNL     1       8.861   8.661  18.597  0.00  0.00    +0.000 C 
BRANCH  10  15
ATOM     11  C   UNL     1      10.856  13.350  19.302  0.00  0.00    +0.000 A 
ATOM     12  C   UNL     1      11.110  12.157  19.959  0.00  0.00    +0.000 A 
ATOM     13  C   UNL     1      10.387  11.018  19.607  0.00  0.00    +0.000 A 
ATOM     14  C   UNL     1       9.429  11.090  18.600  0.00  0.00    +0.000 A 
ATOM     15  N   UNL     1       8.631  10.043  18.232  0.00  0.00    +0.000 N 
ATOM     16  N   UNL     1       9.186  12.248  17.952  0.00  0.00    +0.000 NA
ATOM     17  C   UNL     1       9.892  13.344  18.313  0.00  0.00    +0.000 A 
ATOM     18  H   UNL     1       8.105  10.223  17.386  0.00  0.00    +0.000 HD
ENDBRANCH  10  15
ENDBRANCH   1  10
BRANCH   7  19
ATOM     19  C   UNL     1       4.246   2.978  17.704  0.00  0.00    +0.000 C 
BRANCH  19  20
ATOM     20  C   UNL     1       2.952   2.795  18.471  0.00  0.00    +0.000 A 
ATOM     21  N   UNL     1       1.824   2.385  17.920  0.00  0.00    +0.000 NA
ATOM     22  C   UNL     1       0.793   2.496  18.831  0.00  0.00    +0.000 A 
ATOM     23  C   UNL     1       1.155   2.933  20.085  0.00  0.00    +0.000 A 
ATOM     24  S   UNL     1       2.842   3.230  20.133  0.00  0.00    +0.000 S 
ENDBRANCH  19  20
ENDBRANCH   7  19
TORSDOF 4
ENDMDL
MODEL 7
REMARK VINA RESULT:      -7.1      4.976      7.544
REMARK  Name = 
REMARK  4 active torsions:
REMARK  status: ('A' for Active; 'I' for Inactive)
REMARK    1  A    between atoms: N_5  and  C_6
REMARK    2  A    between atoms: C_6  and  C_7
REMARK    3  A    between atoms: N_13  and  C_14
REMARK    4  A    between atoms: C_14  and  C_15
REMARK                            x       y       z     vdW  Elec       q    Type
REMARK                         _______ _______ _______ _____ _____    ______ ____
ROOT
ATOM      1  C   UNL     1       2.734   5.354  19.650  0.00  0.00    +0.000 A 
ATOM      2  C   UNL     1       2.051   5.795  20.762  0.00  0.00    +0.000 A 
ATOM      3  N   UNL     1       1.677   7.063  20.462  0.00  0.00    +0.000 N 
ATOM      4  C   UNL     1       2.111   7.374  19.201  0.00  0.00    +0.000 A 
ATOM      5  N   UNL     1       2.768   6.353  18.682  0.00  0.00    +0.000 NA
ATOM      6  C   UNL     1       1.886   8.744  18.625  0.00  0.00    +0.000 C 
ATOM      7  N   UNL     1       0.824   9.496  19.341  0.00  0.00    +0.000 NA
ATOM      8  C   UNL     1       1.039   9.408  20.802  0.00  0.00    +0.000 C 
ATOM      9  C   UNL     1       0.922   7.969  21.297  0.00  0.00    +0.000 C 
ENDROOT
BRANCH   1  10
ATOM     10  C   UNL     1       3.382   4.019  19.437  0.00  0.00    +0.000 C 
BRANCH  10  15
ATOM     11  C   UNL     1       7.035   4.458  15.841  0.00  0.00    +0.000 A 
ATOM     12  C   UNL     1       5.678   4.205  15.719  0.00  0.00    +0.000 A 
ATOM     13  C   UNL     1       4.900   4.081  16.870  0.00  0.00    +0.000 A 
ATOM     14  C   UNL     1       5.492   4.221  18.122  0.00  0.00    +0.000 A 
ATOM     15  N   UNL     1       4.823   4.054  19.303  0.00  0.00    +0.000 N 
ATOM     16  N   UNL     1       6.811   4.477  18.245  0.00  0.00    +0.000 NA
ATOM     17  C   UNL     1       7.549   4.586  17.117  0.00  0.00    +0.000 A 
ATOM     18  H   UNL     1       5.363   4.343  20.109  0.00  0.00    +0.000 HD
ENDBRANCH  10  15
ENDBRANCH   1  10
BRANCH   7  19
ATOM     19  C   UNL     1       0.803  10.906  18.882  0.00  0.00    +0.000 C 
BRANCH  19  20
ATOM     20  C   UNL     1      -0.560  11.548  19.039  0.00  0.00    +0.000 A 
ATOM     21  N   UNL     1      -0.813  12.537  19.878  0.00  0.00    +0.000 NA
ATOM     22  C   UNL     1      -2.172  12.776  19.921  0.00  0.00    +0.000 A 
ATOM     23  C   UNL     1      -2.935  12.008  19.071  0.00  0.00    +0.000 A 
ATOM     24  S   UNL     1      -1.927  10.938  18.190  0.00  0.00    +0.000 S 
ENDBRANCH  19  20
ENDBRANCH   7  19
TORSDOF 4
ENDMDL
MODEL 8
REMARK VINA RESULT:      -7.1      5.660      8.676
REMARK  Name = 
REMARK  4 active torsions:
REMARK  status: ('A' for Active; 'I' for Inactive)
REMARK    1  A    between atoms: N_5  and  C_6
REMARK    2  A    between atoms: C_6  and  C_7
REMARK    3  A    between atoms: N_13  and  C_14
REMARK    4  A    between atoms: C_14  and  C_15
REMARK                            x       y       z     vdW  Elec       q    Type
REMARK                         _______ _______ _______ _____ _____    ______ ____
ROOT
ATOM      1  C   UNL     1       2.879   7.497  18.317  0.00  0.00    +0.000 A 
ATOM      2  C   UNL     1       2.351   7.448  19.588  0.00  0.00    +0.000 A 
ATOM      3  N   UNL     1       1.483   8.489  19.646  0.00  0.00    +0.000 N 
ATOM      4  C   UNL     1       1.478   9.138  18.440  0.00  0.00    +0.000 A 
ATOM      5  N   UNL     1       2.328   8.561  17.611  0.00  0.00    +0.000 NA
ATOM      6  C   UNL     1       0.647  10.373  18.234  0.00  0.00    +0.000 C 
ATOM      7  N   UNL     1      -0.427  10.514  19.250  0.00  0.00    +0.000 NA
ATOM      8  C   UNL     1       0.128  10.295  20.605  0.00  0.00    +0.000 C 
ATOM      9  C   UNL     1       0.658   8.874  20.768  0.00  0.00    +0.000 C 
ENDROOT
BRANCH   1  10
ATOM     10  C   UNL     1       3.903   6.586  17.711  0.00  0.00    +0.000 C 
BRANCH  10  15
ATOM     11  C   UNL     1       3.081   1.560  18.443  0.00  0.00    +0.000 A 
ATOM     12  C   UNL     1       2.370   2.490  17.701  0.00  0.00    +0.000 A 
ATOM     13  C   UNL     1       2.777   3.823  17.706  0.00  0.00    +0.000 A 
ATOM     14  C   UNL     1       3.893   4.202  18.446  0.00  0.00    +0.000 A 
ATOM     15  N   UNL     1       4.328   5.493  18.561  0.00  0.00    +0.000 N 
ATOM     16  N   UNL     1       4.594   3.299  19.162  0.00  0.00    +0.000 NA
ATOM     17  C   UNL     1       4.178   2.011  19.151  0.00  0.00    +0.000 A 
ATOM     18  H   UNL     1       5.235   5.569  19.004  0.00  0.00    +0.000 HD
ENDBRANCH  10  15
ENDBRANCH   1  10
BRANCH   7  19
ATOM     19  C   UNL     1      -1.063  11.849  19.136  0.00  0.00    +0.000 C 
BRANCH  19  20
ATOM     20  C   UNL     1      -2.444  11.783  18.517  0.00  0.00    +0.000 A 
ATOM     21  N   UNL     1      -3.557  12.055  19.176  0.00  0.00    +0.000 NA
ATOM     22  C   UNL     1      -4.650  11.729  18.398  0.00  0.00    +0.000 A 
ATOM     23  C   UNL     1      -4.361  11.269  17.134  0.00  0.00    +0.000 A 
ATOM     24  S   UNL     1      -2.664  11.227  16.903  0.00  0.00    +0.000 S 
ENDBRANCH  19  20
ENDBRANCH   7  19
TORSDOF 4
ENDMDL
MODEL 9
REMARK VINA RESULT:      -7.0      6.247      9.429
REMARK  Name = 
REMARK  4 active torsions:
REMARK  status: ('A' for Active; 'I' for Inactive)
REMARK    1  A    between atoms: N_5  and  C_6
REMARK    2  A    between atoms: C_6  and  C_7
REMARK    3  A    between atoms: N_13  and  C_14
REMARK    4  A    between atoms: C_14  and  C_15
REMARK                            x       y       z     vdW  Elec       q    Type
REMARK                         _______ _______ _______ _____ _____    ______ ____
ROOT
ATOM      1  C   UNL     1       2.135   8.120  18.838  0.00  0.00    +0.000 A 
ATOM      2  C   UNL     1       1.477   9.226  18.348  0.00  0.00    +0.000 A 
ATOM      3  N   UNL     1       0.785   9.718  19.405  0.00  0.00    +0.000 N 
ATOM      4  C   UNL     1       1.030   8.938  20.504  0.00  0.00    +0.000 A 
ATOM      5  N   UNL     1       1.843   7.948  20.187  0.00  0.00    +0.000 NA
ATOM      6  C   UNL     1       0.344   9.216  21.813  0.00  0.00    +0.000 C 
ATOM      7  N   UNL     1      -0.212  10.591  21.884  0.00  0.00    +0.000 NA
ATOM      8  C   UNL     1      -0.971  10.895  20.651  0.00  0.00    +0.000 C 
ATOM      9  C   UNL     1      -0.065  10.886  19.422  0.00  0.00    +0.000 C 
ENDROOT
BRANCH   1  10
ATOM     10  C   UNL     1       3.040   7.183  18.095  0.00  0.00    +0.000 C 
BRANCH  10  15
ATOM     11  C   UNL     1       2.099   2.190  18.904  0.00  0.00    +0.000 A 
ATOM     12  C   UNL     1       1.335   3.159  18.275  0.00  0.00    +0.000 A 
ATOM     13  C   UNL     1       1.799   4.473  18.231  0.00  0.00    +0.000 A 
ATOM     14  C   UNL     1       3.023   4.793  18.810  0.00  0.00    +0.000 A 
ATOM     15  N   UNL     1       3.528   6.062  18.870  0.00  0.00    +0.000 N 
ATOM     16  N   UNL     1       3.775   3.851  19.416  0.00  0.00    +0.000 NA
ATOM     17  C   UNL     1       3.304   2.584  19.455  0.00  0.00    +0.000 A 
ATOM     18  H   UNL     1       4.491   6.092  19.184  0.00  0.00    +0.000 HD
ENDBRANCH  10  15
ENDBRANCH   1  10
BRANCH   7  19
ATOM     19  C   UNL     1      -1.063  10.733  23.091  0.00  0.00    +0.000 C 
BRANCH  19  20
ATOM     20  C   UNL     1      -1.879  12.009  23.080  0.00  0.00    +0.000 A 
ATOM     21  N   UNL     1      -3.199  12.037  23.113  0.00  0.00    +0.000 NA
ATOM     22  C   UNL     1      -3.643  13.328  22.908  0.00  0.00    +0.000 A 
ATOM     23  C   UNL     1      -2.658  14.280  22.780  0.00  0.00    +0.000 A 
ATOM     24  S   UNL     1      -1.116  13.543  22.908  0.00  0.00    +0.000 S 
ENDBRANCH  19  20
ENDBRANCH   7  19
TORSDOF 4
ENDMDL
