MODEL 1
REMARK VINA RESULT:      -7.5      0.000      0.000
REMARK  Name = 
REMARK  5 active torsions:
REMARK  status: ('A' for Active; 'I' for Inactive)
REMARK    1  A    between atoms: C_1  and  C_2
REMARK    2  A    between atoms: C_2  and  O_3
REMARK    3  A    between atoms: O_3  and  C_4
REMARK    4  A    between atoms: N_10  and  C_11
REMARK    5  A    between atoms: C_15  and  N_16
REMARK                            x       y       z     vdW  Elec       q    Type
REMARK                         _______ _______ _______ _____ _____    ______ ____
ROOT
ATOM      1  C   UNL     1       6.414   4.855  17.468  0.00  0.00    +0.000 C 
ATOM      2  C   UNL     1       5.552   4.251  18.578  0.00  0.00    +0.000 C 
ATOM      3  C   UNL     1       4.069   4.511  18.333  0.00  0.00    +0.000 C 
ATOM      4  N   UNL     1       3.800   5.941  18.164  0.00  0.00    +0.000 N 
ATOM      5  C   UNL     1       2.770   6.499  18.917  0.00  0.00    +0.000 C 
ATOM      6  O   UNL     1       2.200   5.837  19.780  0.00  0.00    +0.000 OA
ATOM      7  N   UNL     1       2.455   7.808  18.624  0.00  0.00    +0.000 N 
ATOM      8  C   UNL     1       4.588   6.587  17.113  0.00  0.00    +0.000 C 
ATOM      9  C   UNL     1       6.083   6.343  17.310  0.00  0.00    +0.000 C 
ATOM     10  H   UNL     1       2.682   8.128  17.702  0.00  0.00    +0.000 HD
ENDROOT
BRANCH   7  11
ATOM     11  C   UNL     1       1.534   8.615  19.339  0.00  0.00    +0.000 A 
ATOM     12  C   UNL     1       1.562   8.746  20.728  0.00  0.00    +0.000 A 
ATOM     13  C   UNL     1       0.609   9.518  21.382  0.00  0.00    +0.000 A 
ATOM     14  C   UNL     1      -0.378  10.167  20.645  0.00  0.00    +0.000 A 
ATOM     15  C   UNL     1      -0.441  10.066  19.245  0.00  0.00    +0.000 A 
ATOM     16  C   UNL     1       0.551   9.304  18.606  0.00  0.00    +0.000 A 
BRANCH  15  17
ATOM     17  N   UNL     1      -1.500  10.687  18.576  0.00  0.00    +0.000 N 
ATOM     18  C   UNL     1      -1.801  12.101  18.788  0.00  0.00    +0.000 C 
ATOM     19  C   UNL     1      -3.196  12.221  19.408  0.00  0.00    +0.000 C 
ATOM     20  C   UNL     1      -4.357  11.891  18.468  0.00  0.00    +0.000 C 
ATOM     21  C   UNL     1      -4.267  10.541  17.753  0.00  0.00    +0.000 C 
ATOM     22  C   UNL     1      -3.156  10.509  16.704  0.00  0.00    +0.000 C 
ATOM     23  C   UNL     1      -1.787  10.114  17.253  0.00  0.00    +0.000 C 
ENDBRANCH  15  17
ENDBRANCH   7  11
BRANCH   1  24
ATOM     24  O   UNL     1       6.184   4.107  16.267  0.00  0.00    +0.000 OA
BRANCH  24  26
ATOM     25  C   UNL     1       6.309   3.978  13.875  0.00  0.00    +0.000 C 
ATOM     26  C   UNL     1       6.861   4.633  15.127  0.00  0.00    +0.000 C 
ENDBRANCH  24  26
ENDBRANCH   1  24
TORSDOF 4
ENDMDL
MODEL 2
REMARK VINA RESULT:      -7.3      0.975      1.082
REMARK  Name = 
REMARK  5 active torsions:
REMARK  status: ('A' for Active; 'I' for Inactive)
REMARK    1  A    between atoms: C_1  and  C_2
REMARK    2  A    between atoms: C_2  and  O_3
REMARK    3  A    between atoms: O_3  and  C_4
REMARK    4  A    between atoms: N_10  and  C_11
REMARK    5  A    between atoms: C_15  and  N_16
REMARK                            x       y       z     vdW  Elec       q    Type
REMARK                         _______ _______ _______ _____ _____    ______ ____
ROOT
ATOM      1  C   UNL     1       5.792   4.387  17.976  0.00  0.00    +0.000 C 
ATOM      2  C   UNL     1       4.777   3.761  18.934  0.00  0.00    +0.000 C 
ATOM      3  C   UNL     1       3.371   4.296  18.679  0.00  0.00    +0.000 C 
ATOM      4  N   UNL     1       3.338   5.759  18.744  0.00  0.00    +0.000 N 
ATOM      5  C   UNL     1       2.360   6.349  19.541  0.00  0.00    +0.000 C 
ATOM      6  O   UNL     1       1.639   5.659  20.257  0.00  0.00    +0.000 OA
ATOM      7  N   UNL     1       2.270   7.722  19.462  0.00  0.00    +0.000 N 
ATOM      8  C   UNL     1       4.283   6.428  17.849  0.00  0.00    +0.000 C 
ATOM      9  C   UNL     1       5.707   5.915  18.059  0.00  0.00    +0.000 C 
ATOM     10  H   UNL     1       2.604   8.144  18.616  0.00  0.00    +0.000 HD
ENDROOT
BRANCH   7  11
ATOM     11  C   UNL     1       1.441   8.542  20.267  0.00  0.00    +0.000 A 
ATOM     12  C   UNL     1       1.416   8.459  21.659  0.00  0.00    +0.000 A 
ATOM     13  C   UNL     1       0.553   9.259  22.398  0.00  0.00    +0.000 A 
ATOM     14  C   UNL     1      -0.290  10.152  21.744  0.00  0.00    +0.000 A 
ATOM     15  C   UNL     1      -0.296  10.272  20.344  0.00  0.00    +0.000 A 
ATOM     16  C   UNL     1       0.607   9.474  19.623  0.00  0.00    +0.000 A 
BRANCH  15  17
ATOM     17  N   UNL     1      -1.218  11.139  19.749  0.00  0.00    +0.000 N 
ATOM     18  C   UNL     1      -1.418  12.494  20.260  0.00  0.00    +0.000 C 
ATOM     19  C   UNL     1      -2.856  12.623  20.768  0.00  0.00    +0.000 C 
ATOM     20  C   UNL     1      -3.932  12.640  19.679  0.00  0.00    +0.000 C 
ATOM     21  C   UNL     1      -3.881  11.484  18.679  0.00  0.00    +0.000 C 
ATOM     22  C   UNL     1      -2.669  11.567  17.751  0.00  0.00    +0.000 C 
ATOM     23  C   UNL     1      -1.407  10.912  18.309  0.00  0.00    +0.000 C 
ENDBRANCH  15  17
ENDBRANCH   7  11
BRANCH   1  24
ATOM     24  O   UNL     1       5.528   3.890  16.657  0.00  0.00    +0.000 OA
BRANCH  24  26
ATOM     25  C   UNL     1       5.930   4.075  14.300  0.00  0.00    +0.000 C 
ATOM     26  C   UNL     1       6.496   4.290  15.690  0.00  0.00    +0.000 C 
ENDBRANCH  24  26
ENDBRANCH   1  24
TORSDOF 4
ENDMDL
MODEL 3
REMARK VINA RESULT:      -7.3      3.462      4.972
REMARK  Name = 
REMARK  5 active torsions:
REMARK  status: ('A' for Active; 'I' for Inactive)
REMARK    1  A    between atoms: C_1  and  C_2
REMARK    2  A    between atoms: C_2  and  O_3
REMARK    3  A    between atoms: O_3  and  C_4
REMARK    4  A    between atoms: N_10  and  C_11
REMARK    5  A    between atoms: C_15  and  N_16
REMARK                            x       y       z     vdW  Elec       q    Type
REMARK                         _______ _______ _______ _____ _____    ______ ____
ROOT
ATOM      1  C   UNL     1       2.460   4.463  19.239  0.00  0.00    +0.000 C 
ATOM      2  C   UNL     1       2.668   5.124  17.875  0.00  0.00    +0.000 C 
ATOM      3  C   UNL     1       3.205   6.544  18.022  0.00  0.00    +0.000 C 
ATOM      4  N   UNL     1       2.340   7.354  18.883  0.00  0.00    +0.000 N 
ATOM      5  C   UNL     1       1.941   8.601  18.410  0.00  0.00    +0.000 C 
ATOM      6  O   UNL     1       2.204   8.945  17.261  0.00  0.00    +0.000 OA
ATOM      7  N   UNL     1       1.251   9.389  19.305  0.00  0.00    +0.000 N 
ATOM      8  C   UNL     1       2.100   6.784  20.210  0.00  0.00    +0.000 C 
ATOM      9  C   UNL     1       1.572   5.354  20.114  0.00  0.00    +0.000 C 
ATOM     10  H   UNL     1       1.411   9.208  20.278  0.00  0.00    +0.000 HD
ENDROOT
BRANCH   7  11
ATOM     11  C   UNL     1       0.642  10.635  19.010  0.00  0.00    +0.000 A 
ATOM     12  C   UNL     1      -0.683  10.749  18.589  0.00  0.00    +0.000 A 
ATOM     13  C   UNL     1      -1.218  11.993  18.272  0.00  0.00    +0.000 A 
ATOM     14  C   UNL     1      -0.425  13.132  18.379  0.00  0.00    +0.000 A 
ATOM     15  C   UNL     1       0.913  13.064  18.802  0.00  0.00    +0.000 A 
ATOM     16  C   UNL     1       1.419  11.799  19.145  0.00  0.00    +0.000 A 
BRANCH  15  17
ATOM     17  N   UNL     1       1.670  14.239  18.820  0.00  0.00    +0.000 N 
ATOM     18  C   UNL     1       1.179  15.444  19.484  0.00  0.00    +0.000 C 
ATOM     19  C   UNL     1       0.995  16.545  18.436  0.00  0.00    +0.000 C 
ATOM     20  C   UNL     1       2.292  17.125  17.867  0.00  0.00    +0.000 C 
ATOM     21  C   UNL     1       3.288  16.103  17.316  0.00  0.00    +0.000 C 
ATOM     22  C   UNL     1       3.925  15.255  18.417  0.00  0.00    +0.000 C 
ATOM     23  C   UNL     1       3.123  14.012  18.794  0.00  0.00    +0.000 C 
ENDBRANCH  15  17
ENDBRANCH   7  11
BRANCH   1  24
ATOM     24  O   UNL     1       3.749   4.227  19.822  0.00  0.00    +0.000 OA
BRANCH  24  26
ATOM     25  C   UNL     1       3.686   1.931  19.128  0.00  0.00    +0.000 C 
ATOM     26  C   UNL     1       4.499   3.211  19.159  0.00  0.00    +0.000 C 
ENDBRANCH  24  26
ENDBRANCH   1  24
TORSDOF 4
ENDMDL
MODEL 4
REMARK VINA RESULT:      -7.2      2.869      9.292
REMARK  Name = 
REMARK  5 active torsions:
REMARK  status: ('A' for Active; 'I' for Inactive)
REMARK    1  A    between atoms: C_1  and  C_2
REMARK    2  A    between atoms: C_2  and  O_3
REMARK    3  A    between atoms: O_3  and  C_4
REMARK    4  A    between atoms: N_10  and  C_11
REMARK    5  A    between atoms: C_15  and  N_16
REMARK                            x       y       z     vdW  Elec       q    Type
REMARK                         _______ _______ _______ _____ _____    ______ ____
ROOT
ATOM      1  C   UNL     1      -0.491  11.278  22.591  0.00  0.00    +0.000 C 
ATOM      2  C   UNL     1       0.385  11.440  21.347  0.00  0.00    +0.000 C 
ATOM      3  C   UNL     1       0.149  10.309  20.351  0.00  0.00    +0.000 C 
ATOM      4  N   UNL     1       0.344   8.999  20.977  0.00  0.00    +0.000 N 
ATOM      5  C   UNL     1       1.169   8.087  20.324  0.00  0.00    +0.000 C 
ATOM      6  O   UNL     1       1.805   8.423  19.328  0.00  0.00    +0.000 OA
ATOM      7  N   UNL     1       1.211   6.821  20.867  0.00  0.00    +0.000 N 
ATOM      8  C   UNL     1      -0.467   8.771  22.173  0.00  0.00    +0.000 C 
ATOM      9  C   UNL     1      -0.274   9.888  23.198  0.00  0.00    +0.000 C 
ATOM     10  H   UNL     1       0.414   6.538  21.405  0.00  0.00    +0.000 HD
ENDROOT
BRANCH   7  11
ATOM     11  C   UNL     1       2.069   5.772  20.451  0.00  0.00    +0.000 A 
ATOM     12  C   UNL     1       1.937   4.460  20.907  0.00  0.00    +0.000 A 
ATOM     13  C   UNL     1       2.832   3.478  20.498  0.00  0.00    +0.000 A 
ATOM     14  C   UNL     1       3.864   3.806  19.625  0.00  0.00    +0.000 A 
ATOM     15  C   UNL     1       4.033   5.113  19.137  0.00  0.00    +0.000 A 
ATOM     16  C   UNL     1       3.098   6.080  19.542  0.00  0.00    +0.000 A 
BRANCH  15  17
ATOM     17  N   UNL     1       5.132   5.386  18.318  0.00  0.00    +0.000 N 
ATOM     18  C   UNL     1       4.960   5.991  16.999  0.00  0.00    +0.000 C 
ATOM     19  C   UNL     1       5.445   5.003  15.936  0.00  0.00    +0.000 C 
ATOM     20  C   UNL     1       6.961   4.796  15.882  0.00  0.00    +0.000 C 
ATOM     21  C   UNL     1       7.626   4.433  17.211  0.00  0.00    +0.000 C 
ATOM     22  C   UNL     1       7.627   5.596  18.202  0.00  0.00    +0.000 C 
ATOM     23  C   UNL     1       6.366   5.690  19.058  0.00  0.00    +0.000 C 
ENDBRANCH  15  17
ENDBRANCH   7  11
BRANCH   1  24
ATOM     24  O   UNL     1      -1.855  11.507  22.210  0.00  0.00    +0.000 OA
BRANCH  24  26
ATOM     25  C   UNL     1      -3.592  12.724  23.329  0.00  0.00    +0.000 C 
ATOM     26  C   UNL     1      -2.320  12.821  22.510  0.00  0.00    +0.000 C 
ENDBRANCH  24  26
ENDBRANCH   1  24
TORSDOF 4
ENDMDL
MODEL 5
REMARK VINA RESULT:      -7.1      2.875      8.999
REMARK  Name = 
REMARK  5 active torsions:
REMARK  status: ('A' for Active; 'I' for Inactive)
REMARK    1  A    between atoms: C_1  and  C_2
REMARK    2  A    between atoms: C_2  and  O_3
REMARK    3  A    between atoms: O_3  and  C_4
REMARK    4  A    between atoms: N_10  and  C_11
REMARK    5  A    between atoms: C_15  and  N_16
REMARK                            x       y       z     vdW  Elec       q    Type
REMARK                         _______ _______ _______ _____ _____    ______ ____
ROOT
ATOM      1  C   UNL     1      -0.063  11.233  22.094  0.00  0.00    +0.000 C 
ATOM      2  C   UNL     1       0.949  11.242  20.946  0.00  0.00    +0.000 C 
ATOM      3  C   UNL     1       0.698  10.090  19.978  0.00  0.00    +0.000 C 
ATOM      4  N   UNL     1       0.689   8.801  20.674  0.00  0.00    +0.000 N 
ATOM      5  C   UNL     1       1.476   7.778  20.152  0.00  0.00    +0.000 C 
ATOM      6  O   UNL     1       2.243   7.997  19.218  0.00  0.00    +0.000 OA
ATOM      7  N   UNL     1       1.328   6.545  20.748  0.00  0.00    +0.000 N 
ATOM      8  C   UNL     1      -0.260   8.718  21.785  0.00  0.00    +0.000 C 
ATOM      9  C   UNL     1      -0.057   9.862  22.778  0.00  0.00    +0.000 C 
ATOM     10  H   UNL     1       0.455   6.372  21.209  0.00  0.00    +0.000 HD
ENDROOT
BRANCH   7  11
ATOM     11  C   UNL     1       2.109   5.395  20.470  0.00  0.00    +0.000 A 
ATOM     12  C   UNL     1       1.989   4.206  21.191  0.00  0.00    +0.000 A 
ATOM     13  C   UNL     1       2.809   3.121  20.903  0.00  0.00    +0.000 A 
ATOM     14  C   UNL     1       3.754   3.221  19.886  0.00  0.00    +0.000 A 
ATOM     15  C   UNL     1       3.907   4.397  19.133  0.00  0.00    +0.000 A 
ATOM     16  C   UNL     1       3.046   5.468  19.424  0.00  0.00    +0.000 A 
BRANCH  15  17
ATOM     17  N   UNL     1       4.923   4.451  18.174  0.00  0.00    +0.000 N 
ATOM     18  C   UNL     1       6.322   4.616  18.564  0.00  0.00    +0.000 C 
ATOM     19  C   UNL     1       6.838   5.943  18.002  0.00  0.00    +0.000 C 
ATOM     20  C   UNL     1       7.032   5.977  16.484  0.00  0.00    +0.000 C 
ATOM     21  C   UNL     1       5.822   5.545  15.654  0.00  0.00    +0.000 C 
ATOM     22  C   UNL     1       5.532   4.049  15.776  0.00  0.00    +0.000 C 
ATOM     23  C   UNL     1       4.635   3.679  16.956  0.00  0.00    +0.000 C 
ENDBRANCH  15  17
ENDBRANCH   7  11
BRANCH   1  24
ATOM     24  O   UNL     1      -1.348  11.578  21.560  0.00  0.00    +0.000 OA
BRANCH  24  26
ATOM     25  C   UNL     1      -1.221  13.334  23.189  0.00  0.00    +0.000 C 
ATOM     26  C   UNL     1      -2.133  12.386  22.434  0.00  0.00    +0.000 C 
ENDBRANCH  24  26
ENDBRANCH   1  24
TORSDOF 4
ENDMDL
MODEL 6
REMARK VINA RESULT:      -7.0      2.347      3.546
REMARK  Name = 
REMARK  5 active torsions:
REMARK  status: ('A' for Active; 'I' for Inactive)
REMARK    1  A    between atoms: C_1  and  C_2
REMARK    2  A    between atoms: C_2  and  O_3
REMARK    3  A    between atoms: O_3  and  C_4
REMARK    4  A    between atoms: N_10  and  C_11
REMARK    5  A    between atoms: C_15  and  N_16
REMARK                            x       y       z     vdW  Elec       q    Type
REMARK                         _______ _______ _______ _____ _____    ______ ____
ROOT
ATOM      1  C   UNL     1       2.717   4.575  19.150  0.00  0.00    +0.000 C 
ATOM      2  C   UNL     1       2.842   5.265  17.790  0.00  0.00    +0.000 C 
ATOM      3  C   UNL     1       3.272   6.720  17.944  0.00  0.00    +0.000 C 
ATOM      4  N   UNL     1       2.368   7.452  18.835  0.00  0.00    +0.000 N 
ATOM      5  C   UNL     1       1.864   8.670  18.387  0.00  0.00    +0.000 C 
ATOM      6  O   UNL     1       2.074   9.046  17.237  0.00  0.00    +0.000 OA
ATOM      7  N   UNL     1       1.137   9.392  19.308  0.00  0.00    +0.000 N 
ATOM      8  C   UNL     1       2.203   6.850  20.159  0.00  0.00    +0.000 C 
ATOM      9  C   UNL     1       1.784   5.385  20.056  0.00  0.00    +0.000 C 
ATOM     10  H   UNL     1       1.334   9.213  20.275  0.00  0.00    +0.000 HD
ENDROOT
BRANCH   7  11
ATOM     11  C   UNL     1       0.429  10.591  19.044  0.00  0.00    +0.000 A 
ATOM     12  C   UNL     1       1.057  11.831  18.924  0.00  0.00    +0.000 A 
ATOM     13  C   UNL     1       0.310  12.983  18.705  0.00  0.00    +0.000 A 
ATOM     14  C   UNL     1      -1.076  12.896  18.602  0.00  0.00    +0.000 A 
ATOM     15  C   UNL     1      -1.750  11.669  18.713  0.00  0.00    +0.000 A 
ATOM     16  C   UNL     1      -0.969  10.517  18.904  0.00  0.00    +0.000 A 
BRANCH  15  17
ATOM     17  N   UNL     1      -3.147  11.665  18.669  0.00  0.00    +0.000 N 
ATOM     18  C   UNL     1      -3.875  10.695  17.855  0.00  0.00    +0.000 C 
ATOM     19  C   UNL     1      -4.655  11.445  16.772  0.00  0.00    +0.000 C 
ATOM     20  C   UNL     1      -5.857  12.249  17.274  0.00  0.00    +0.000 C 
ATOM     21  C   UNL     1      -5.569  13.224  18.417  0.00  0.00    +0.000 C 
ATOM     22  C   UNL     1      -5.255  12.509  19.731  0.00  0.00    +0.000 C 
ATOM     23  C   UNL     1      -3.784  12.139  19.907  0.00  0.00    +0.000 C 
ENDBRANCH  15  17
ENDBRANCH   7  11
BRANCH   1  24
ATOM     24  O   UNL     1       4.033   4.431  19.700  0.00  0.00    +0.000 OA
BRANCH  24  26
ATOM     25  C   UNL     1       3.456   2.132  19.330  0.00  0.00    +0.000 C 
ATOM     26  C   UNL     1       4.583   3.126  19.534  0.00  0.00    +0.000 C 
ENDBRANCH  24  26
ENDBRANCH   1  24
TORSDOF 4
ENDMDL
MODEL 7
REMARK VINA RESULT:      -7.0      3.232      9.474
REMARK  Name = 
REMARK  5 active torsions:
REMARK  status: ('A' for Active; 'I' for Inactive)
REMARK    1  A    between atoms: C_1  and  C_2
REMARK    2  A    between atoms: C_2  and  O_3
REMARK    3  A    between atoms: O_3  and  C_4
REMARK    4  A    between atoms: N_10  and  C_11
REMARK    5  A    between atoms: C_15  and  N_16
REMARK                            x       y       z     vdW  Elec       q    Type
REMARK                         _______ _______ _______ _____ _____    ______ ____
ROOT
ATOM      1  C   UNL     1      -1.721  13.579  21.695  0.00  0.00    +0.000 C 
ATOM      2  C   UNL     1      -1.832  13.404  20.179  0.00  0.00    +0.000 C 
ATOM      3  C   UNL     1      -1.979  11.934  19.800  0.00  0.00    +0.000 C 
ATOM      4  N   UNL     1      -0.888  11.129  20.353  0.00  0.00    +0.000 N 
ATOM      5  C   UNL     1      -0.212  10.273  19.488  0.00  0.00    +0.000 C 
ATOM      6  O   UNL     1      -0.445  10.294  18.282  0.00  0.00    +0.000 OA
ATOM      7  N   UNL     1       0.707   9.431  20.075  0.00  0.00    +0.000 N 
ATOM      8  C   UNL     1      -0.725  11.244  21.803  0.00  0.00    +0.000 C 
ATOM      9  C   UNL     1      -0.586  12.703  22.234  0.00  0.00    +0.000 C 
ATOM     10  H   UNL     1       0.562   9.214  21.043  0.00  0.00    +0.000 HD
ENDROOT
BRANCH   7  11
ATOM     11  C   UNL     1       1.595   8.568  19.385  0.00  0.00    +0.000 A 
ATOM     12  C   UNL     1       2.256   8.941  18.214  0.00  0.00    +0.000 A 
ATOM     13  C   UNL     1       3.085   8.041  17.554  0.00  0.00    +0.000 A 
ATOM     14  C   UNL     1       3.257   6.759  18.067  0.00  0.00    +0.000 A 
ATOM     15  C   UNL     1       2.614   6.341  19.244  0.00  0.00    +0.000 A 
ATOM     16  C   UNL     1       1.806   7.279  19.908  0.00  0.00    +0.000 A 
BRANCH  15  17
ATOM     17  N   UNL     1       2.777   5.017  19.664  0.00  0.00    +0.000 N 
ATOM     18  C   UNL     1       4.059   4.331  19.516  0.00  0.00    +0.000 C 
ATOM     19  C   UNL     1       3.878   3.148  18.561  0.00  0.00    +0.000 C 
ATOM     20  C   UNL     1       3.068   1.976  19.122  0.00  0.00    +0.000 C 
ATOM     21  C   UNL     1       1.699   2.336  19.703  0.00  0.00    +0.000 C 
ATOM     22  C   UNL     1       1.806   3.134  21.002  0.00  0.00    +0.000 C 
ATOM     23  C   UNL     1       1.925   4.643  20.802  0.00  0.00    +0.000 C 
ENDBRANCH  15  17
ENDBRANCH   7  11
BRANCH   1  24
ATOM     24  O   UNL     1      -2.992  13.256  22.275  0.00  0.00    +0.000 OA
BRANCH  24  26
ATOM     25  C   UNL     1      -3.041  15.210  23.667  0.00  0.00    +0.000 C 
ATOM     26  C   UNL     1      -3.133  13.697  23.624  0.00  0.00    +0.000 C 
ENDBRANCH  24  26
ENDBRANCH   1  24
TORSDOF 4
ENDMDL
MODEL 8
REMARK VINA RESULT:      -6.9      2.374      3.042
REMARK  Name = 
REMARK  5 active torsions:
REMARK  status: ('A' for Active; 'I' for Inactive)
REMARK    1  A    between atoms: C_1  and  C_2
REMARK    2  A    between atoms: C_2  and  O_3
REMARK    3  A    between atoms: O_3  and  C_4
REMARK    4  A    between atoms: N_10  and  C_11
REMARK    5  A    between atoms: C_15  and  N_16
REMARK                            x       y       z     vdW  Elec       q    Type
REMARK                         _______ _______ _______ _____ _____    ______ ____
ROOT
ATOM      1  C   UNL     1       2.682   3.806  18.955  0.00  0.00    +0.000 C 
ATOM      2  C   UNL     1       2.873   5.008  18.028  0.00  0.00    +0.000 C 
ATOM      3  C   UNL     1       3.244   6.261  18.814  0.00  0.00    +0.000 C 
ATOM      4  N   UNL     1       2.260   6.543  19.862  0.00  0.00    +0.000 N 
ATOM      5  C   UNL     1       1.746   7.835  19.937  0.00  0.00    +0.000 C 
ATOM      6  O   UNL     1       2.018   8.665  19.073  0.00  0.00    +0.000 OA
ATOM      7  N   UNL     1       0.937   8.097  21.021  0.00  0.00    +0.000 N 
ATOM      8  C   UNL     1       2.028   5.436  20.792  0.00  0.00    +0.000 C 
ATOM      9  C   UNL     1       1.665   4.152  20.048  0.00  0.00    +0.000 C 
ATOM     10  H   UNL     1       1.076   7.525  21.832  0.00  0.00    +0.000 HD
ENDROOT
BRANCH   7  11
ATOM     11  C   UNL     1       0.208   9.293  21.237  0.00  0.00    +0.000 A 
ATOM     12  C   UNL     1       0.186   9.954  22.466  0.00  0.00    +0.000 A 
ATOM     13  C   UNL     1      -0.580  11.102  22.635  0.00  0.00    +0.000 A 
ATOM     14  C   UNL     1      -1.326  11.597  21.570  0.00  0.00    +0.000 A 
ATOM     15  C   UNL     1      -1.331  10.966  20.315  0.00  0.00    +0.000 A 
ATOM     16  C   UNL     1      -0.526   9.825  20.162  0.00  0.00    +0.000 A 
BRANCH  15  17
ATOM     17  N   UNL     1      -2.158  11.478  19.310  0.00  0.00    +0.000 N 
ATOM     18  C   UNL     1      -3.016  12.634  19.555  0.00  0.00    +0.000 C 
ATOM     19  C   UNL     1      -4.478  12.204  19.410  0.00  0.00    +0.000 C 
ATOM     20  C   UNL     1      -4.928  11.900  17.978  0.00  0.00    +0.000 C 
ATOM     21  C   UNL     1      -4.058  10.904  17.209  0.00  0.00    +0.000 C 
ATOM     22  C   UNL     1      -2.684  11.476  16.860  0.00  0.00    +0.000 C 
ATOM     23  C   UNL     1      -1.632  11.287  17.951  0.00  0.00    +0.000 C 
ENDBRANCH  15  17
ENDBRANCH   7  11
BRANCH   1  24
ATOM     24  O   UNL     1       3.963   3.444  19.487  0.00  0.00    +0.000 OA
BRANCH  24  26
ATOM     25  C   UNL     1       3.633   1.329  18.405  0.00  0.00    +0.000 C 
ATOM     26  C   UNL     1       4.142   2.039  19.645  0.00  0.00    +0.000 C 
ENDBRANCH  24  26
ENDBRANCH   1  24
TORSDOF 4
ENDMDL
MODEL 9
REMARK VINA RESULT:      -6.9      3.035      4.594
REMARK  Name = 
REMARK  5 active torsions:
REMARK  status: ('A' for Active; 'I' for Inactive)
REMARK    1  A    between atoms: C_1  and  C_2
REMARK    2  A    between atoms: C_2  and  O_3
REMARK    3  A    between atoms: O_3  and  C_4
REMARK    4  A    between atoms: N_10  and  C_11
REMARK    5  A    between atoms: C_15  and  N_16
REMARK                            x       y       z     vdW  Elec       q    Type
REMARK                         _______ _______ _______ _____ _____    ______ ____
ROOT
ATOM      1  C   UNL     1       3.040   4.695  19.044  0.00  0.00    +0.000 C 
ATOM      2  C   UNL     1       3.203   5.430  17.711  0.00  0.00    +0.000 C 
ATOM      3  C   UNL     1       3.500   6.910  17.927  0.00  0.00    +0.000 C 
ATOM      4  N   UNL     1       2.479   7.542  18.766  0.00  0.00    +0.000 N 
ATOM      5  C   UNL     1       1.909   8.728  18.310  0.00  0.00    +0.000 C 
ATOM      6  O   UNL     1       2.167   9.151  17.186  0.00  0.00    +0.000 OA
ATOM      7  N   UNL     1       1.062   9.364  19.191  0.00  0.00    +0.000 N 
ATOM      8  C   UNL     1       2.271   6.894  20.062  0.00  0.00    +0.000 C 
ATOM      9  C   UNL     1       1.982   5.402  19.898  0.00  0.00    +0.000 C 
ATOM     10  H   UNL     1       1.205   9.175  20.165  0.00  0.00    +0.000 HD
ENDROOT
BRANCH   7  11
ATOM     11  C   UNL     1       0.278  10.509  18.902  0.00  0.00    +0.000 A 
ATOM     12  C   UNL     1      -0.981  10.433  18.305  0.00  0.00    +0.000 A 
ATOM     13  C   UNL     1      -1.690  11.590  18.005  0.00  0.00    +0.000 A 
ATOM     14  C   UNL     1      -1.140  12.833  18.304  0.00  0.00    +0.000 A 
ATOM     15  C   UNL     1       0.123  12.957  18.907  0.00  0.00    +0.000 A 
ATOM     16  C   UNL     1       0.805  11.772  19.227  0.00  0.00    +0.000 A 
BRANCH  15  17
ATOM     17  N   UNL     1       0.644  14.238  19.116  0.00  0.00    +0.000 N 
ATOM     18  C   UNL     1      -0.211  15.338  19.554  0.00  0.00    +0.000 C 
ATOM     19  C   UNL     1      -0.233  16.411  18.463  0.00  0.00    +0.000 C 
ATOM     20  C   UNL     1       1.068  17.201  18.299  0.00  0.00    +0.000 C 
ATOM     21  C   UNL     1       2.333  16.360  18.116  0.00  0.00    +0.000 C 
ATOM     22  C   UNL     1       2.724  15.608  19.389  0.00  0.00    +0.000 C 
ATOM     23  C   UNL     1       2.050  14.246  19.544  0.00  0.00    +0.000 C 
ENDBRANCH  15  17
ENDBRANCH   7  11
BRANCH   1  24
ATOM     24  O   UNL     1       4.322   4.643  19.684  0.00  0.00    +0.000 OA
BRANCH  24  26
ATOM     25  C   UNL     1       6.562   5.219  19.050  0.00  0.00    +0.000 C 
ATOM     26  C   UNL     1       5.387   4.292  18.804  0.00  0.00    +0.000 C 
ENDBRANCH  24  26
ENDBRANCH   1  24
TORSDOF 4
ENDMDL
