MODEL 1
REMARK VINA RESULT:      -8.4      0.000      0.000
REMARK  Name = 
REMARK  11 active torsions:
REMARK  status: ('A' for Active; 'I' for Inactive)
REMARK    1  A    between atoms: C_1  and  C_2
REMARK    2  A    between atoms: C_2  and  C_3
REMARK    3  A    between atoms: C_3  and  C_4
REMARK    4  A    between atoms: C_4  and  C_5
REMARK    5  A    between atoms: C_5  and  C_6
REMARK    6  A    between atoms: C_6  and  C_7
REMARK    7  A    between atoms: C_7  and  C_8
REMARK    8  A    between atoms: C_8  and  S_9
REMARK    9  A    between atoms: S_9  and  C_10
REMARK   10  A    between atoms: C_12  and  C_13
REMARK   11  A    between atoms: C_19  and  C_20
REMARK                            x       y       z     vdW  Elec       q    Type
REMARK                         _______ _______ _______ _____ _____    ______ ____
ROOT
ATOM      1  C   UNL     1       5.473   5.296  16.777  0.00  0.00    +0.000 A 
ATOM      2  C   UNL     1       4.613   4.627  17.632  0.00  0.00    +0.000 A 
ATOM      3  C   UNL     1       3.560   5.297  18.283  0.00  0.00    +0.000 A 
ATOM      4  C   UNL     1       3.447   6.680  18.041  0.00  0.00    +0.000 A 
ATOM      5  N   UNL     1       4.300   7.298  17.175  0.00  0.00    +0.000 NA
ATOM      6  N   UNL     1       5.315   6.605  16.541  0.00  0.00    +0.000 NA
ENDROOT
BRANCH   3   7
ATOM      7  C   UNL     1       2.656   4.488  19.145  0.00  0.00    +0.000 A 
ATOM      8  C   UNL     1       2.933   4.315  20.514  0.00  0.00    +0.000 A 
ATOM      9  C   UNL     1       2.087   3.568  21.339  0.00  0.00    +0.000 A 
ATOM     10  C   UNL     1       0.924   3.005  20.819  0.00  0.00    +0.000 A 
ATOM     11  C   UNL     1       0.631   3.151  19.468  0.00  0.00    +0.000 A 
ATOM     12  C   UNL     1       1.509   3.855  18.633  0.00  0.00    +0.000 A 
ENDBRANCH   3   7
BRANCH   4  13
ATOM     13  C   UNL     1       2.435   7.589  18.648  0.00  0.00    +0.000 A 
ATOM     14  C   UNL     1       1.789   8.596  17.913  0.00  0.00    +0.000 A 
ATOM     15  C   UNL     1       0.966   9.547  18.530  0.00  0.00    +0.000 A 
ATOM     16  C   UNL     1       0.706   9.459  19.892  0.00  0.00    +0.000 A 
ATOM     17  C   UNL     1       1.256   8.417  20.632  0.00  0.00    +0.000 A 
ATOM     18  C   UNL     1       2.115   7.495  20.018  0.00  0.00    +0.000 A 
ENDBRANCH   4  13
BRANCH   1  19
ATOM     19  S   UNL     1       6.786   4.360  16.026  0.00  0.00    +0.000 S 
BRANCH  19  20
ATOM     20  C   UNL     1       6.908   5.119  14.373  0.00  0.00    +0.000 C 
BRANCH  20  21
ATOM     21  C   UNL     1       6.841   3.986  13.347  0.00  0.00    +0.000 C 
BRANCH  21  22
ATOM     22  C   UNL     1       5.430   3.787  12.793  0.00  0.00    +0.000 C 
BRANCH  22  23
ATOM     23  C   UNL     1       5.399   2.613  11.811  0.00  0.00    +0.000 C 
BRANCH  23  24
ATOM     24  C   UNL     1       4.088   2.574  11.027  0.00  0.00    +0.000 C 
BRANCH  24  25
ATOM     25  C   UNL     1       3.662   3.979  10.593  0.00  0.00    +0.000 C 
BRANCH  25  27
ATOM     26  C   UNL     1       2.478   5.162   8.711  0.00  0.00    +0.000 C 
ATOM     27  C   UNL     1       2.511   3.922   9.590  0.00  0.00    +0.000 C 
ENDBRANCH  25  27
ENDBRANCH  24  25
ENDBRANCH  23  24
ENDBRANCH  22  23
ENDBRANCH  21  22
ENDBRANCH  20  21
ENDBRANCH  19  20
ENDBRANCH   1  19
TORSDOF 10
ENDMDL
MODEL 2
REMARK VINA RESULT:      -8.0      0.597      1.444
REMARK  Name = 
REMARK  11 active torsions:
REMARK  status: ('A' for Active; 'I' for Inactive)
REMARK    1  A    between atoms: C_1  and  C_2
REMARK    2  A    between atoms: C_2  and  C_3
REMARK    3  A    between atoms: C_3  and  C_4
REMARK    4  A    between atoms: C_4  and  C_5
REMARK    5  A    between atoms: C_5  and  C_6
REMARK    6  A    between atoms: C_6  and  C_7
REMARK    7  A    between atoms: C_7  and  C_8
REMARK    8  A    between atoms: C_8  and  S_9
REMARK    9  A    between atoms: S_9  and  C_10
REMARK   10  A    between atoms: C_12  and  C_13
REMARK   11  A    between atoms: C_19  and  C_20
REMARK                            x       y       z     vdW  Elec       q    Type
REMARK                         _______ _______ _______ _____ _____    ______ ____
ROOT
ATOM      1  C   UNL     1       5.438   5.462  16.639  0.00  0.00    +0.000 A 
ATOM      2  C   UNL     1       4.564   4.830  17.508  0.00  0.00    +0.000 A 
ATOM      3  C   UNL     1       3.538   5.541  18.159  0.00  0.00    +0.000 A 
ATOM      4  C   UNL     1       3.466   6.924  17.900  0.00  0.00    +0.000 A 
ATOM      5  N   UNL     1       4.332   7.504  17.021  0.00  0.00    +0.000 NA
ATOM      6  N   UNL     1       5.320   6.772  16.388  0.00  0.00    +0.000 NA
ENDROOT
BRANCH   3   7
ATOM      7  C   UNL     1       2.615   4.771  19.037  0.00  0.00    +0.000 A 
ATOM      8  C   UNL     1       1.535   4.054  18.490  0.00  0.00    +0.000 A 
ATOM      9  C   UNL     1       0.666   3.316  19.300  0.00  0.00    +0.000 A 
ATOM     10  C   UNL     1       0.881   3.251  20.674  0.00  0.00    +0.000 A 
ATOM     11  C   UNL     1       1.934   3.958  21.243  0.00  0.00    +0.000 A 
ATOM     12  C   UNL     1       2.770   4.739  20.434  0.00  0.00    +0.000 A 
ENDBRANCH   3   7
BRANCH   4  13
ATOM     13  C   UNL     1       2.488   7.872  18.503  0.00  0.00    +0.000 A 
ATOM     14  C   UNL     1       2.141   7.832  19.863  0.00  0.00    +0.000 A 
ATOM     15  C   UNL     1       1.104   8.616  20.383  0.00  0.00    +0.000 A 
ATOM     16  C   UNL     1       0.443   9.523  19.563  0.00  0.00    +0.000 A 
ATOM     17  C   UNL     1       0.827   9.655  18.233  0.00  0.00    +0.000 A 
ATOM     18  C   UNL     1       1.835   8.835  17.707  0.00  0.00    +0.000 A 
ENDBRANCH   4  13
BRANCH   1  19
ATOM     19  S   UNL     1       6.716   4.475  15.890  0.00  0.00    +0.000 S 
BRANCH  19  20
ATOM     20  C   UNL     1       5.949   3.980  14.312  0.00  0.00    +0.000 C 
BRANCH  20  21
ATOM     21  C   UNL     1       7.028   4.081  13.232  0.00  0.00    +0.000 C 
BRANCH  21  22
ATOM     22  C   UNL     1       6.521   3.628  11.862  0.00  0.00    +0.000 C 
BRANCH  22  23
ATOM     23  C   UNL     1       4.996   3.742  11.789  0.00  0.00    +0.000 C 
BRANCH  23  24
ATOM     24  C   UNL     1       4.376   2.524  11.106  0.00  0.00    +0.000 C 
BRANCH  24  25
ATOM     25  C   UNL     1       3.098   2.903  10.354  0.00  0.00    +0.000 C 
BRANCH  25  27
ATOM     26  C   UNL     1       2.711   4.682   8.613  0.00  0.00    +0.000 C 
ATOM     27  C   UNL     1       3.049   4.403  10.068  0.00  0.00    +0.000 C 
ENDBRANCH  25  27
ENDBRANCH  24  25
ENDBRANCH  23  24
ENDBRANCH  22  23
ENDBRANCH  21  22
ENDBRANCH  20  21
ENDBRANCH  19  20
ENDBRANCH   1  19
TORSDOF 10
ENDMDL
MODEL 3
REMARK VINA RESULT:      -8.0      0.557      1.092
REMARK  Name = 
REMARK  11 active torsions:
REMARK  status: ('A' for Active; 'I' for Inactive)
REMARK    1  A    between atoms: C_1  and  C_2
REMARK    2  A    between atoms: C_2  and  C_3
REMARK    3  A    between atoms: C_3  and  C_4
REMARK    4  A    between atoms: C_4  and  C_5
REMARK    5  A    between atoms: C_5  and  C_6
REMARK    6  A    between atoms: C_6  and  C_7
REMARK    7  A    between atoms: C_7  and  C_8
REMARK    8  A    between atoms: C_8  and  S_9
REMARK    9  A    between atoms: S_9  and  C_10
REMARK   10  A    between atoms: C_12  and  C_13
REMARK   11  A    between atoms: C_19  and  C_20
REMARK                            x       y       z     vdW  Elec       q    Type
REMARK                         _______ _______ _______ _____ _____    ______ ____
ROOT
ATOM      1  C   UNL     1       5.756   5.486  17.066  0.00  0.00    +0.000 A 
ATOM      2  C   UNL     1       4.840   4.822  17.866  0.00  0.00    +0.000 A 
ATOM      3  C   UNL     1       3.711   5.480  18.387  0.00  0.00    +0.000 A 
ATOM      4  C   UNL     1       3.578   6.848  18.074  0.00  0.00    +0.000 A 
ATOM      5  N   UNL     1       4.489   7.460  17.266  0.00  0.00    +0.000 NA
ATOM      6  N   UNL     1       5.580   6.778  16.758  0.00  0.00    +0.000 NA
ENDROOT
BRANCH   3   7
ATOM      7  C   UNL     1       2.755   4.676  19.195  0.00  0.00    +0.000 A 
ATOM      8  C   UNL     1       1.704   3.975  18.577  0.00  0.00    +0.000 A 
ATOM      9  C   UNL     1       0.805   3.205  19.321  0.00  0.00    +0.000 A 
ATOM     10  C   UNL     1       0.960   3.092  20.700  0.00  0.00    +0.000 A 
ATOM     11  C   UNL     1       1.984   3.781  21.339  0.00  0.00    +0.000 A 
ATOM     12  C   UNL     1       2.850   4.595  20.596  0.00  0.00    +0.000 A 
ENDBRANCH   3   7
BRANCH   4  13
ATOM     13  C   UNL     1       2.486   7.745  18.545  0.00  0.00    +0.000 A 
ATOM     14  C   UNL     1       1.810   8.625  17.684  0.00  0.00    +0.000 A 
ATOM     15  C   UNL     1       0.903   9.577  18.167  0.00  0.00    +0.000 A 
ATOM     16  C   UNL     1       0.591   9.613  19.520  0.00  0.00    +0.000 A 
ATOM     17  C   UNL     1       1.173   8.693  20.386  0.00  0.00    +0.000 A 
ATOM     18  C   UNL     1       2.114   7.772  19.905  0.00  0.00    +0.000 A 
ENDBRANCH   4  13
BRANCH   1  19
ATOM     19  S   UNL     1       7.163   4.566  16.481  0.00  0.00    +0.000 S 
BRANCH  19  20
ATOM     20  C   UNL     1       7.015   4.740  14.673  0.00  0.00    +0.000 C 
BRANCH  20  21
ATOM     21  C   UNL     1       5.799   3.920  14.235  0.00  0.00    +0.000 C 
BRANCH  21  22
ATOM     22  C   UNL     1       5.835   3.580  12.745  0.00  0.00    +0.000 C 
BRANCH  22  23
ATOM     23  C   UNL     1       4.416   3.516  12.174  0.00  0.00    +0.000 C 
BRANCH  23  24
ATOM     24  C   UNL     1       4.426   3.528  10.646  0.00  0.00    +0.000 C 
BRANCH  24  25
ATOM     25  C   UNL     1       3.079   3.073  10.081  0.00  0.00    +0.000 C 
BRANCH  25  27
ATOM     26  C   UNL     1       2.891   4.988   8.455  0.00  0.00    +0.000 C 
ATOM     27  C   UNL     1       2.240   4.265   9.623  0.00  0.00    +0.000 C 
ENDBRANCH  25  27
ENDBRANCH  24  25
ENDBRANCH  23  24
ENDBRANCH  22  23
ENDBRANCH  21  22
ENDBRANCH  20  21
ENDBRANCH  19  20
ENDBRANCH   1  19
TORSDOF 10
ENDMDL
MODEL 4
REMARK VINA RESULT:      -7.8      1.088      3.665
REMARK  Name = 
REMARK  11 active torsions:
REMARK  status: ('A' for Active; 'I' for Inactive)
REMARK    1  A    between atoms: C_1  and  C_2
REMARK    2  A    between atoms: C_2  and  C_3
REMARK    3  A    between atoms: C_3  and  C_4
REMARK    4  A    between atoms: C_4  and  C_5
REMARK    5  A    between atoms: C_5  and  C_6
REMARK    6  A    between atoms: C_6  and  C_7
REMARK    7  A    between atoms: C_7  and  C_8
REMARK    8  A    between atoms: C_8  and  S_9
REMARK    9  A    between atoms: S_9  and  C_10
REMARK   10  A    between atoms: C_12  and  C_13
REMARK   11  A    between atoms: C_19  and  C_20
REMARK                            x       y       z     vdW  Elec       q    Type
REMARK                         _______ _______ _______ _____ _____    ______ ____
ROOT
ATOM      1  C   UNL     1       5.110   5.502  16.277  0.00  0.00    +0.000 A 
ATOM      2  C   UNL     1       4.285   6.436  16.880  0.00  0.00    +0.000 A 
ATOM      3  C   UNL     1       3.440   6.085  17.949  0.00  0.00    +0.000 A 
ATOM      4  C   UNL     1       3.459   4.734  18.351  0.00  0.00    +0.000 A 
ATOM      5  N   UNL     1       4.302   3.850  17.746  0.00  0.00    +0.000 NA
ATOM      6  N   UNL     1       5.131   4.233  16.708  0.00  0.00    +0.000 NA
ENDROOT
BRANCH   3   7
ATOM      7  C   UNL     1       2.625   7.165  18.568  0.00  0.00    +0.000 A 
ATOM      8  C   UNL     1       2.361   7.163  19.950  0.00  0.00    +0.000 A 
ATOM      9  C   UNL     1       1.607   8.178  20.548  0.00  0.00    +0.000 A 
ATOM     10  C   UNL     1       1.129   9.236  19.781  0.00  0.00    +0.000 A 
ATOM     11  C   UNL     1       1.366   9.259  18.412  0.00  0.00    +0.000 A 
ATOM     12  C   UNL     1       2.076   8.213  17.807  0.00  0.00    +0.000 A 
ENDBRANCH   3   7
BRANCH   4  13
ATOM     13  C   UNL     1       2.625   4.137  19.431  0.00  0.00    +0.000 A 
ATOM     14  C   UNL     1       3.100   3.960  20.740  0.00  0.00    +0.000 A 
ATOM     15  C   UNL     1       2.368   3.250  21.700  0.00  0.00    +0.000 A 
ATOM     16  C   UNL     1       1.102   2.770  21.391  0.00  0.00    +0.000 A 
ATOM     17  C   UNL     1       0.563   3.010  20.132  0.00  0.00    +0.000 A 
ATOM     18  C   UNL     1       1.318   3.681  19.160  0.00  0.00    +0.000 A 
ENDBRANCH   4  13
BRANCH   1  19
ATOM     19  S   UNL     1       6.120   6.046  14.917  0.00  0.00    +0.000 S 
BRANCH  19  20
ATOM     20  C   UNL     1       6.953   4.505  14.411  0.00  0.00    +0.000 C 
BRANCH  20  21
ATOM     21  C   UNL     1       6.807   4.387  12.892  0.00  0.00    +0.000 C 
BRANCH  21  22
ATOM     22  C   UNL     1       6.066   3.115  12.478  0.00  0.00    +0.000 C 
BRANCH  22  23
ATOM     23  C   UNL     1       4.606   3.429  12.140  0.00  0.00    +0.000 C 
BRANCH  23  24
ATOM     24  C   UNL     1       4.197   2.816  10.802  0.00  0.00    +0.000 C 
BRANCH  24  25
ATOM     25  C   UNL     1       2.917   3.461  10.267  0.00  0.00    +0.000 C 
BRANCH  25  27
ATOM     26  C   UNL     1       1.965   5.208   8.722  0.00  0.00    +0.000 C 
ATOM     27  C   UNL     1       3.234   4.581   9.278  0.00  0.00    +0.000 C 
ENDBRANCH  25  27
ENDBRANCH  24  25
ENDBRANCH  23  24
ENDBRANCH  22  23
ENDBRANCH  21  22
ENDBRANCH  20  21
ENDBRANCH  19  20
ENDBRANCH   1  19
TORSDOF 10
ENDMDL
MODEL 5
REMARK VINA RESULT:      -7.7      3.246      5.536
REMARK  Name = 
REMARK  11 active torsions:
REMARK  status: ('A' for Active; 'I' for Inactive)
REMARK    1  A    between atoms: C_1  and  C_2
REMARK    2  A    between atoms: C_2  and  C_3
REMARK    3  A    between atoms: C_3  and  C_4
REMARK    4  A    between atoms: C_4  and  C_5
REMARK    5  A    between atoms: C_5  and  C_6
REMARK    6  A    between atoms: C_6  and  C_7
REMARK    7  A    between atoms: C_7  and  C_8
REMARK    8  A    between atoms: C_8  and  S_9
REMARK    9  A    between atoms: S_9  and  C_10
REMARK   10  A    between atoms: C_12  and  C_13
REMARK   11  A    between atoms: C_19  and  C_20
REMARK                            x       y       z     vdW  Elec       q    Type
REMARK                         _______ _______ _______ _____ _____    ______ ____
ROOT
ATOM      1  C   UNL     1       4.684   5.727  16.676  0.00  0.00    +0.000 A 
ATOM      2  C   UNL     1       4.028   4.981  17.642  0.00  0.00    +0.000 A 
ATOM      3  C   UNL     1       3.118   5.577  18.534  0.00  0.00    +0.000 A 
ATOM      4  C   UNL     1       2.931   6.968  18.410  0.00  0.00    +0.000 A 
ATOM      5  N   UNL     1       3.579   7.663  17.431  0.00  0.00    +0.000 NA
ATOM      6  N   UNL     1       4.456   7.042  16.561  0.00  0.00    +0.000 NA
ENDROOT
BRANCH   3   7
ATOM      7  C   UNL     1       2.424   4.690  19.507  0.00  0.00    +0.000 A 
ATOM      8  C   UNL     1       1.251   4.004  19.143  0.00  0.00    +0.000 A 
ATOM      9  C   UNL     1       0.594   3.158  20.041  0.00  0.00    +0.000 A 
ATOM     10  C   UNL     1       1.117   2.952  21.315  0.00  0.00    +0.000 A 
ATOM     11  C   UNL     1       2.269   3.625  21.705  0.00  0.00    +0.000 A 
ATOM     12  C   UNL     1       2.894   4.514  20.821  0.00  0.00    +0.000 A 
ENDBRANCH   3   7
BRANCH   4  13
ATOM     13  C   UNL     1       2.048   7.808  19.266  0.00  0.00    +0.000 A 
ATOM     14  C   UNL     1       1.758   7.477  20.600  0.00  0.00    +0.000 A 
ATOM     15  C   UNL     1       0.801   8.181  21.342  0.00  0.00    +0.000 A 
ATOM     16  C   UNL     1       0.170   9.288  20.787  0.00  0.00    +0.000 A 
ATOM     17  C   UNL     1       0.505   9.698  19.501  0.00  0.00    +0.000 A 
ATOM     18  C   UNL     1       1.430   8.963  18.747  0.00  0.00    +0.000 A 
ENDBRANCH   4  13
BRANCH   1  19
ATOM     19  S   UNL     1       5.833   4.878  15.616  0.00  0.00    +0.000 S 
BRANCH  19  20
ATOM     20  C   UNL     1       7.434   5.573  16.144  0.00  0.00    +0.000 C 
BRANCH  20  21
ATOM     21  C   UNL     1       7.463   5.534  17.674  0.00  0.00    +0.000 C 
BRANCH  21  22
ATOM     22  C   UNL     1       7.880   6.875  18.280  0.00  0.00    +0.000 C 
BRANCH  22  23
ATOM     23  C   UNL     1       7.666   8.009  17.274  0.00  0.00    +0.000 C 
BRANCH  23  24
ATOM     24  C   UNL     1       8.010   9.368  17.882  0.00  0.00    +0.000 C 
BRANCH  24  25
ATOM     25  C   UNL     1       8.987   9.219  19.050  0.00  0.00    +0.000 C 
BRANCH  25  27
ATOM     26  C   UNL     1      10.549  11.195  18.997  0.00  0.00    +0.000 C 
ATOM     27  C   UNL     1       9.329  10.578  19.661  0.00  0.00    +0.000 C 
ENDBRANCH  25  27
ENDBRANCH  24  25
ENDBRANCH  23  24
ENDBRANCH  22  23
ENDBRANCH  21  22
ENDBRANCH  20  21
ENDBRANCH  19  20
ENDBRANCH   1  19
TORSDOF 10
ENDMDL
MODEL 6
REMARK VINA RESULT:      -7.5      1.266      2.309
REMARK  Name = 
REMARK  11 active torsions:
REMARK  status: ('A' for Active; 'I' for Inactive)
REMARK    1  A    between atoms: C_1  and  C_2
REMARK    2  A    between atoms: C_2  and  C_3
REMARK    3  A    between atoms: C_3  and  C_4
REMARK    4  A    between atoms: C_4  and  C_5
REMARK    5  A    between atoms: C_5  and  C_6
REMARK    6  A    between atoms: C_6  and  C_7
REMARK    7  A    between atoms: C_7  and  C_8
REMARK    8  A    between atoms: C_8  and  S_9
REMARK    9  A    between atoms: S_9  and  C_10
REMARK   10  A    between atoms: C_12  and  C_13
REMARK   11  A    between atoms: C_19  and  C_20
REMARK                            x       y       z     vdW  Elec       q    Type
REMARK                         _______ _______ _______ _____ _____    ______ ____
ROOT
ATOM      1  C   UNL     1       5.664   5.567  16.812  0.00  0.00    +0.000 A 
ATOM      2  C   UNL     1       4.771   4.883  17.620  0.00  0.00    +0.000 A 
ATOM      3  C   UNL     1       3.658   5.528  18.191  0.00  0.00    +0.000 A 
ATOM      4  C   UNL     1       3.519   6.904  17.920  0.00  0.00    +0.000 A 
ATOM      5  N   UNL     1       4.408   7.536  17.103  0.00  0.00    +0.000 NA
ATOM      6  N   UNL     1       5.482   6.868  16.545  0.00  0.00    +0.000 NA
ENDROOT
BRANCH   3   7
ATOM      7  C   UNL     1       2.725   4.703  19.004  0.00  0.00    +0.000 A 
ATOM      8  C   UNL     1       1.655   4.020  18.397  0.00  0.00    +0.000 A 
ATOM      9  C   UNL     1       0.777   3.230  19.146  0.00  0.00    +0.000 A 
ATOM     10  C   UNL     1       0.970   3.079  20.517  0.00  0.00    +0.000 A 
ATOM     11  C   UNL     1       2.013   3.751  21.144  0.00  0.00    +0.000 A 
ATOM     12  C   UNL     1       2.859   4.583  20.399  0.00  0.00    +0.000 A 
ENDBRANCH   3   7
BRANCH   4  13
ATOM     13  C   UNL     1       2.443   7.789  18.447  0.00  0.00    +0.000 A 
ATOM     14  C   UNL     1       1.746   8.695  17.631  0.00  0.00    +0.000 A 
ATOM     15  C   UNL     1       0.856   9.634  18.167  0.00  0.00    +0.000 A 
ATOM     16  C   UNL     1       0.580   9.631  19.529  0.00  0.00    +0.000 A 
ATOM     17  C   UNL     1       1.182   8.684  20.350  0.00  0.00    +0.000 A 
ATOM     18  C   UNL     1       2.108   7.776  19.817  0.00  0.00    +0.000 A 
ENDBRANCH   4  13
BRANCH   1  19
ATOM     19  S   UNL     1       7.051   4.662  16.162  0.00  0.00    +0.000 S 
BRANCH  19  20
ATOM     20  C   UNL     1       6.768   4.757  14.364  0.00  0.00    +0.000 C 
BRANCH  20  21
ATOM     21  C   UNL     1       5.574   3.854  14.044  0.00  0.00    +0.000 C 
BRANCH  21  22
ATOM     22  C   UNL     1       4.949   4.179  12.687  0.00  0.00    +0.000 C 
BRANCH  22  23
ATOM     23  C   UNL     1       5.098   2.993  11.729  0.00  0.00    +0.000 C 
BRANCH  23  24
ATOM     24  C   UNL     1       6.534   2.474  11.701  0.00  0.00    +0.000 C 
BRANCH  24  25
ATOM     25  C   UNL     1       6.666   1.264  10.772  0.00  0.00    +0.000 C 
BRANCH  25  27
ATOM     26  C   UNL     1       5.717  -1.023  11.233  0.00  0.00    +0.000 C 
ATOM     27  C   UNL     1       6.818  -0.030  11.569  0.00  0.00    +0.000 C 
ENDBRANCH  25  27
ENDBRANCH  24  25
ENDBRANCH  23  24
ENDBRANCH  22  23
ENDBRANCH  21  22
ENDBRANCH  20  21
ENDBRANCH  19  20
ENDBRANCH   1  19
TORSDOF 10
ENDMDL
MODEL 7
REMARK VINA RESULT:      -7.5      1.191      1.895
REMARK  Name = 
REMARK  11 active torsions:
REMARK  status: ('A' for Active; 'I' for Inactive)
REMARK    1  A    between atoms: C_1  and  C_2
REMARK    2  A    between atoms: C_2  and  C_3
REMARK    3  A    between atoms: C_3  and  C_4
REMARK    4  A    between atoms: C_4  and  C_5
REMARK    5  A    between atoms: C_5  and  C_6
REMARK    6  A    between atoms: C_6  and  C_7
REMARK    7  A    between atoms: C_7  and  C_8
REMARK    8  A    between atoms: C_8  and  S_9
REMARK    9  A    between atoms: S_9  and  C_10
REMARK   10  A    between atoms: C_12  and  C_13
REMARK   11  A    between atoms: C_19  and  C_20
REMARK                            x       y       z     vdW  Elec       q    Type
REMARK                         _______ _______ _______ _____ _____    ______ ____
ROOT
ATOM      1  C   UNL     1       5.525   5.376  16.929  0.00  0.00    +0.000 A 
ATOM      2  C   UNL     1       4.669   4.703  17.785  0.00  0.00    +0.000 A 
ATOM      3  C   UNL     1       3.589   5.358  18.405  0.00  0.00    +0.000 A 
ATOM      4  C   UNL     1       3.442   6.732  18.131  0.00  0.00    +0.000 A 
ATOM      5  N   UNL     1       4.293   7.354  17.265  0.00  0.00    +0.000 NA
ATOM      6  N   UNL     1       5.336   6.675  16.662  0.00  0.00    +0.000 NA
ENDROOT
BRANCH   3   7
ATOM      7  C   UNL     1       2.692   4.544  19.270  0.00  0.00    +0.000 A 
ATOM      8  C   UNL     1       3.077   4.197  20.578  0.00  0.00    +0.000 A 
ATOM      9  C   UNL     1       2.241   3.443  21.408  0.00  0.00    +0.000 A 
ATOM     10  C   UNL     1       0.984   3.049  20.957  0.00  0.00    +0.000 A 
ATOM     11  C   UNL     1       0.581   3.369  19.666  0.00  0.00    +0.000 A 
ATOM     12  C   UNL     1       1.444   4.079  18.820  0.00  0.00    +0.000 A 
ENDBRANCH   3   7
BRANCH   4  13
ATOM     13  C   UNL     1       2.398   7.627  18.702  0.00  0.00    +0.000 A 
ATOM     14  C   UNL     1       1.762   8.623  17.944  0.00  0.00    +0.000 A 
ATOM     15  C   UNL     1       0.905   9.562  18.531  0.00  0.00    +0.000 A 
ATOM     16  C   UNL     1       0.601   9.473  19.884  0.00  0.00    +0.000 A 
ATOM     17  C   UNL     1       1.141   8.441  20.644  0.00  0.00    +0.000 A 
ATOM     18  C   UNL     1       2.034   7.531  20.061  0.00  0.00    +0.000 A 
ENDBRANCH   4  13
BRANCH   1  19
ATOM     19  S   UNL     1       6.874   4.458  16.219  0.00  0.00    +0.000 S 
BRANCH  19  20
ATOM     20  C   UNL     1       7.393   5.535  14.843  0.00  0.00    +0.000 C 
BRANCH  20  21
ATOM     21  C   UNL     1       7.140   4.767  13.544  0.00  0.00    +0.000 C 
BRANCH  21  22
ATOM     22  C   UNL     1       6.130   3.634  13.728  0.00  0.00    +0.000 C 
BRANCH  22  23
ATOM     23  C   UNL     1       4.933   3.825  12.791  0.00  0.00    +0.000 C 
BRANCH  23  24
ATOM     24  C   UNL     1       5.081   2.992  11.519  0.00  0.00    +0.000 C 
BRANCH  24  25
ATOM     25  C   UNL     1       6.195   1.954  11.664  0.00  0.00    +0.000 C 
BRANCH  25  27
ATOM     26  C   UNL     1       6.247  -0.559  11.493  0.00  0.00    +0.000 C 
ATOM     27  C   UNL     1       5.941   0.742  10.769  0.00  0.00    +0.000 C 
ENDBRANCH  25  27
ENDBRANCH  24  25
ENDBRANCH  23  24
ENDBRANCH  22  23
ENDBRANCH  21  22
ENDBRANCH  20  21
ENDBRANCH  19  20
ENDBRANCH   1  19
TORSDOF 10
ENDMDL
MODEL 8
REMARK VINA RESULT:      -7.5      1.157      3.561
REMARK  Name = 
REMARK  11 active torsions:
REMARK  status: ('A' for Active; 'I' for Inactive)
REMARK    1  A    between atoms: C_1  and  C_2
REMARK    2  A    between atoms: C_2  and  C_3
REMARK    3  A    between atoms: C_3  and  C_4
REMARK    4  A    between atoms: C_4  and  C_5
REMARK    5  A    between atoms: C_5  and  C_6
REMARK    6  A    between atoms: C_6  and  C_7
REMARK    7  A    between atoms: C_7  and  C_8
REMARK    8  A    between atoms: C_8  and  S_9
REMARK    9  A    between atoms: S_9  and  C_10
REMARK   10  A    between atoms: C_12  and  C_13
REMARK   11  A    between atoms: C_19  and  C_20
REMARK                            x       y       z     vdW  Elec       q    Type
REMARK                         _______ _______ _______ _____ _____    ______ ____
ROOT
ATOM      1  C   UNL     1       5.340   5.373  16.438  0.00  0.00    +0.000 A 
ATOM      2  C   UNL     1       4.478   6.277  17.039  0.00  0.00    +0.000 A 
ATOM      3  C   UNL     1       3.589   5.877  18.053  0.00  0.00    +0.000 A 
ATOM      4  C   UNL     1       3.603   4.513  18.403  0.00  0.00    +0.000 A 
ATOM      5  N   UNL     1       4.481   3.659  17.804  0.00  0.00    +0.000 NA
ATOM      6  N   UNL     1       5.353   4.089  16.820  0.00  0.00    +0.000 NA
ENDROOT
BRANCH   3   7
ATOM      7  C   UNL     1       2.735   6.926  18.675  0.00  0.00    +0.000 A 
ATOM      8  C   UNL     1       2.326   6.817  20.017  0.00  0.00    +0.000 A 
ATOM      9  C   UNL     1       1.535   7.799  20.619  0.00  0.00    +0.000 A 
ATOM     10  C   UNL     1       1.163   8.933  19.900  0.00  0.00    +0.000 A 
ATOM     11  C   UNL     1       1.544   9.062  18.570  0.00  0.00    +0.000 A 
ATOM     12  C   UNL     1       2.292   8.050  17.954  0.00  0.00    +0.000 A 
ENDBRANCH   3   7
BRANCH   4  13
ATOM     13  C   UNL     1       2.726   3.866  19.419  0.00  0.00    +0.000 A 
ATOM     14  C   UNL     1       1.360   3.632  19.195  0.00  0.00    +0.000 A 
ATOM     15  C   UNL     1       0.513   3.176  20.213  0.00  0.00    +0.000 A 
ATOM     16  C   UNL     1       1.037   2.865  21.462  0.00  0.00    +0.000 A 
ATOM     17  C   UNL     1       2.403   2.996  21.688  0.00  0.00    +0.000 A 
ATOM     18  C   UNL     1       3.238   3.496  20.680  0.00  0.00    +0.000 A 
ENDBRANCH   4  13
BRANCH   1  19
ATOM     19  S   UNL     1       6.405   5.979  15.148  0.00  0.00    +0.000 S 
BRANCH  19  20
ATOM     20  C   UNL     1       7.015   4.436  14.393  0.00  0.00    +0.000 C 
BRANCH  20  21
ATOM     21  C   UNL     1       7.024   4.645  12.877  0.00  0.00    +0.000 C 
BRANCH  21  22
ATOM     22  C   UNL     1       6.883   3.330  12.109  0.00  0.00    +0.000 C 
BRANCH  22  23
ATOM     23  C   UNL     1       5.408   2.939  11.980  0.00  0.00    +0.000 C 
BRANCH  23  24
ATOM     24  C   UNL     1       4.701   3.770  10.910  0.00  0.00    +0.000 C 
BRANCH  24  25
ATOM     25  C   UNL     1       3.264   3.289  10.697  0.00  0.00    +0.000 C 
BRANCH  25  27
ATOM     26  C   UNL     1       2.218   5.016   9.190  0.00  0.00    +0.000 C 
ATOM     27  C   UNL     1       2.779   3.606   9.283  0.00  0.00    +0.000 C 
ENDBRANCH  25  27
ENDBRANCH  24  25
ENDBRANCH  23  24
ENDBRANCH  22  23
ENDBRANCH  21  22
ENDBRANCH  20  21
ENDBRANCH  19  20
ENDBRANCH   1  19
TORSDOF 10
ENDMDL
MODEL 9
REMARK VINA RESULT:      -7.4      1.140      3.789
REMARK  Name = 
REMARK  11 active torsions:
REMARK  status: ('A' for Active; 'I' for Inactive)
REMARK    1  A    between atoms: C_1  and  C_2
REMARK    2  A    between atoms: C_2  and  C_3
REMARK    3  A    between atoms: C_3  and  C_4
REMARK    4  A    between atoms: C_4  and  C_5
REMARK    5  A    between atoms: C_5  and  C_6
REMARK    6  A    between atoms: C_6  and  C_7
REMARK    7  A    between atoms: C_7  and  C_8
REMARK    8  A    between atoms: C_8  and  S_9
REMARK    9  A    between atoms: S_9  and  C_10
REMARK   10  A    between atoms: C_12  and  C_13
REMARK   11  A    between atoms: C_19  and  C_20
REMARK                            x       y       z     vdW  Elec       q    Type
REMARK                         _______ _______ _______ _____ _____    ______ ____
ROOT
ATOM      1  C   UNL     1       5.685   5.549  16.689  0.00  0.00    +0.000 A 
ATOM      2  C   UNL     1       4.756   6.480  17.124  0.00  0.00    +0.000 A 
ATOM      3  C   UNL     1       3.752   6.136  18.048  0.00  0.00    +0.000 A 
ATOM      4  C   UNL     1       3.727   4.796  18.483  0.00  0.00    +0.000 A 
ATOM      5  N   UNL     1       4.672   3.915  18.048  0.00  0.00    +0.000 NA
ATOM      6  N   UNL     1       5.655   4.292  17.150  0.00  0.00    +0.000 NA
ENDROOT
BRANCH   3   7
ATOM      7  C   UNL     1       2.828   7.213  18.496  0.00  0.00    +0.000 A 
ATOM      8  C   UNL     1       2.385   8.200  17.596  0.00  0.00    +0.000 A 
ATOM      9  C   UNL     1       1.508   9.211  17.999  0.00  0.00    +0.000 A 
ATOM     10  C   UNL     1       1.026   9.238  19.305  0.00  0.00    +0.000 A 
ATOM     11  C   UNL     1       1.454   8.281  20.218  0.00  0.00    +0.000 A 
ATOM     12  C   UNL     1       2.376   7.301  19.825  0.00  0.00    +0.000 A 
ENDBRANCH   3   7
BRANCH   4  13
ATOM     13  C   UNL     1       2.736   4.206  19.425  0.00  0.00    +0.000 A 
ATOM     14  C   UNL     1       3.017   4.005  20.786  0.00  0.00    +0.000 A 
ATOM     15  C   UNL     1       2.142   3.302  21.624  0.00  0.00    +0.000 A 
ATOM     16  C   UNL     1       0.922   2.855  21.133  0.00  0.00    +0.000 A 
ATOM     17  C   UNL     1       0.572   3.121  19.813  0.00  0.00    +0.000 A 
ATOM     18  C   UNL     1       1.471   3.784  18.967  0.00  0.00    +0.000 A 
ENDBRANCH   4  13
BRANCH   1  19
ATOM     19  S   UNL     1       6.896   6.083  15.500  0.00  0.00    +0.000 S 
BRANCH  19  20
ATOM     20  C   UNL     1       7.037   4.628  14.410  0.00  0.00    +0.000 C 
BRANCH  20  21
ATOM     21  C   UNL     1       7.887   5.042  13.207  0.00  0.00    +0.000 C 
BRANCH  21  22
ATOM     22  C   UNL     1       7.280   4.582  11.882  0.00  0.00    +0.000 C 
BRANCH  22  23
ATOM     23  C   UNL     1       6.264   3.461  12.116  0.00  0.00    +0.000 C 
BRANCH  23  24
ATOM     24  C   UNL     1       4.864   3.869  11.660  0.00  0.00    +0.000 C 
BRANCH  24  25
ATOM     25  C   UNL     1       4.059   2.654  11.194  0.00  0.00    +0.000 C 
BRANCH  25  27
ATOM     26  C   UNL     1       3.058   4.346   9.619  0.00  0.00    +0.000 C 
ATOM     27  C   UNL     1       2.810   3.081  10.424  0.00  0.00    +0.000 C 
ENDBRANCH  25  27
ENDBRANCH  24  25
ENDBRANCH  23  24
ENDBRANCH  22  23
ENDBRANCH  21  22
ENDBRANCH  20  21
ENDBRANCH  19  20
ENDBRANCH   1  19
TORSDOF 10
ENDMDL
