MODEL 1
REMARK VINA RESULT:      -8.6      0.000      0.000
REMARK  Name = 
REMARK  7 active torsions:
REMARK  status: ('A' for Active; 'I' for Inactive)
REMARK    1  A    between atoms: C_1  and  C_2
REMARK    2  A    between atoms: C_5  and  C_6
REMARK    3  A    between atoms: C_9  and  C_10
REMARK    4  A    between atoms: C_13  and  C_14
REMARK    5  A    between atoms: C_14  and  N_15
REMARK    6  A    between atoms: N_15  and  C_16
REMARK    7  A    between atoms: C_20  and  C_21
REMARK                            x       y       z     vdW  Elec       q    Type
REMARK                         _______ _______ _______ _____ _____    ______ ____
ROOT
ATOM      1  C   UNL     1       1.632   8.997  19.583  0.00  0.00    +0.000 A 
ATOM      2  C   UNL     1       1.720   7.882  20.431  0.00  0.00    +0.000 A 
ATOM      3  C   UNL     1       2.062   6.620  19.920  0.00  0.00    +0.000 A 
ATOM      4  C   UNL     1       2.327   6.441  18.553  0.00  0.00    +0.000 A 
ATOM      5  C   UNL     1       2.325   7.567  17.722  0.00  0.00    +0.000 A 
ATOM      6  C   UNL     1       1.984   8.823  18.231  0.00  0.00    +0.000 A 
ENDROOT
BRANCH   1  10
ATOM      7  C   UNL     1      -1.029  10.963  18.442  0.00  0.00    +0.000 C 
ATOM      8  O   UNL     1      -1.067   9.857  19.372  0.00  0.00    +0.000 OA
ATOM      9  O   UNL     1      -0.247  10.221  20.537  0.00  0.00    +0.000 OA
ATOM     10  C   UNL     1       1.097  10.354  20.045  0.00  0.00    +0.000 C 
ATOM     11  O   UNL     1       1.176  11.372  19.019  0.00  0.00    +0.000 OA
ATOM     12  O   UNL     1      -0.169  12.007  18.917  0.00  0.00    +0.000 OA
BRANCH   7  17
ATOM     13  C   UNL     1      -6.642  12.189  17.406  0.00  0.00    +0.000 C 
ATOM     14  C   UNL     1      -5.190  11.895  17.639  0.00  0.00    +0.000 A 
ATOM     15  C   UNL     1      -4.622  12.161  18.880  0.00  0.00    +0.000 A 
ATOM     16  C   UNL     1      -3.272  11.892  19.099  0.00  0.00    +0.000 A 
ATOM     17  C   UNL     1      -2.446  11.369  18.086  0.00  0.00    +0.000 A 
ATOM     18  C   UNL     1      -3.023  11.113  16.836  0.00  0.00    +0.000 A 
ATOM     19  C   UNL     1      -4.384  11.376  16.616  0.00  0.00    +0.000 A 
ENDBRANCH   7  17
ENDBRANCH   1  10
BRANCH   4  20
ATOM     20  C   UNL     1       2.521   5.059  17.964  0.00  0.00    +0.000 C 
BRANCH  20  21
ATOM     21  N   UNL     1       3.748   4.473  18.494  0.00  0.00    +0.000 N 
ATOM     22  H   UNL     1       3.598   3.537  18.863  0.00  0.00    +0.000 HD
BRANCH  21  23
ATOM     23  C   UNL     1       4.940   4.569  17.766  0.00  0.00    +0.000 A 
ATOM     24  C   UNL     1       6.185   4.824  18.351  0.00  0.00    +0.000 A 
ATOM     25  C   UNL     1       7.360   4.827  17.591  0.00  0.00    +0.000 A 
ATOM     26  C   UNL     1       7.318   4.547  16.228  0.00  0.00    +0.000 A 
ATOM     27  C   UNL     1       6.100   4.249  15.614  0.00  0.00    +0.000 A 
ATOM     28  C   UNL     1       6.037   3.934  14.147  0.00  0.00    +0.000 C 
ATOM     29  C   UNL     1       4.928   4.249  16.394  0.00  0.00    +0.000 A 
ENDBRANCH  21  23
ENDBRANCH  20  21
ENDBRANCH   4  20
TORSDOF 5
ENDMDL
MODEL 2
REMARK VINA RESULT:      -8.3      0.729      1.635
REMARK  Name = 
REMARK  7 active torsions:
REMARK  status: ('A' for Active; 'I' for Inactive)
REMARK    1  A    between atoms: C_1  and  C_2
REMARK    2  A    between atoms: C_5  and  C_6
REMARK    3  A    between atoms: C_9  and  C_10
REMARK    4  A    between atoms: C_13  and  C_14
REMARK    5  A    between atoms: C_14  and  N_15
REMARK    6  A    between atoms: N_15  and  C_16
REMARK    7  A    between atoms: C_20  and  C_21
REMARK                            x       y       z     vdW  Elec       q    Type
REMARK                         _______ _______ _______ _____ _____    ______ ____
ROOT
ATOM      1  C   UNL     1       1.526   9.255  19.508  0.00  0.00    +0.000 A 
ATOM      2  C   UNL     1       1.655   8.201  20.424  0.00  0.00    +0.000 A 
ATOM      3  C   UNL     1       2.000   6.911  19.988  0.00  0.00    +0.000 A 
ATOM      4  C   UNL     1       2.229   6.646  18.628  0.00  0.00    +0.000 A 
ATOM      5  C   UNL     1       2.188   7.714  17.726  0.00  0.00    +0.000 A 
ATOM      6  C   UNL     1       1.843   8.997  18.161  0.00  0.00    +0.000 A 
ENDROOT
BRANCH   1  10
ATOM      7  C   UNL     1      -1.339  10.997  18.506  0.00  0.00    +0.000 C 
ATOM      8  O   UNL     1      -1.217   9.992  19.539  0.00  0.00    +0.000 OA
ATOM      9  O   UNL     1      -0.286  10.503  20.556  0.00  0.00    +0.000 OA
ATOM     10  C   UNL     1       0.985  10.633  19.895  0.00  0.00    +0.000 C 
ATOM     11  O   UNL     1       0.895  11.542  18.772  0.00  0.00    +0.000 OA
ATOM     12  O   UNL     1      -0.481  12.115  18.770  0.00  0.00    +0.000 OA
BRANCH   7  17
ATOM     13  C   UNL     1      -6.838  12.556  17.317  0.00  0.00    +0.000 C 
ATOM     14  C   UNL     1      -5.439  12.135  17.655  0.00  0.00    +0.000 A 
ATOM     15  C   UNL     1      -4.648  11.527  16.687  0.00  0.00    +0.000 A 
ATOM     16  C   UNL     1      -3.349  11.133  16.999  0.00  0.00    +0.000 A 
ATOM     17  C   UNL     1      -2.806  11.314  18.285  0.00  0.00    +0.000 A 
ATOM     18  C   UNL     1      -3.612  11.919  19.257  0.00  0.00    +0.000 A 
ATOM     19  C   UNL     1      -4.919  12.324  18.943  0.00  0.00    +0.000 A 
ENDBRANCH   7  17
ENDBRANCH   1  10
BRANCH   4  20
ATOM     20  C   UNL     1       2.427   5.231  18.127  0.00  0.00    +0.000 C 
BRANCH  20  21
ATOM     21  N   UNL     1       3.708   4.720  18.607  0.00  0.00    +0.000 N 
ATOM     22  H   UNL     1       3.628   3.778  18.984  0.00  0.00    +0.000 HD
BRANCH  21  23
ATOM     23  C   UNL     1       4.861   4.880  17.829  0.00  0.00    +0.000 A 
ATOM     24  C   UNL     1       5.181   4.056  16.744  0.00  0.00    +0.000 A 
ATOM     25  C   UNL     1       6.302   4.308  15.945  0.00  0.00    +0.000 A 
ATOM     26  C   UNL     1       7.115   5.409  16.199  0.00  0.00    +0.000 A 
ATOM     27  C   UNL     1       6.807   6.277  17.248  0.00  0.00    +0.000 A 
ATOM     28  C   UNL     1       7.667   7.476  17.530  0.00  0.00    +0.000 C 
ATOM     29  C   UNL     1       5.674   6.010  18.041  0.00  0.00    +0.000 A 
ENDBRANCH  21  23
ENDBRANCH  20  21
ENDBRANCH   4  20
TORSDOF 5
ENDMDL
MODEL 3
REMARK VINA RESULT:      -8.3      1.949      3.293
REMARK  Name = 
REMARK  7 active torsions:
REMARK  status: ('A' for Active; 'I' for Inactive)
REMARK    1  A    between atoms: C_1  and  C_2
REMARK    2  A    between atoms: C_5  and  C_6
REMARK    3  A    between atoms: C_9  and  C_10
REMARK    4  A    between atoms: C_13  and  C_14
REMARK    5  A    between atoms: C_14  and  N_15
REMARK    6  A    between atoms: N_15  and  C_16
REMARK    7  A    between atoms: C_20  and  C_21
REMARK                            x       y       z     vdW  Elec       q    Type
REMARK                         _______ _______ _______ _____ _____    ______ ____
ROOT
ATOM      1  C   UNL     1       1.288   9.590  19.424  0.00  0.00    +0.000 A 
ATOM      2  C   UNL     1       1.692   9.653  18.082  0.00  0.00    +0.000 A 
ATOM      3  C   UNL     1       2.446   8.614  17.513  0.00  0.00    +0.000 A 
ATOM      4  C   UNL     1       2.811   7.488  18.269  0.00  0.00    +0.000 A 
ATOM      5  C   UNL     1       2.334   7.384  19.580  0.00  0.00    +0.000 A 
ATOM      6  C   UNL     1       1.584   8.419  20.146  0.00  0.00    +0.000 A 
ENDROOT
BRANCH   1  10
ATOM      7  C   UNL     1      -1.659  11.360  18.763  0.00  0.00    +0.000 C 
ATOM      8  O   UNL     1      -1.504  10.111  19.475  0.00  0.00    +0.000 OA
ATOM      9  O   UNL     1      -0.667  10.367  20.656  0.00  0.00    +0.000 OA
ATOM     10  C   UNL     1       0.619  10.762  20.147  0.00  0.00    +0.000 C 
ATOM     11  O   UNL     1       0.510  11.947  19.324  0.00  0.00    +0.000 OA
ATOM     12  O   UNL     1      -0.906  12.407  19.390  0.00  0.00    +0.000 OA
BRANCH   7  17
ATOM     13  C   UNL     1      -7.202  12.744  17.563  0.00  0.00    +0.000 C 
ATOM     14  C   UNL     1      -5.790  12.369  17.904  0.00  0.00    +0.000 A 
ATOM     15  C   UNL     1      -4.988  11.759  16.946  0.00  0.00    +0.000 A 
ATOM     16  C   UNL     1      -3.677  11.407  17.262  0.00  0.00    +0.000 A 
ATOM     17  C   UNL     1      -3.134  11.632  18.541  0.00  0.00    +0.000 A 
ATOM     18  C   UNL     1      -3.952  12.238  19.502  0.00  0.00    +0.000 A 
ATOM     19  C   UNL     1      -5.270  12.601  19.184  0.00  0.00    +0.000 A 
ENDBRANCH   7  17
ENDBRANCH   1  10
BRANCH   4  20
ATOM     20  C   UNL     1       3.769   6.451  17.721  0.00  0.00    +0.000 C 
BRANCH  20  21
ATOM     21  N   UNL     1       4.036   5.446  18.746  0.00  0.00    +0.000 N 
ATOM     22  H   UNL     1       4.241   5.866  19.650  0.00  0.00    +0.000 HD
BRANCH  21  23
ATOM     23  C   UNL     1       3.203   4.326  18.862  0.00  0.00    +0.000 A 
ATOM     24  C   UNL     1       2.942   3.445  17.807  0.00  0.00    +0.000 A 
ATOM     25  C   UNL     1       2.170   2.293  17.995  0.00  0.00    +0.000 A 
ATOM     26  C   UNL     1       1.663   1.983  19.253  0.00  0.00    +0.000 A 
ATOM     27  C   UNL     1       1.932   2.816  20.340  0.00  0.00    +0.000 A 
ATOM     28  C   UNL     1       1.402   2.491  21.707  0.00  0.00    +0.000 C 
ATOM     29  C   UNL     1       2.713   3.971  20.134  0.00  0.00    +0.000 A 
ENDBRANCH  21  23
ENDBRANCH  20  21
ENDBRANCH   4  20
TORSDOF 5
ENDMDL
MODEL 4
REMARK VINA RESULT:      -8.3      0.733      1.187
REMARK  Name = 
REMARK  7 active torsions:
REMARK  status: ('A' for Active; 'I' for Inactive)
REMARK    1  A    between atoms: C_1  and  C_2
REMARK    2  A    between atoms: C_5  and  C_6
REMARK    3  A    between atoms: C_9  and  C_10
REMARK    4  A    between atoms: C_13  and  C_14
REMARK    5  A    between atoms: C_14  and  N_15
REMARK    6  A    between atoms: N_15  and  C_16
REMARK    7  A    between atoms: C_20  and  C_21
REMARK                            x       y       z     vdW  Elec       q    Type
REMARK                         _______ _______ _______ _____ _____    ______ ____
ROOT
ATOM      1  C   UNL     1       1.596   8.408  19.551  0.00  0.00    +0.000 A 
ATOM      2  C   UNL     1       2.086   7.914  18.332  0.00  0.00    +0.000 A 
ATOM      3  C   UNL     1       2.500   6.577  18.217  0.00  0.00    +0.000 A 
ATOM      4  C   UNL     1       2.430   5.702  19.314  0.00  0.00    +0.000 A 
ATOM      5  C   UNL     1       1.860   6.170  20.503  0.00  0.00    +0.000 A 
ATOM      6  C   UNL     1       1.449   7.501  20.617  0.00  0.00    +0.000 A 
ENDROOT
BRANCH   1  10
ATOM      7  C   UNL     1      -0.865  10.524  18.241  0.00  0.00    +0.000 C 
ATOM      8  O   UNL     1      -0.969   9.615  19.361  0.00  0.00    +0.000 OA
ATOM      9  O   UNL     1      -0.004  10.049  20.383  0.00  0.00    +0.000 OA
ATOM     10  C   UNL     1       1.295   9.890  19.787  0.00  0.00    +0.000 C 
ATOM     11  O   UNL     1       1.418  10.691  18.588  0.00  0.00    +0.000 OA
ATOM     12  O   UNL     1       0.169  11.494  18.458  0.00  0.00    +0.000 OA
BRANCH   7  17
ATOM     13  C   UNL     1      -6.343  12.312  17.303  0.00  0.00    +0.000 C 
ATOM     14  C   UNL     1      -4.925  11.872  17.511  0.00  0.00    +0.000 A 
ATOM     15  C   UNL     1      -4.309  12.085  18.739  0.00  0.00    +0.000 A 
ATOM     16  C   UNL     1      -2.989  11.681  18.934  0.00  0.00    +0.000 A 
ATOM     17  C   UNL     1      -2.241  11.071  17.909  0.00  0.00    +0.000 A 
ATOM     18  C   UNL     1      -2.865  10.868  16.672  0.00  0.00    +0.000 A 
ATOM     19  C   UNL     1      -4.197  11.268  16.477  0.00  0.00    +0.000 A 
ENDBRANCH   7  17
ENDBRANCH   1  10
BRANCH   4  20
ATOM     20  C   UNL     1       3.035   4.316  19.251  0.00  0.00    +0.000 C 
BRANCH  20  21
ATOM     21  N   UNL     1       4.456   4.391  19.578  0.00  0.00    +0.000 N 
ATOM     22  H   UNL     1       4.772   3.579  20.104  0.00  0.00    +0.000 HD
BRANCH  21  23
ATOM     23  C   UNL     1       5.380   4.777  18.599  0.00  0.00    +0.000 A 
ATOM     24  C   UNL     1       6.520   5.541  18.871  0.00  0.00    +0.000 A 
ATOM     25  C   UNL     1       7.457   5.830  17.872  0.00  0.00    +0.000 A 
ATOM     26  C   UNL     1       7.287   5.337  16.582  0.00  0.00    +0.000 A 
ATOM     27  C   UNL     1       6.183   4.538  16.280  0.00  0.00    +0.000 A 
ATOM     28  C   UNL     1       5.989   3.988  14.896  0.00  0.00    +0.000 C 
ATOM     29  C   UNL     1       5.250   4.255  17.297  0.00  0.00    +0.000 A 
ENDBRANCH  21  23
ENDBRANCH  20  21
ENDBRANCH   4  20
TORSDOF 5
ENDMDL
MODEL 5
REMARK VINA RESULT:      -8.2      0.839      1.586
REMARK  Name = 
REMARK  7 active torsions:
REMARK  status: ('A' for Active; 'I' for Inactive)
REMARK    1  A    between atoms: C_1  and  C_2
REMARK    2  A    between atoms: C_5  and  C_6
REMARK    3  A    between atoms: C_9  and  C_10
REMARK    4  A    between atoms: C_13  and  C_14
REMARK    5  A    between atoms: C_14  and  N_15
REMARK    6  A    between atoms: N_15  and  C_16
REMARK    7  A    between atoms: C_20  and  C_21
REMARK                            x       y       z     vdW  Elec       q    Type
REMARK                         _______ _______ _______ _____ _____    ______ ____
ROOT
ATOM      1  C   UNL     1       1.151   9.768  19.465  0.00  0.00    +0.000 A 
ATOM      2  C   UNL     1       1.619   9.295  18.229  0.00  0.00    +0.000 A 
ATOM      3  C   UNL     1       2.214   8.027  18.127  0.00  0.00    +0.000 A 
ATOM      4  C   UNL     1       2.352   7.201  19.254  0.00  0.00    +0.000 A 
ATOM      5  C   UNL     1       1.808   7.634  20.468  0.00  0.00    +0.000 A 
ATOM      6  C   UNL     1       1.216   8.897  20.569  0.00  0.00    +0.000 A 
ENDROOT
BRANCH   1  10
ATOM      7  C   UNL     1      -1.818  11.366  18.526  0.00  0.00    +0.000 C 
ATOM      8  O   UNL     1      -1.571  10.547  19.692  0.00  0.00    +0.000 OA
ATOM      9  O   UNL     1      -0.528  11.205  20.492  0.00  0.00    +0.000 OA
ATOM     10  C   UNL     1       0.655  11.200  19.675  0.00  0.00    +0.000 C 
ATOM     11  O   UNL     1       0.431  11.909  18.433  0.00  0.00    +0.000 OA
ATOM     12  O   UNL     1      -0.937  12.497  18.496  0.00  0.00    +0.000 OA
BRANCH   7  17
ATOM     13  C   UNL     1      -7.412  12.873  17.810  0.00  0.00    +0.000 C 
ATOM     14  C   UNL     1      -5.985  12.465  18.026  0.00  0.00    +0.000 A 
ATOM     15  C   UNL     1      -5.264  11.896  16.983  0.00  0.00    +0.000 A 
ATOM     16  C   UNL     1      -3.939  11.512  17.182  0.00  0.00    +0.000 A 
ATOM     17  C   UNL     1      -3.301  11.666  18.427  0.00  0.00    +0.000 A 
ATOM     18  C   UNL     1      -4.037  12.232  19.476  0.00  0.00    +0.000 A 
ATOM     19  C   UNL     1      -5.369  12.626  19.275  0.00  0.00    +0.000 A 
ENDBRANCH   7  17
ENDBRANCH   1  10
BRANCH   4  20
ATOM     20  C   UNL     1       3.148   5.914  19.191  0.00  0.00    +0.000 C 
BRANCH  20  21
ATOM     21  N   UNL     1       3.386   5.558  17.795  0.00  0.00    +0.000 N 
ATOM     22  H   UNL     1       2.901   6.180  17.153  0.00  0.00    +0.000 HD
BRANCH  21  23
ATOM     23  C   UNL     1       4.683   5.257  17.361  0.00  0.00    +0.000 A 
ATOM     24  C   UNL     1       5.797   5.248  18.207  0.00  0.00    +0.000 A 
ATOM     25  C   UNL     1       7.059   4.859  17.744  0.00  0.00    +0.000 A 
ATOM     26  C   UNL     1       7.229   4.445  16.426  0.00  0.00    +0.000 A 
ATOM     27  C   UNL     1       6.134   4.404  15.561  0.00  0.00    +0.000 A 
ATOM     28  C   UNL     1       6.297   3.949  14.139  0.00  0.00    +0.000 C 
ATOM     29  C   UNL     1       4.871   4.796  16.044  0.00  0.00    +0.000 A 
ENDBRANCH  21  23
ENDBRANCH  20  21
ENDBRANCH   4  20
TORSDOF 5
ENDMDL
MODEL 6
REMARK VINA RESULT:      -8.1      0.710      1.999
REMARK  Name = 
REMARK  7 active torsions:
REMARK  status: ('A' for Active; 'I' for Inactive)
REMARK    1  A    between atoms: C_1  and  C_2
REMARK    2  A    between atoms: C_5  and  C_6
REMARK    3  A    between atoms: C_9  and  C_10
REMARK    4  A    between atoms: C_13  and  C_14
REMARK    5  A    between atoms: C_14  and  N_15
REMARK    6  A    between atoms: N_15  and  C_16
REMARK    7  A    between atoms: C_20  and  C_21
REMARK                            x       y       z     vdW  Elec       q    Type
REMARK                         _______ _______ _______ _____ _____    ______ ____
ROOT
ATOM      1  C   UNL     1       1.453   8.931  19.487  0.00  0.00    +0.000 A 
ATOM      2  C   UNL     1       1.909   8.367  18.286  0.00  0.00    +0.000 A 
ATOM      3  C   UNL     1       2.390   7.048  18.252  0.00  0.00    +0.000 A 
ATOM      4  C   UNL     1       2.423   6.261  19.415  0.00  0.00    +0.000 A 
ATOM      5  C   UNL     1       1.887   6.792  20.593  0.00  0.00    +0.000 A 
ATOM      6  C   UNL     1       1.409   8.105  20.626  0.00  0.00    +0.000 A 
ENDROOT
BRANCH   1  10
ATOM      7  C   UNL     1      -1.344  10.742  18.415  0.00  0.00    +0.000 C 
ATOM      8  O   UNL     1      -1.193   9.957  19.620  0.00  0.00    +0.000 OA
ATOM      9  O   UNL     1      -0.110  10.555  20.415  0.00  0.00    +0.000 OA
ATOM     10  C   UNL     1       1.083  10.410  19.625  0.00  0.00    +0.000 C 
ATOM     11  O   UNL     1       0.946  11.079  18.350  0.00  0.00    +0.000 OA
ATOM     12  O   UNL     1      -0.365  11.788  18.357  0.00  0.00    +0.000 OA
BRANCH   7  17
ATOM     13  C   UNL     1      -6.776  12.661  17.472  0.00  0.00    +0.000 C 
ATOM     14  C   UNL     1      -5.392  12.154  17.750  0.00  0.00    +0.000 A 
ATOM     15  C   UNL     1      -4.746  11.362  16.808  0.00  0.00    +0.000 A 
ATOM     16  C   UNL     1      -3.461  10.886  17.065  0.00  0.00    +0.000 A 
ATOM     17  C   UNL     1      -2.792  11.167  18.271  0.00  0.00    +0.000 A 
ATOM     18  C   UNL     1      -3.454  11.958  19.219  0.00  0.00    +0.000 A 
ATOM     19  C   UNL     1      -4.745  12.444  18.958  0.00  0.00    +0.000 A 
ENDBRANCH   7  17
ENDBRANCH   1  10
BRANCH   4  20
ATOM     20  C   UNL     1       3.100   4.907  19.427  0.00  0.00    +0.000 C 
BRANCH  20  21
ATOM     21  N   UNL     1       3.517   4.559  18.071  0.00  0.00    +0.000 N 
ATOM     22  H   UNL     1       2.956   5.030  17.365  0.00  0.00    +0.000 HD
BRANCH  21  23
ATOM     23  C   UNL     1       4.878   4.544  17.740  0.00  0.00    +0.000 A 
ATOM     24  C   UNL     1       5.363   4.146  16.490  0.00  0.00    +0.000 A 
ATOM     25  C   UNL     1       6.725   4.228  16.179  0.00  0.00    +0.000 A 
ATOM     26  C   UNL     1       7.630   4.737  17.106  0.00  0.00    +0.000 A 
ATOM     27  C   UNL     1       7.180   5.180  18.351  0.00  0.00    +0.000 A 
ATOM     28  C   UNL     1       8.140   5.741  19.359  0.00  0.00    +0.000 C 
ATOM     29  C   UNL     1       5.805   5.092  18.647  0.00  0.00    +0.000 A 
ENDBRANCH  21  23
ENDBRANCH  20  21
ENDBRANCH   4  20
TORSDOF 5
ENDMDL
MODEL 7
REMARK VINA RESULT:      -8.0      1.055      1.936
REMARK  Name = 
REMARK  7 active torsions:
REMARK  status: ('A' for Active; 'I' for Inactive)
REMARK    1  A    between atoms: C_1  and  C_2
REMARK    2  A    between atoms: C_5  and  C_6
REMARK    3  A    between atoms: C_9  and  C_10
REMARK    4  A    between atoms: C_13  and  C_14
REMARK    5  A    between atoms: C_14  and  N_15
REMARK    6  A    between atoms: N_15  and  C_16
REMARK    7  A    between atoms: C_20  and  C_21
REMARK                            x       y       z     vdW  Elec       q    Type
REMARK                         _______ _______ _______ _____ _____    ______ ____
ROOT
ATOM      1  C   UNL     1       1.855   8.145  19.362  0.00  0.00    +0.000 A 
ATOM      2  C   UNL     1       2.191   7.602  18.112  0.00  0.00    +0.000 A 
ATOM      3  C   UNL     1       2.517   6.242  17.988  0.00  0.00    +0.000 A 
ATOM      4  C   UNL     1       2.510   5.392  19.105  0.00  0.00    +0.000 A 
ATOM      5  C   UNL     1       2.091   5.913  20.335  0.00  0.00    +0.000 A 
ATOM      6  C   UNL     1       1.768   7.267  20.458  0.00  0.00    +0.000 A 
ENDROOT
BRANCH   1  10
ATOM      7  C   UNL     1      -0.752  10.318  18.506  0.00  0.00    +0.000 C 
ATOM      8  O   UNL     1      -0.649   9.453  19.661  0.00  0.00    +0.000 OA
ATOM      9  O   UNL     1       0.524   9.880  20.439  0.00  0.00    +0.000 OA
ATOM     10  C   UNL     1       1.663   9.646  19.592  0.00  0.00    +0.000 C 
ATOM     11  O   UNL     1       1.557  10.399  18.361  0.00  0.00    +0.000 OA
ATOM     12  O   UNL     1       0.338  11.249  18.461  0.00  0.00    +0.000 OA
BRANCH   7  17
ATOM     13  C   UNL     1      -6.185  12.441  18.745  0.00  0.00    +0.000 C 
ATOM     14  C   UNL     1      -4.789  11.901  18.644  0.00  0.00    +0.000 A 
ATOM     15  C   UNL     1      -3.790  12.416  19.461  0.00  0.00    +0.000 A 
ATOM     16  C   UNL     1      -2.491  11.919  19.367  0.00  0.00    +0.000 A 
ATOM     17  C   UNL     1      -2.147  10.912  18.446  0.00  0.00    +0.000 A 
ATOM     18  C   UNL     1      -3.157  10.405  17.620  0.00  0.00    +0.000 A 
ATOM     19  C   UNL     1      -4.468  10.899  17.718  0.00  0.00    +0.000 A 
ENDBRANCH   7  17
ENDBRANCH   1  10
BRANCH   4  20
ATOM     20  C   UNL     1       3.029   3.972  19.015  0.00  0.00    +0.000 C 
BRANCH  20  21
ATOM     21  N   UNL     1       4.457   3.956  19.317  0.00  0.00    +0.000 N 
ATOM     22  H   UNL     1       4.755   3.068  19.713  0.00  0.00    +0.000 HD
BRANCH  21  23
ATOM     23  C   UNL     1       5.375   4.452  18.383  0.00  0.00    +0.000 A 
ATOM     24  C   UNL     1       5.400   4.058  17.041  0.00  0.00    +0.000 A 
ATOM     25  C   UNL     1       6.283   4.644  16.126  0.00  0.00    +0.000 A 
ATOM     26  C   UNL     1       7.143   5.661  16.531  0.00  0.00    +0.000 A 
ATOM     27  C   UNL     1       7.122   6.109  17.852  0.00  0.00    +0.000 A 
ATOM     28  C   UNL     1       8.035   7.212  18.304  0.00  0.00    +0.000 C 
ATOM     29  C   UNL     1       6.226   5.509  18.759  0.00  0.00    +0.000 A 
ENDBRANCH  21  23
ENDBRANCH  20  21
ENDBRANCH   4  20
TORSDOF 5
ENDMDL
MODEL 8
REMARK VINA RESULT:      -8.0      3.328      4.626
REMARK  Name = 
REMARK  7 active torsions:
REMARK  status: ('A' for Active; 'I' for Inactive)
REMARK    1  A    between atoms: C_1  and  C_2
REMARK    2  A    between atoms: C_5  and  C_6
REMARK    3  A    between atoms: C_9  and  C_10
REMARK    4  A    between atoms: C_13  and  C_14
REMARK    5  A    between atoms: C_14  and  N_15
REMARK    6  A    between atoms: N_15  and  C_16
REMARK    7  A    between atoms: C_20  and  C_21
REMARK                            x       y       z     vdW  Elec       q    Type
REMARK                         _______ _______ _______ _____ _____    ______ ____
ROOT
ATOM      1  C   UNL     1       0.783  10.945  20.661  0.00  0.00    +0.000 A 
ATOM      2  C   UNL     1       0.832  11.076  19.264  0.00  0.00    +0.000 A 
ATOM      3  C   UNL     1       1.241  10.000  18.459  0.00  0.00    +0.000 A 
ATOM      4  C   UNL     1       1.605   8.769  19.028  0.00  0.00    +0.000 A 
ATOM      5  C   UNL     1       1.472   8.610  20.411  0.00  0.00    +0.000 A 
ATOM      6  C   UNL     1       1.066   9.681  21.212  0.00  0.00    +0.000 A 
ENDROOT
BRANCH   1  10
ATOM      7  C   UNL     1      -2.178  12.571  21.577  0.00  0.00    +0.000 C 
ATOM      8  O   UNL     1      -1.609  11.365  22.135  0.00  0.00    +0.000 OA
ATOM      9  O   UNL     1      -0.299  11.708  22.707  0.00  0.00    +0.000 OA
ATOM     10  C   UNL     1       0.517  12.125  21.598  0.00  0.00    +0.000 C 
ATOM     11  O   UNL     1      -0.067  13.264  20.923  0.00  0.00    +0.000 OA
ATOM     12  O   UNL     1      -1.270  13.674  21.701  0.00  0.00    +0.000 OA
BRANCH   7  17
ATOM     13  C   UNL     1      -7.489  12.922  23.974  0.00  0.00    +0.000 C 
ATOM     14  C   UNL     1      -6.134  12.863  23.335  0.00  0.00    +0.000 A 
ATOM     15  C   UNL     1      -4.995  12.850  24.132  0.00  0.00    +0.000 A 
ATOM     16  C   UNL     1      -3.734  12.798  23.540  0.00  0.00    +0.000 A 
ATOM     17  C   UNL     1      -3.570  12.778  22.142  0.00  0.00    +0.000 A 
ATOM     18  C   UNL     1      -4.722  12.802  21.346  0.00  0.00    +0.000 A 
ATOM     19  C   UNL     1      -5.993  12.845  21.941  0.00  0.00    +0.000 A 
ENDBRANCH   7  17
ENDBRANCH   1  10
BRANCH   4  20
ATOM     20  C   UNL     1       2.213   7.666  18.188  0.00  0.00    +0.000 C 
BRANCH  20  21
ATOM     21  N   UNL     1       2.769   6.639  19.064  0.00  0.00    +0.000 N 
ATOM     22  H   UNL     1       2.960   6.994  19.998  0.00  0.00    +0.000 HD
BRANCH  21  23
ATOM     23  C   UNL     1       2.199   5.360  19.092  0.00  0.00    +0.000 A 
ATOM     24  C   UNL     1       1.852   4.643  17.941  0.00  0.00    +0.000 A 
ATOM     25  C   UNL     1       1.363   3.334  18.019  0.00  0.00    +0.000 A 
ATOM     26  C   UNL     1       1.236   2.702  19.253  0.00  0.00    +0.000 A 
ATOM     27  C   UNL     1       1.608   3.369  20.421  0.00  0.00    +0.000 A 
ATOM     28  C   UNL     1       1.488   2.698  21.759  0.00  0.00    +0.000 C 
ATOM     29  C   UNL     1       2.100   4.686  20.324  0.00  0.00    +0.000 A 
ENDBRANCH  21  23
ENDBRANCH  20  21
ENDBRANCH   4  20
TORSDOF 5
ENDMDL
MODEL 9
REMARK VINA RESULT:      -7.9      5.009      9.564
REMARK  Name = 
REMARK  7 active torsions:
REMARK  status: ('A' for Active; 'I' for Inactive)
REMARK    1  A    between atoms: C_1  and  C_2
REMARK    2  A    between atoms: C_5  and  C_6
REMARK    3  A    between atoms: C_9  and  C_10
REMARK    4  A    between atoms: C_13  and  C_14
REMARK    5  A    between atoms: C_14  and  N_15
REMARK    6  A    between atoms: N_15  and  C_16
REMARK    7  A    between atoms: C_20  and  C_21
REMARK                            x       y       z     vdW  Elec       q    Type
REMARK                         _______ _______ _______ _____ _____    ______ ____
ROOT
ATOM      1  C   UNL     1       5.906   5.832  18.094  0.00  0.00    +0.000 A 
ATOM      2  C   UNL     1       5.579   5.033  19.200  0.00  0.00    +0.000 A 
ATOM      3  C   UNL     1       4.272   5.023  19.714  0.00  0.00    +0.000 A 
ATOM      4  C   UNL     1       3.262   5.807  19.134  0.00  0.00    +0.000 A 
ATOM      5  C   UNL     1       3.566   6.536  17.979  0.00  0.00    +0.000 A 
ATOM      6  C   UNL     1       4.867   6.546  17.469  0.00  0.00    +0.000 A 
ENDROOT
BRANCH   1  10
ATOM      7  C   UNL     1       7.926   8.678  17.829  0.00  0.00    +0.000 C 
ATOM      8  O   UNL     1       7.702   7.843  18.988  0.00  0.00    +0.000 OA
ATOM      9  O   UNL     1       8.182   6.490  18.667  0.00  0.00    +0.000 OA
ATOM     10  C   UNL     1       7.342   6.019  17.599  0.00  0.00    +0.000 C 
ATOM     11  O   UNL     1       7.433   6.888  16.445  0.00  0.00    +0.000 OA
ATOM     12  O   UNL     1       8.470   7.917  16.742  0.00  0.00    +0.000 OA
BRANCH   7  17
ATOM     13  C   UNL     1      10.632  13.450  19.825  0.00  0.00    +0.000 C 
ATOM     14  C   UNL     1       9.955  12.229  19.276  0.00  0.00    +0.000 A 
ATOM     15  C   UNL     1      10.034  11.026  19.968  0.00  0.00    +0.000 A 
ATOM     16  C   UNL     1       9.409   9.890  19.460  0.00  0.00    +0.000 A 
ATOM     17  C   UNL     1       8.704   9.913  18.241  0.00  0.00    +0.000 A 
ATOM     18  C   UNL     1       8.636  11.126  17.545  0.00  0.00    +0.000 A 
ATOM     19  C   UNL     1       9.260  12.274  18.060  0.00  0.00    +0.000 A 
ENDBRANCH   7  17
ENDBRANCH   1  10
BRANCH   4  20
ATOM     20  C   UNL     1       1.901   5.941  19.784  0.00  0.00    +0.000 C 
BRANCH  20  21
ATOM     21  N   UNL     1       1.983   6.886  20.894  0.00  0.00    +0.000 N 
ATOM     22  H   UNL     1       2.926   6.954  21.270  0.00  0.00    +0.000 HD
BRANCH  21  23
ATOM     23  C   UNL     1       1.362   8.137  20.795  0.00  0.00    +0.000 A 
ATOM     24  C   UNL     1       1.303   8.878  19.610  0.00  0.00    +0.000 A 
ATOM     25  C   UNL     1       0.598  10.085  19.541  0.00  0.00    +0.000 A 
ATOM     26  C   UNL     1      -0.088  10.565  20.653  0.00  0.00    +0.000 A 
ATOM     27  C   UNL     1      -0.085   9.835  21.843  0.00  0.00    +0.000 A 
ATOM     28  C   UNL     1      -0.829  10.332  23.049  0.00  0.00    +0.000 C 
ATOM     29  C   UNL     1       0.628   8.622  21.894  0.00  0.00    +0.000 A 
ENDBRANCH  21  23
ENDBRANCH  20  21
ENDBRANCH   4  20
TORSDOF 5
ENDMDL
