MODEL 1
REMARK VINA RESULT:      -8.0      0.000      0.000
REMARK  Name = 
REMARK  4 active torsions:
REMARK  status: ('A' for Active; 'I' for Inactive)
REMARK    1  A    between atoms: C_4  and  C_5
REMARK    2  A    between atoms: C_5  and  C_6
REMARK    3  A    between atoms: C_5  and  N_17
REMARK    4  A    between atoms: C_6  and  C_7
REMARK                            x       y       z     vdW  Elec       q    Type
REMARK                         _______ _______ _______ _____ _____    ______ ____
ROOT
ATOM      1  C   UNL     1       3.500   5.312  18.247  0.00  0.00    +0.000 C 
ENDROOT
BRANCH   1   2
ATOM      2  N   UNL     1       3.225   4.107  17.401  0.00  0.00    +0.000 NA
ATOM      3  C   UNL     1       4.027   2.903  17.736  0.00  0.00    +0.000 C 
ATOM      4  C   UNL     1       3.523   2.016  18.895  0.00  0.00    +0.000 C 
ATOM      5  N   UNL     1       2.081   1.754  18.908  0.00  0.00    +0.000 NA
ATOM      6  C   UNL     1       1.308   2.957  18.591  0.00  0.00    +0.000 C 
ATOM      7  C   UNL     1       1.815   3.683  17.331  0.00  0.00    +0.000 C 
ATOM      8  H   UNL     1       1.810   1.399  19.824  0.00  0.00    +0.000 HD
ENDBRANCH   1   2
BRANCH   1  12
ATOM      9  C   UNL     1       7.728   6.463  18.214  0.00  0.00    +0.000 A 
ATOM     10  C   UNL     1       7.219   5.657  19.231  0.00  0.00    +0.000 A 
ATOM     11  C   UNL     1       5.868   5.291  19.238  0.00  0.00    +0.000 A 
ATOM     12  C   UNL     1       4.992   5.742  18.235  0.00  0.00    +0.000 A 
ATOM     13  C   UNL     1       5.522   6.611  17.259  0.00  0.00    +0.000 A 
ATOM     14  C   UNL     1       6.877   6.943  17.227  0.00  0.00    +0.000 A 
ENDBRANCH   1  12
BRANCH   1  15
ATOM     15  C   UNL     1       2.591   6.592  17.950  0.00  0.00    +0.000 C 
BRANCH  15  16
ATOM     16  C   UNL     1       2.140   7.427  19.153  0.00  0.00    +0.000 A 
ATOM     17  C   UNL     1       1.936   6.777  20.381  0.00  0.00    +0.000 A 
ATOM     18  C   UNL     1       1.159   7.357  21.368  0.00  0.00    +0.000 A 
ATOM     19  C   UNL     1       0.610   8.622  21.168  0.00  0.00    +0.000 A 
ATOM     20  C   UNL     1       0.952   9.363  20.030  0.00  0.00    +0.000 A 
ATOM     21  C   UNL     1       0.463  10.676  19.897  0.00  0.00    +0.000 A 
ATOM     22  C   UNL     1       0.908  11.497  18.864  0.00  0.00    +0.000 A 
ATOM     23  C   UNL     1       1.835  11.011  17.952  0.00  0.00    +0.000 A 
ATOM     24  C   UNL     1       2.248   9.673  18.017  0.00  0.00    +0.000 A 
ATOM     25  C   UNL     1       1.795   8.804  19.041  0.00  0.00    +0.000 A 
ENDBRANCH  15  16
ENDBRANCH   1  15
TORSDOF 4
ENDMDL
MODEL 2
REMARK VINA RESULT:      -8.0      1.547      4.377
REMARK  Name = 
REMARK  4 active torsions:
REMARK  status: ('A' for Active; 'I' for Inactive)
REMARK    1  A    between atoms: C_4  and  C_5
REMARK    2  A    between atoms: C_5  and  C_6
REMARK    3  A    between atoms: C_5  and  N_17
REMARK    4  A    between atoms: C_6  and  C_7
REMARK                            x       y       z     vdW  Elec       q    Type
REMARK                         _______ _______ _______ _____ _____    ______ ____
ROOT
ATOM      1  C   UNL     1       3.396   5.492  18.507  0.00  0.00    +0.000 C 
ENDROOT
BRANCH   1   2
ATOM      2  N   UNL     1       4.771   4.952  18.257  0.00  0.00    +0.000 NA
ATOM      3  C   UNL     1       4.940   4.222  16.975  0.00  0.00    +0.000 C 
ATOM      4  C   UNL     1       5.206   5.065  15.709  0.00  0.00    +0.000 C 
ATOM      5  N   UNL     1       6.172   6.155  15.869  0.00  0.00    +0.000 NA
ATOM      6  C   UNL     1       5.979   6.873  17.131  0.00  0.00    +0.000 C 
ATOM      7  C   UNL     1       5.868   5.932  18.346  0.00  0.00    +0.000 C 
ATOM      8  H   UNL     1       6.087   6.801  15.086  0.00  0.00    +0.000 HD
ENDBRANCH   1   2
BRANCH   1  12
ATOM      9  C   UNL     1       0.541   2.497  19.948  0.00  0.00    +0.000 A 
ATOM     10  C   UNL     1       1.232   3.309  20.846  0.00  0.00    +0.000 A 
ATOM     11  C   UNL     1       2.143   4.265  20.382  0.00  0.00    +0.000 A 
ATOM     12  C   UNL     1       2.396   4.414  19.007  0.00  0.00    +0.000 A 
ATOM     13  C   UNL     1       1.733   3.532  18.129  0.00  0.00    +0.000 A 
ATOM     14  C   UNL     1       0.794   2.607  18.587  0.00  0.00    +0.000 A 
ENDBRANCH   1  12
BRANCH   1  15
ATOM     15  C   UNL     1       3.312   6.763  19.471  0.00  0.00    +0.000 C 
BRANCH  15  16
ATOM     16  C   UNL     1       2.303   7.857  19.106  0.00  0.00    +0.000 A 
ATOM     17  C   UNL     1       2.331   8.387  17.806  0.00  0.00    +0.000 A 
ATOM     18  C   UNL     1       1.759   9.616  17.530  0.00  0.00    +0.000 A 
ATOM     19  C   UNL     1       1.104  10.320  18.538  0.00  0.00    +0.000 A 
ATOM     20  C   UNL     1       0.905   9.727  19.792  0.00  0.00    +0.000 A 
ATOM     21  C   UNL     1       0.155  10.417  20.763  0.00  0.00    +0.000 A 
ATOM     22  C   UNL     1      -0.200   9.797  21.958  0.00  0.00    +0.000 A 
ATOM     23  C   UNL     1       0.200   8.490  22.198  0.00  0.00    +0.000 A 
ATOM     24  C   UNL     1       1.033   7.832  21.281  0.00  0.00    +0.000 A 
ATOM     25  C   UNL     1       1.432   8.444  20.067  0.00  0.00    +0.000 A 
ENDBRANCH  15  16
ENDBRANCH   1  15
TORSDOF 4
ENDMDL
MODEL 3
REMARK VINA RESULT:      -7.9      1.678      4.311
REMARK  Name = 
REMARK  4 active torsions:
REMARK  status: ('A' for Active; 'I' for Inactive)
REMARK    1  A    between atoms: C_4  and  C_5
REMARK    2  A    between atoms: C_5  and  C_6
REMARK    3  A    between atoms: C_5  and  N_17
REMARK    4  A    between atoms: C_6  and  C_7
REMARK                            x       y       z     vdW  Elec       q    Type
REMARK                         _______ _______ _______ _____ _____    ______ ____
ROOT
ATOM      1  C   UNL     1       3.087   5.808  18.839  0.00  0.00    +0.000 C 
ENDROOT
BRANCH   1   2
ATOM      2  N   UNL     1       4.541   5.542  18.591  0.00  0.00    +0.000 NA
ATOM      3  C   UNL     1       4.846   4.229  17.969  0.00  0.00    +0.000 C 
ATOM      4  C   UNL     1       4.721   4.126  16.434  0.00  0.00    +0.000 C 
ATOM      5  N   UNL     1       5.281   5.250  15.679  0.00  0.00    +0.000 NA
ATOM      6  C   UNL     1       4.955   6.537  16.299  0.00  0.00    +0.000 C 
ATOM      7  C   UNL     1       5.254   6.568  17.810  0.00  0.00    +0.000 C 
ATOM      8  H   UNL     1       4.927   5.226  14.724  0.00  0.00    +0.000 HD
ENDBRANCH   1   2
BRANCH   1  12
ATOM      9  C   UNL     1       0.854   2.173  19.834  0.00  0.00    +0.000 A 
ATOM     10  C   UNL     1       0.818   2.697  18.543  0.00  0.00    +0.000 A 
ATOM     11  C   UNL     1       1.533   3.858  18.228  0.00  0.00    +0.000 A 
ATOM     12  C   UNL     1       2.284   4.531  19.207  0.00  0.00    +0.000 A 
ATOM     13  C   UNL     1       2.244   4.015  20.519  0.00  0.00    +0.000 A 
ATOM     14  C   UNL     1       1.565   2.835  20.825  0.00  0.00    +0.000 A 
ENDBRANCH   1  12
BRANCH   1  15
ATOM     15  C   UNL     1       2.762   6.951  19.908  0.00  0.00    +0.000 C 
BRANCH  15  16
ATOM     16  C   UNL     1       1.902   8.128  19.437  0.00  0.00    +0.000 A 
ATOM     17  C   UNL     1       2.050   8.579  18.115  0.00  0.00    +0.000 A 
ATOM     18  C   UNL     1       1.636   9.847  17.749  0.00  0.00    +0.000 A 
ATOM     19  C   UNL     1       1.021  10.675  18.685  0.00  0.00    +0.000 A 
ATOM     20  C   UNL     1       0.699  10.180  19.955  0.00  0.00    +0.000 A 
ATOM     21  C   UNL     1      -0.010  11.003  20.850  0.00  0.00    +0.000 A 
ATOM     22  C   UNL     1      -0.487  10.494  22.055  0.00  0.00    +0.000 A 
ATOM     23  C   UNL     1      -0.251   9.166  22.381  0.00  0.00    +0.000 A 
ATOM     24  C   UNL     1       0.541   8.368  21.543  0.00  0.00    +0.000 A 
ATOM     25  C   UNL     1       1.062   8.863  20.321  0.00  0.00    +0.000 A 
ENDBRANCH  15  16
ENDBRANCH   1  15
TORSDOF 4
ENDMDL
MODEL 4
REMARK VINA RESULT:      -7.9      1.555      4.345
REMARK  Name = 
REMARK  4 active torsions:
REMARK  status: ('A' for Active; 'I' for Inactive)
REMARK    1  A    between atoms: C_4  and  C_5
REMARK    2  A    between atoms: C_5  and  C_6
REMARK    3  A    between atoms: C_5  and  N_17
REMARK    4  A    between atoms: C_6  and  C_7
REMARK                            x       y       z     vdW  Elec       q    Type
REMARK                         _______ _______ _______ _____ _____    ______ ____
ROOT
ATOM      1  C   UNL     1       2.798   5.689  18.250  0.00  0.00    +0.000 C 
ENDROOT
BRANCH   1   2
ATOM      2  N   UNL     1       3.904   5.159  17.391  0.00  0.00    +0.000 NA
ATOM      3  C   UNL     1       4.644   6.182  16.610  0.00  0.00    +0.000 C 
ATOM      4  C   UNL     1       5.776   6.943  17.332  0.00  0.00    +0.000 C 
ATOM      5  N   UNL     1       6.660   6.120  18.163  0.00  0.00    +0.000 NA
ATOM      6  C   UNL     1       5.910   5.128  18.937  0.00  0.00    +0.000 C 
ATOM      7  C   UNL     1       4.908   4.330  18.082  0.00  0.00    +0.000 C 
ATOM      8  H   UNL     1       7.191   6.721  18.791  0.00  0.00    +0.000 HD
ENDBRANCH   1   2
BRANCH   1  12
ATOM      9  C   UNL     1       1.198   2.659  20.980  0.00  0.00    +0.000 A 
ATOM     10  C   UNL     1       0.877   2.633  19.624  0.00  0.00    +0.000 A 
ATOM     11  C   UNL     1       1.390   3.603  18.754  0.00  0.00    +0.000 A 
ATOM     12  C   UNL     1       2.221   4.632  19.230  0.00  0.00    +0.000 A 
ATOM     13  C   UNL     1       2.471   4.670  20.618  0.00  0.00    +0.000 A 
ATOM     14  C   UNL     1       1.993   3.681  21.478  0.00  0.00    +0.000 A 
ENDBRANCH   1  12
BRANCH   1  15
ATOM     15  C   UNL     1       3.129   7.024  19.065  0.00  0.00    +0.000 C 
BRANCH  15  16
ATOM     16  C   UNL     1       2.151   8.195  18.922  0.00  0.00    +0.000 A 
ATOM     17  C   UNL     1       2.105   8.883  17.699  0.00  0.00    +0.000 A 
ATOM     18  C   UNL     1       1.577  10.160  17.624  0.00  0.00    +0.000 A 
ATOM     19  C   UNL     1       1.040  10.757  18.762  0.00  0.00    +0.000 A 
ATOM     20  C   UNL     1       0.909  10.021  19.946  0.00  0.00    +0.000 A 
ATOM     21  C   UNL     1       0.274  10.614  21.053  0.00  0.00    +0.000 A 
ATOM     22  C   UNL     1      -0.018   9.863  22.189  0.00  0.00    +0.000 A 
ATOM     23  C   UNL     1       0.332   8.521  22.233  0.00  0.00    +0.000 A 
ATOM     24  C   UNL     1       1.056   7.949  21.177  0.00  0.00    +0.000 A 
ATOM     25  C   UNL     1       1.390   8.693  20.018  0.00  0.00    +0.000 A 
ENDBRANCH  15  16
ENDBRANCH   1  15
TORSDOF 4
ENDMDL
MODEL 5
REMARK VINA RESULT:      -7.9      2.794      5.130
REMARK  Name = 
REMARK  4 active torsions:
REMARK  status: ('A' for Active; 'I' for Inactive)
REMARK    1  A    between atoms: C_4  and  C_5
REMARK    2  A    between atoms: C_5  and  C_6
REMARK    3  A    between atoms: C_5  and  N_17
REMARK    4  A    between atoms: C_6  and  C_7
REMARK                            x       y       z     vdW  Elec       q    Type
REMARK                         _______ _______ _______ _____ _____    ______ ____
ROOT
ATOM      1  C   UNL     1       5.570   4.723  16.354  0.00  0.00    +0.000 C 
ENDROOT
BRANCH   1   2
ATOM      2  N   UNL     1       6.405   4.002  17.367  0.00  0.00    +0.000 NA
ATOM      3  C   UNL     1       7.755   4.576  17.596  0.00  0.00    +0.000 C 
ATOM      4  C   UNL     1       7.863   5.764  18.577  0.00  0.00    +0.000 C 
ATOM      5  N   UNL     1       7.089   5.633  19.814  0.00  0.00    +0.000 NA
ATOM      6  C   UNL     1       5.755   5.081  19.564  0.00  0.00    +0.000 C 
ATOM      7  C   UNL     1       5.784   3.814  18.690  0.00  0.00    +0.000 C 
ATOM      8  H   UNL     1       7.008   6.545  20.261  0.00  0.00    +0.000 HD
ENDBRANCH   1   2
BRANCH   1  12
ATOM      9  C   UNL     1       6.974   4.264  12.229  0.00  0.00    +0.000 A 
ATOM     10  C   UNL     1       5.878   3.538  12.690  0.00  0.00    +0.000 A 
ATOM     11  C   UNL     1       5.432   3.687  14.009  0.00  0.00    +0.000 A 
ATOM     12  C   UNL     1       6.088   4.554  14.900  0.00  0.00    +0.000 A 
ATOM     13  C   UNL     1       7.235   5.222  14.423  0.00  0.00    +0.000 A 
ATOM     14  C   UNL     1       7.656   5.106  13.098  0.00  0.00    +0.000 A 
ENDBRANCH   1  12
BRANCH   1  15
ATOM     15  C   UNL     1       4.005   4.401  16.386  0.00  0.00    +0.000 C 
BRANCH  15  16
ATOM     16  C   UNL     1       3.153   5.157  17.411  0.00  0.00    +0.000 A 
ATOM     17  C   UNL     1       3.309   6.548  17.515  0.00  0.00    +0.000 A 
ATOM     18  C   UNL     1       2.903   7.224  18.652  0.00  0.00    +0.000 A 
ATOM     19  C   UNL     1       2.287   6.528  19.690  0.00  0.00    +0.000 A 
ATOM     20  C   UNL     1       1.957   5.176  19.531  0.00  0.00    +0.000 A 
ATOM     21  C   UNL     1       1.248   4.521  20.555  0.00  0.00    +0.000 A 
ATOM     22  C   UNL     1       0.763   3.229  20.366  0.00  0.00    +0.000 A 
ATOM     23  C   UNL     1       0.991   2.579  19.161  0.00  0.00    +0.000 A 
ATOM     24  C   UNL     1       1.784   3.186  18.176  0.00  0.00    +0.000 A 
ATOM     25  C   UNL     1       2.312   4.490  18.347  0.00  0.00    +0.000 A 
ENDBRANCH  15  16
ENDBRANCH   1  15
TORSDOF 4
ENDMDL
MODEL 6
REMARK VINA RESULT:      -7.9      0.324      1.033
REMARK  Name = 
REMARK  4 active torsions:
REMARK  status: ('A' for Active; 'I' for Inactive)
REMARK    1  A    between atoms: C_4  and  C_5
REMARK    2  A    between atoms: C_5  and  C_6
REMARK    3  A    between atoms: C_5  and  N_17
REMARK    4  A    between atoms: C_6  and  C_7
REMARK                            x       y       z     vdW  Elec       q    Type
REMARK                         _______ _______ _______ _____ _____    ______ ____
ROOT
ATOM      1  C   UNL     1       3.332   5.570  18.256  0.00  0.00    +0.000 C 
ENDROOT
BRANCH   1   2
ATOM      2  N   UNL     1       2.908   4.435  17.376  0.00  0.00    +0.000 NA
ATOM      3  C   UNL     1       3.772   3.229  17.441  0.00  0.00    +0.000 C 
ATOM      4  C   UNL     1       3.514   2.233  18.592  0.00  0.00    +0.000 C 
ATOM      5  N   UNL     1       2.105   1.933  18.861  0.00  0.00    +0.000 NA
ATOM      6  C   UNL     1       1.272   3.137  18.809  0.00  0.00    +0.000 C 
ATOM      7  C   UNL     1       1.516   3.981  17.544  0.00  0.00    +0.000 C 
ATOM      8  H   UNL     1       2.021   1.493  19.777  0.00  0.00    +0.000 HD
ENDBRANCH   1   2
BRANCH   1  12
ATOM      9  C   UNL     1       7.655   6.279  18.281  0.00  0.00    +0.000 A 
ATOM     10  C   UNL     1       6.866   6.742  17.230  0.00  0.00    +0.000 A 
ATOM     11  C   UNL     1       5.485   6.514  17.225  0.00  0.00    +0.000 A 
ATOM     12  C   UNL     1       4.867   5.799  18.266  0.00  0.00    +0.000 A 
ATOM     13  C   UNL     1       5.702   5.284  19.279  0.00  0.00    +0.000 A 
ATOM     14  C   UNL     1       7.073   5.546  19.306  0.00  0.00    +0.000 A 
ENDBRANCH   1  12
BRANCH   1  15
ATOM     15  C   UNL     1       2.602   6.967  17.989  0.00  0.00    +0.000 C 
BRANCH  15  16
ATOM     16  C   UNL     1       2.068   7.725  19.208  0.00  0.00    +0.000 A 
ATOM     17  C   UNL     1       1.880   7.018  20.407  0.00  0.00    +0.000 A 
ATOM     18  C   UNL     1       1.043   7.508  21.394  0.00  0.00    +0.000 A 
ATOM     19  C   UNL     1       0.415   8.739  21.225  0.00  0.00    +0.000 A 
ATOM     20  C   UNL     1       0.732   9.543  20.122  0.00  0.00    +0.000 A 
ATOM     21  C   UNL     1       0.159  10.825  20.023  0.00  0.00    +0.000 A 
ATOM     22  C   UNL     1       0.572  11.711  19.032  0.00  0.00    +0.000 A 
ATOM     23  C   UNL     1       1.549  11.323  18.127  0.00  0.00    +0.000 A 
ATOM     24  C   UNL     1       2.051  10.014  18.156  0.00  0.00    +0.000 A 
ATOM     25  C   UNL     1       1.633   9.079  19.136  0.00  0.00    +0.000 A 
ENDBRANCH  15  16
ENDBRANCH   1  15
TORSDOF 4
ENDMDL
MODEL 7
REMARK VINA RESULT:      -7.8      3.132      5.782
REMARK  Name = 
REMARK  4 active torsions:
REMARK  status: ('A' for Active; 'I' for Inactive)
REMARK    1  A    between atoms: C_4  and  C_5
REMARK    2  A    between atoms: C_5  and  C_6
REMARK    3  A    between atoms: C_5  and  N_17
REMARK    4  A    between atoms: C_6  and  C_7
REMARK                            x       y       z     vdW  Elec       q    Type
REMARK                         _______ _______ _______ _____ _____    ______ ____
ROOT
ATOM      1  C   UNL     1       6.088   5.076  15.673  0.00  0.00    +0.000 C 
ENDROOT
BRANCH   1   2
ATOM      2  N   UNL     1       7.414   5.294  16.335  0.00  0.00    +0.000 NA
ATOM      3  C   UNL     1       7.659   6.676  16.820  0.00  0.00    +0.000 C 
ATOM      4  C   UNL     1       7.079   7.056  18.200  0.00  0.00    +0.000 C 
ATOM      5  N   UNL     1       7.247   6.050  19.253  0.00  0.00    +0.000 NA
ATOM      6  C   UNL     1       6.986   4.696  18.758  0.00  0.00    +0.000 C 
ATOM      7  C   UNL     1       7.731   4.381  17.448  0.00  0.00    +0.000 C 
ATOM      8  H   UNL     1       6.621   6.263  20.028  0.00  0.00    +0.000 HD
ENDBRANCH   1   2
BRANCH   1  12
ATOM      9  C   UNL     1       6.486   3.575  11.575  0.00  0.00    +0.000 A 
ATOM     10  C   UNL     1       7.458   4.410  12.123  0.00  0.00    +0.000 A 
ATOM     11  C   UNL     1       7.329   4.887  13.433  0.00  0.00    +0.000 A 
ATOM     12  C   UNL     1       6.209   4.554  14.215  0.00  0.00    +0.000 A 
ATOM     13  C   UNL     1       5.210   3.765  13.609  0.00  0.00    +0.000 A 
ATOM     14  C   UNL     1       5.357   3.255  12.318  0.00  0.00    +0.000 A 
ENDBRANCH   1  12
BRANCH   1  15
ATOM     15  C   UNL     1       5.056   4.152  16.470  0.00  0.00    +0.000 C 
BRANCH  15  16
ATOM     16  C   UNL     1       3.910   4.853  17.206  0.00  0.00    +0.000 A 
ATOM     17  C   UNL     1       3.897   6.256  17.243  0.00  0.00    +0.000 A 
ATOM     18  C   UNL     1       3.162   6.932  18.201  0.00  0.00    +0.000 A 
ATOM     19  C   UNL     1       2.385   6.220  19.111  0.00  0.00    +0.000 A 
ATOM     20  C   UNL     1       2.239   4.834  18.976  0.00  0.00    +0.000 A 
ATOM     21  C   UNL     1       1.372   4.149  19.848  0.00  0.00    +0.000 A 
ATOM     22  C   UNL     1       1.078   2.804  19.644  0.00  0.00    +0.000 A 
ATOM     23  C   UNL     1       1.656   2.129  18.577  0.00  0.00    +0.000 A 
ATOM     24  C   UNL     1       2.599   2.776  17.766  0.00  0.00    +0.000 A 
ATOM     25  C   UNL     1       2.938   4.138  17.963  0.00  0.00    +0.000 A 
ENDBRANCH  15  16
ENDBRANCH   1  15
TORSDOF 4
ENDMDL
MODEL 8
REMARK VINA RESULT:      -7.7      0.901      2.274
REMARK  Name = 
REMARK  4 active torsions:
REMARK  status: ('A' for Active; 'I' for Inactive)
REMARK    1  A    between atoms: C_4  and  C_5
REMARK    2  A    between atoms: C_5  and  C_6
REMARK    3  A    between atoms: C_5  and  N_17
REMARK    4  A    between atoms: C_6  and  C_7
REMARK                            x       y       z     vdW  Elec       q    Type
REMARK                         _______ _______ _______ _____ _____    ______ ____
ROOT
ATOM      1  C   UNL     1       3.607   5.035  19.202  0.00  0.00    +0.000 C 
ENDROOT
BRANCH   1   2
ATOM      2  N   UNL     1       2.708   4.496  18.132  0.00  0.00    +0.000 NA
ATOM      3  C   UNL     1       3.280   3.390  17.324  0.00  0.00    +0.000 C 
ATOM      4  C   UNL     1       3.186   1.964  17.908  0.00  0.00    +0.000 C 
ATOM      5  N   UNL     1       1.898   1.613  18.512  0.00  0.00    +0.000 NA
ATOM      6  C   UNL     1       1.358   2.711  19.318  0.00  0.00    +0.000 C 
ATOM      7  C   UNL     1       1.372   4.062  18.578  0.00  0.00    +0.000 C 
ATOM      8  H   UNL     1       2.009   0.782  19.090  0.00  0.00    +0.000 HD
ENDBRANCH   1   2
BRANCH   1  12
ATOM      9  C   UNL     1       7.419   6.553  17.666  0.00  0.00    +0.000 A 
ATOM     10  C   UNL     1       6.243   6.718  16.936  0.00  0.00    +0.000 A 
ATOM     11  C   UNL     1       5.027   6.232  17.430  0.00  0.00    +0.000 A 
ATOM     12  C   UNL     1       4.966   5.552  18.659  0.00  0.00    +0.000 A 
ATOM     13  C   UNL     1       6.183   5.341  19.340  0.00  0.00    +0.000 A 
ATOM     14  C   UNL     1       7.390   5.861  18.869  0.00  0.00    +0.000 A 
ENDBRANCH   1  12
BRANCH   1  15
ATOM     15  C   UNL     1       2.969   6.153  20.149  0.00  0.00    +0.000 C 
BRANCH  15  16
ATOM     16  C   UNL     1       2.220   7.304  19.470  0.00  0.00    +0.000 A 
ATOM     17  C   UNL     1       2.466   7.555  18.111  0.00  0.00    +0.000 A 
ATOM     18  C   UNL     1       2.162   8.782  17.550  0.00  0.00    +0.000 A 
ATOM     19  C   UNL     1       1.558   9.770  18.326  0.00  0.00    +0.000 A 
ATOM     20  C   UNL     1       1.138   9.479  19.630  0.00  0.00    +0.000 A 
ATOM     21  C   UNL     1       0.443  10.462  20.359  0.00  0.00    +0.000 A 
ATOM     22  C   UNL     1      -0.130  10.158  21.591  0.00  0.00    +0.000 A 
ATOM     23  C   UNL     1      -0.005   8.876  22.109  0.00  0.00    +0.000 A 
ATOM     24  C   UNL     1       0.772   7.921  21.437  0.00  0.00    +0.000 A 
ATOM     25  C   UNL     1       1.388   8.207  20.194  0.00  0.00    +0.000 A 
ENDBRANCH  15  16
ENDBRANCH   1  15
TORSDOF 4
ENDMDL
MODEL 9
REMARK VINA RESULT:      -7.7      1.499      5.635
REMARK  Name = 
REMARK  4 active torsions:
REMARK  status: ('A' for Active; 'I' for Inactive)
REMARK    1  A    between atoms: C_4  and  C_5
REMARK    2  A    between atoms: C_5  and  C_6
REMARK    3  A    between atoms: C_5  and  N_17
REMARK    4  A    between atoms: C_6  and  C_7
REMARK                            x       y       z     vdW  Elec       q    Type
REMARK                         _______ _______ _______ _____ _____    ______ ____
ROOT
ATOM      1  C   UNL     1       3.314   5.034  19.235  0.00  0.00    +0.000 C 
ENDROOT
BRANCH   1   2
ATOM      2  N   UNL     1       2.422   4.114  20.011  0.00  0.00    +0.000 NA
ATOM      3  C   UNL     1       1.162   3.730  19.328  0.00  0.00    +0.000 C 
ATOM      4  C   UNL     1       1.230   2.565  18.317  0.00  0.00    +0.000 C 
ATOM      5  N   UNL     1       2.015   1.404  18.745  0.00  0.00    +0.000 NA
ATOM      6  C   UNL     1       3.262   1.803  19.402  0.00  0.00    +0.000 C 
ATOM      7  C   UNL     1       3.051   2.871  20.492  0.00  0.00    +0.000 C 
ATOM      8  H   UNL     1       2.221   0.818  17.937  0.00  0.00    +0.000 HD
ENDBRANCH   1   2
BRANCH   1  12
ATOM      9  C   UNL     1       1.677   9.078  18.826  0.00  0.00    +0.000 A 
ATOM     10  C   UNL     1       2.365   8.480  17.771  0.00  0.00    +0.000 A 
ATOM     11  C   UNL     1       2.886   7.188  17.905  0.00  0.00    +0.000 A 
ATOM     12  C   UNL     1       2.746   6.474  19.108  0.00  0.00    +0.000 A 
ATOM     13  C   UNL     1       2.107   7.133  20.179  0.00  0.00    +0.000 A 
ATOM     14  C   UNL     1       1.551   8.405  20.033  0.00  0.00    +0.000 A 
ENDBRANCH   1  12
BRANCH   1  15
ATOM     15  C   UNL     1       4.830   5.118  19.733  0.00  0.00    +0.000 C 
BRANCH  15  16
ATOM     16  C   UNL     1       5.902   5.400  18.675  0.00  0.00    +0.000 A 
ATOM     17  C   UNL     1       6.998   6.202  19.030  0.00  0.00    +0.000 A 
ATOM     18  C   UNL     1       7.764   6.824  18.060  0.00  0.00    +0.000 A 
ATOM     19  C   UNL     1       7.478   6.619  16.712  0.00  0.00    +0.000 A 
ATOM     20  C   UNL     1       6.509   5.681  16.334  0.00  0.00    +0.000 A 
ATOM     21  C   UNL     1       6.307   5.420  14.967  0.00  0.00    +0.000 A 
ATOM     22  C   UNL     1       5.471   4.383  14.559  0.00  0.00    +0.000 A 
ATOM     23  C   UNL     1       4.823   3.609  15.511  0.00  0.00    +0.000 A 
ATOM     24  C   UNL     1       4.938   3.928  16.872  0.00  0.00    +0.000 A 
ATOM     25  C   UNL     1       5.761   4.992  17.318  0.00  0.00    +0.000 A 
ENDBRANCH  15  16
ENDBRANCH   1  15
TORSDOF 4
ENDMDL
