MODEL 1
REMARK VINA RESULT:      -7.9      0.000      0.000
REMARK  Name = 
REMARK  4 active torsions:
REMARK  status: ('A' for Active; 'I' for Inactive)
REMARK    1  A    between atoms: C_2  and  C_3
REMARK    2  A    between atoms: C_2  and  C_21
REMARK    3  A    between atoms: N_5  and  C_6
REMARK    4  A    between atoms: C_6  and  C_7
REMARK                            x       y       z     vdW  Elec       q    Type
REMARK                         _______ _______ _______ _____ _____    ______ ____
ROOT
ATOM      1  C   UNL     1       4.608   6.061  17.052  0.00  0.00    +0.000 A 
ATOM      2  C   UNL     1       4.112   7.186  17.689  0.00  0.00    +0.000 A 
ATOM      3  N   UNL     1       2.945   6.864  18.337  0.00  0.00    +0.000 N 
ATOM      4  C   UNL     1       2.693   5.517  18.178  0.00  0.00    +0.000 A 
ATOM      5  C   UNL     1       1.679   4.698  18.706  0.00  0.00    +0.000 A 
ATOM      6  C   UNL     1       1.679   3.342  18.366  0.00  0.00    +0.000 A 
ATOM      7  C   UNL     1       2.646   2.807  17.528  0.00  0.00    +0.000 A 
ATOM      8  C   UNL     1       3.657   3.624  17.012  0.00  0.00    +0.000 A 
ATOM      9  C   UNL     1       3.691   5.001  17.339  0.00  0.00    +0.000 A 
ENDROOT
BRANCH   1  11
ATOM     10  O   UNL     1       5.924   5.979  15.075  0.00  0.00    +0.000 OA
ATOM     11  C   UNL     1       5.856   5.995  16.295  0.00  0.00    +0.000 C 
BRANCH  11  12
ATOM     12  C   UNL     1       7.082   5.925  17.154  0.00  0.00    +0.000 C 
ATOM     13  C   UNL     1       7.050   5.470  18.592  0.00  0.00    +0.000 C 
ATOM     14  C   UNL     1       7.659   4.585  17.543  0.00  0.00    +0.000 C 
ENDBRANCH  11  12
ENDBRANCH   1  11
BRANCH   3  15
ATOM     15  C   UNL     1       2.226   7.791  19.205  0.00  0.00    +0.000 C 
BRANCH  15  16
ATOM     16  C   UNL     1       1.579   8.978  18.507  0.00  0.00    +0.000 C 
ATOM     17  O   UNL     1       1.937   9.292  17.369  0.00  0.00    +0.000 OA
ATOM     18  N   UNL     1       0.501   9.605  19.128  0.00  0.00    +0.000 N 
ATOM     19  C   UNL     1      -0.252  10.618  18.381  0.00  0.00    +0.000 C 
ATOM     20  C   UNL     1       0.122  12.020  18.853  0.00  0.00    +0.000 C 
ATOM     21  C   UNL     1      -0.073  12.144  20.364  0.00  0.00    +0.000 C 
ATOM     22  C   UNL     1       0.692  11.044  21.103  0.00  0.00    +0.000 C 
ATOM     23  C   UNL     1       0.315   9.659  20.577  0.00  0.00    +0.000 C 
ENDBRANCH  15  16
ENDBRANCH   3  15
TORSDOF 4
ENDMDL
MODEL 2
REMARK VINA RESULT:      -7.8      4.569      5.694
REMARK  Name = 
REMARK  4 active torsions:
REMARK  status: ('A' for Active; 'I' for Inactive)
REMARK    1  A    between atoms: C_2  and  C_3
REMARK    2  A    between atoms: C_2  and  C_21
REMARK    3  A    between atoms: N_5  and  C_6
REMARK    4  A    between atoms: C_6  and  C_7
REMARK                            x       y       z     vdW  Elec       q    Type
REMARK                         _______ _______ _______ _____ _____    ______ ____
ROOT
ATOM      1  C   UNL     1       6.112   5.076  17.566  0.00  0.00    +0.000 A 
ATOM      2  C   UNL     1       4.901   4.471  17.858  0.00  0.00    +0.000 A 
ATOM      3  N   UNL     1       4.376   3.931  16.710  0.00  0.00    +0.000 N 
ATOM      4  C   UNL     1       5.258   4.129  15.668  0.00  0.00    +0.000 A 
ATOM      5  C   UNL     1       5.217   3.702  14.329  0.00  0.00    +0.000 A 
ATOM      6  C   UNL     1       6.275   4.059  13.487  0.00  0.00    +0.000 A 
ATOM      7  C   UNL     1       7.342   4.817  13.950  0.00  0.00    +0.000 A 
ATOM      8  C   UNL     1       7.382   5.232  15.285  0.00  0.00    +0.000 A 
ATOM      9  C   UNL     1       6.329   4.885  16.165  0.00  0.00    +0.000 A 
ENDROOT
BRANCH   1  11
ATOM     10  O   UNL     1       6.989   5.492  19.736  0.00  0.00    +0.000 OA
ATOM     11  C   UNL     1       6.993   5.723  18.536  0.00  0.00    +0.000 C 
BRANCH  11  12
ATOM     12  C   UNL     1       7.915   6.739  17.932  0.00  0.00    +0.000 C 
ATOM     13  C   UNL     1       7.467   8.128  17.550  0.00  0.00    +0.000 C 
ATOM     14  C   UNL     1       8.360   7.934  18.741  0.00  0.00    +0.000 C 
ENDBRANCH  11  12
ENDBRANCH   1  11
BRANCH   3  15
ATOM     15  C   UNL     1       3.165   3.117  16.687  0.00  0.00    +0.000 C 
BRANCH  15  16
ATOM     16  C   UNL     1       2.083   3.518  17.678  0.00  0.00    +0.000 C 
ATOM     17  O   UNL     1       1.343   4.474  17.425  0.00  0.00    +0.000 OA
ATOM     18  N   UNL     1       1.873   2.712  18.794  0.00  0.00    +0.000 N 
ATOM     19  C   UNL     1       0.712   2.978  19.649  0.00  0.00    +0.000 C 
ATOM     20  C   UNL     1       1.140   3.688  20.930  0.00  0.00    +0.000 C 
ATOM     21  C   UNL     1       2.222   2.882  21.650  0.00  0.00    +0.000 C 
ATOM     22  C   UNL     1       3.395   2.589  20.712  0.00  0.00    +0.000 C 
ATOM     23  C   UNL     1       2.919   1.911  19.427  0.00  0.00    +0.000 C 
ENDBRANCH  15  16
ENDBRANCH   3  15
TORSDOF 4
ENDMDL
MODEL 3
REMARK VINA RESULT:      -7.8      3.828      5.499
REMARK  Name = 
REMARK  4 active torsions:
REMARK  status: ('A' for Active; 'I' for Inactive)
REMARK    1  A    between atoms: C_2  and  C_3
REMARK    2  A    between atoms: C_2  and  C_21
REMARK    3  A    between atoms: N_5  and  C_6
REMARK    4  A    between atoms: C_6  and  C_7
REMARK                            x       y       z     vdW  Elec       q    Type
REMARK                         _______ _______ _______ _____ _____    ______ ____
ROOT
ATOM      1  C   UNL     1       6.022   4.920  15.708  0.00  0.00    +0.000 A 
ATOM      2  C   UNL     1       4.661   5.114  15.875  0.00  0.00    +0.000 A 
ATOM      3  N   UNL     1       4.392   5.316  17.207  0.00  0.00    +0.000 N 
ATOM      4  C   UNL     1       5.576   5.310  17.916  0.00  0.00    +0.000 A 
ATOM      5  C   UNL     1       5.837   5.547  19.277  0.00  0.00    +0.000 A 
ATOM      6  C   UNL     1       7.162   5.474  19.719  0.00  0.00    +0.000 A 
ATOM      7  C   UNL     1       8.198   5.172  18.848  0.00  0.00    +0.000 A 
ATOM      8  C   UNL     1       7.933   4.946  17.493  0.00  0.00    +0.000 A 
ATOM      9  C   UNL     1       6.605   5.017  17.011  0.00  0.00    +0.000 A 
ENDROOT
BRANCH   1  11
ATOM     10  O   UNL     1       7.615   5.410  14.013  0.00  0.00    +0.000 OA
ATOM     11  C   UNL     1       6.699   4.717  14.429  0.00  0.00    +0.000 C 
BRANCH  11  12
ATOM     12  C   UNL     1       6.153   3.571  13.631  0.00  0.00    +0.000 C 
ATOM     13  C   UNL     1       5.077   3.738  12.587  0.00  0.00    +0.000 C 
ATOM     14  C   UNL     1       6.486   3.443  12.164  0.00  0.00    +0.000 C 
ENDBRANCH  11  12
ENDBRANCH   1  11
BRANCH   3  15
ATOM     15  C   UNL     1       3.070   5.670  17.714  0.00  0.00    +0.000 C 
BRANCH  15  16
ATOM     16  C   UNL     1       2.113   4.507  17.924  0.00  0.00    +0.000 C 
ATOM     17  O   UNL     1       1.167   4.342  17.148  0.00  0.00    +0.000 OA
ATOM     18  N   UNL     1       2.405   3.579  18.920  0.00  0.00    +0.000 N 
ATOM     19  C   UNL     1       1.600   2.356  19.003  0.00  0.00    +0.000 C 
ATOM     20  C   UNL     1       0.601   2.447  20.153  0.00  0.00    +0.000 C 
ATOM     21  C   UNL     1       1.324   2.761  21.463  0.00  0.00    +0.000 C 
ATOM     22  C   UNL     1       2.185   4.017  21.322  0.00  0.00    +0.000 C 
ATOM     23  C   UNL     1       3.146   3.899  20.139  0.00  0.00    +0.000 C 
ENDBRANCH  15  16
ENDBRANCH   3  15
TORSDOF 4
ENDMDL
MODEL 4
REMARK VINA RESULT:      -7.8      1.185      1.575
REMARK  Name = 
REMARK  4 active torsions:
REMARK  status: ('A' for Active; 'I' for Inactive)
REMARK    1  A    between atoms: C_2  and  C_3
REMARK    2  A    between atoms: C_2  and  C_21
REMARK    3  A    between atoms: N_5  and  C_6
REMARK    4  A    between atoms: C_6  and  C_7
REMARK                            x       y       z     vdW  Elec       q    Type
REMARK                         _______ _______ _______ _____ _____    ______ ____
ROOT
ATOM      1  C   UNL     1       4.656   5.218  17.332  0.00  0.00    +0.000 A 
ATOM      2  C   UNL     1       4.315   6.429  17.911  0.00  0.00    +0.000 A 
ATOM      3  N   UNL     1       3.096   6.307  18.532  0.00  0.00    +0.000 N 
ATOM      4  C   UNL     1       2.653   5.005  18.414  0.00  0.00    +0.000 A 
ATOM      5  C   UNL     1       1.516   4.366  18.938  0.00  0.00    +0.000 A 
ATOM      6  C   UNL     1       1.324   3.012  18.646  0.00  0.00    +0.000 A 
ATOM      7  C   UNL     1       2.224   2.309  17.859  0.00  0.00    +0.000 A 
ATOM      8  C   UNL     1       3.358   2.947  17.347  0.00  0.00    +0.000 A 
ATOM      9  C   UNL     1       3.585   4.316  17.626  0.00  0.00    +0.000 A 
ENDROOT
BRANCH   1  11
ATOM     10  O   UNL     1       6.921   4.521  17.143  0.00  0.00    +0.000 OA
ATOM     11  C   UNL     1       5.901   4.940  16.617  0.00  0.00    +0.000 C 
BRANCH  11  12
ATOM     12  C   UNL     1       5.834   5.236  15.149  0.00  0.00    +0.000 C 
ATOM     13  C   UNL     1       6.936   4.864  14.187  0.00  0.00    +0.000 C 
ATOM     14  C   UNL     1       5.635   4.114  14.159  0.00  0.00    +0.000 C 
ENDBRANCH  11  12
ENDBRANCH   1  11
BRANCH   3  15
ATOM     15  C   UNL     1       2.500   7.363  19.343  0.00  0.00    +0.000 C 
BRANCH  15  16
ATOM     16  C   UNL     1       1.889   8.521  18.569  0.00  0.00    +0.000 C 
ATOM     17  O   UNL     1       2.297   8.784  17.433  0.00  0.00    +0.000 OA
ATOM     18  N   UNL     1       0.791   9.180  19.117  0.00  0.00    +0.000 N 
ATOM     19  C   UNL     1       0.077  10.164  18.296  0.00  0.00    +0.000 C 
ATOM     20  C   UNL     1       0.441  11.583  18.722  0.00  0.00    +0.000 C 
ATOM     21  C   UNL     1       0.185  11.773  20.217  0.00  0.00    +0.000 C 
ATOM     22  C   UNL     1       0.911  10.703  21.034  0.00  0.00    +0.000 C 
ATOM     23  C   UNL     1       0.546   9.298  20.553  0.00  0.00    +0.000 C 
ENDBRANCH  15  16
ENDBRANCH   3  15
TORSDOF 4
ENDMDL
MODEL 5
REMARK VINA RESULT:      -7.8      1.753      2.348
REMARK  Name = 
REMARK  4 active torsions:
REMARK  status: ('A' for Active; 'I' for Inactive)
REMARK    1  A    between atoms: C_2  and  C_3
REMARK    2  A    between atoms: C_2  and  C_21
REMARK    3  A    between atoms: N_5  and  C_6
REMARK    4  A    between atoms: C_6  and  C_7
REMARK                            x       y       z     vdW  Elec       q    Type
REMARK                         _______ _______ _______ _____ _____    ______ ____
ROOT
ATOM      1  C   UNL     1       4.992   4.932  17.704  0.00  0.00    +0.000 A 
ATOM      2  C   UNL     1       4.478   6.210  17.850  0.00  0.00    +0.000 A 
ATOM      3  N   UNL     1       3.118   6.135  18.025  0.00  0.00    +0.000 N 
ATOM      4  C   UNL     1       2.734   4.810  18.052  0.00  0.00    +0.000 A 
ATOM      5  C   UNL     1       1.481   4.216  18.281  0.00  0.00    +0.000 A 
ATOM      6  C   UNL     1       1.393   2.821  18.247  0.00  0.00    +0.000 A 
ATOM      7  C   UNL     1       2.506   2.033  17.992  0.00  0.00    +0.000 A 
ATOM      8  C   UNL     1       3.753   2.629  17.773  0.00  0.00    +0.000 A 
ATOM      9  C   UNL     1       3.878   4.038  17.805  0.00  0.00    +0.000 A 
ENDROOT
BRANCH   1  11
ATOM     10  O   UNL     1       7.248   4.710  18.418  0.00  0.00    +0.000 OA
ATOM     11  C   UNL     1       6.405   4.598  17.540  0.00  0.00    +0.000 C 
BRANCH  11  12
ATOM     12  C   UNL     1       6.756   4.114  16.166  0.00  0.00    +0.000 C 
ATOM     13  C   UNL     1       5.808   4.209  14.996  0.00  0.00    +0.000 C 
ATOM     14  C   UNL     1       7.011   5.106  15.056  0.00  0.00    +0.000 C 
ENDBRANCH  11  12
ENDBRANCH   1  11
BRANCH   3  15
ATOM     15  C   UNL     1       2.283   7.293  18.328  0.00  0.00    +0.000 C 
BRANCH  15  16
ATOM     16  C   UNL     1       1.903   7.466  19.790  0.00  0.00    +0.000 C 
ATOM     17  O   UNL     1       1.957   6.500  20.557  0.00  0.00    +0.000 OA
ATOM     18  N   UNL     1       1.621   8.748  20.256  0.00  0.00    +0.000 N 
ATOM     19  C   UNL     1       1.445   8.952  21.698  0.00  0.00    +0.000 C 
ATOM     20  C   UNL     1      -0.034   9.103  22.041  0.00  0.00    +0.000 C 
ATOM     21  C   UNL     1      -0.663  10.222  21.211  0.00  0.00    +0.000 C 
ATOM     22  C   UNL     1      -0.420   9.995  19.718  0.00  0.00    +0.000 C 
ATOM     23  C   UNL     1       1.069   9.814  19.422  0.00  0.00    +0.000 C 
ENDBRANCH  15  16
ENDBRANCH   3  15
TORSDOF 4
ENDMDL
MODEL 6
REMARK VINA RESULT:      -7.6      1.000      1.115
REMARK  Name = 
REMARK  4 active torsions:
REMARK  status: ('A' for Active; 'I' for Inactive)
REMARK    1  A    between atoms: C_2  and  C_3
REMARK    2  A    between atoms: C_2  and  C_21
REMARK    3  A    between atoms: N_5  and  C_6
REMARK    4  A    between atoms: C_6  and  C_7
REMARK                            x       y       z     vdW  Elec       q    Type
REMARK                         _______ _______ _______ _____ _____    ______ ____
ROOT
ATOM      1  C   UNL     1       4.176   6.185  17.384  0.00  0.00    +0.000 A 
ATOM      2  C   UNL     1       3.727   7.170  18.248  0.00  0.00    +0.000 A 
ATOM      3  N   UNL     1       2.675   6.683  18.984  0.00  0.00    +0.000 N 
ATOM      4  C   UNL     1       2.458   5.362  18.651  0.00  0.00    +0.000 A 
ATOM      5  C   UNL     1       1.561   4.414  19.172  0.00  0.00    +0.000 A 
ATOM      6  C   UNL     1       1.568   3.126  18.626  0.00  0.00    +0.000 A 
ATOM      7  C   UNL     1       2.431   2.783  17.596  0.00  0.00    +0.000 A 
ATOM      8  C   UNL     1       3.328   3.728  17.087  0.00  0.00    +0.000 A 
ATOM      9  C   UNL     1       3.350   5.040  17.619  0.00  0.00    +0.000 A 
ENDROOT
BRANCH   1  11
ATOM     10  O   UNL     1       5.214   6.609  15.289  0.00  0.00    +0.000 OA
ATOM     11  C   UNL     1       5.308   6.310  16.470  0.00  0.00    +0.000 C 
BRANCH  11  12
ATOM     12  C   UNL     1       6.634   6.013  17.105  0.00  0.00    +0.000 C 
ATOM     13  C   UNL     1       6.784   5.112  18.306  0.00  0.00    +0.000 C 
ATOM     14  C   UNL     1       7.253   4.643  16.959  0.00  0.00    +0.000 C 
ENDBRANCH  11  12
ENDBRANCH   1  11
BRANCH   3  15
ATOM     15  C   UNL     1       2.046   7.425  20.073  0.00  0.00    +0.000 C 
BRANCH  15  16
ATOM     16  C   UNL     1       1.354   8.719  19.674  0.00  0.00    +0.000 C 
ATOM     17  O   UNL     1       1.780   9.374  18.718  0.00  0.00    +0.000 OA
ATOM     18  N   UNL     1       0.173   9.068  20.324  0.00  0.00    +0.000 N 
ATOM     19  C   UNL     1      -0.603  10.204  19.817  0.00  0.00    +0.000 C 
ATOM     20  C   UNL     1      -0.404  11.428  20.706  0.00  0.00    +0.000 C 
ATOM     21  C   UNL     1      -0.740  11.093  22.159  0.00  0.00    +0.000 C 
ATOM     22  C   UNL     1       0.056   9.877  22.635  0.00  0.00    +0.000 C 
ATOM     23  C   UNL     1      -0.143   8.685  21.699  0.00  0.00    +0.000 C 
ENDBRANCH  15  16
ENDBRANCH   3  15
TORSDOF 4
ENDMDL
MODEL 7
REMARK VINA RESULT:      -7.6      1.480      1.832
REMARK  Name = 
REMARK  4 active torsions:
REMARK  status: ('A' for Active; 'I' for Inactive)
REMARK    1  A    between atoms: C_2  and  C_3
REMARK    2  A    between atoms: C_2  and  C_21
REMARK    3  A    between atoms: N_5  and  C_6
REMARK    4  A    between atoms: C_6  and  C_7
REMARK                            x       y       z     vdW  Elec       q    Type
REMARK                         _______ _______ _______ _____ _____    ______ ____
ROOT
ATOM      1  C   UNL     1       3.755   5.358  18.166  0.00  0.00    +0.000 A 
ATOM      2  C   UNL     1       3.464   6.455  18.960  0.00  0.00    +0.000 A 
ATOM      3  N   UNL     1       2.363   6.176  19.733  0.00  0.00    +0.000 N 
ATOM      4  C   UNL     1       1.956   4.879  19.495  0.00  0.00    +0.000 A 
ATOM      5  C   UNL     1       0.940   4.107  20.086  0.00  0.00    +0.000 A 
ATOM      6  C   UNL     1       0.756   2.797  19.633  0.00  0.00    +0.000 A 
ATOM      7  C   UNL     1       1.547   2.263  18.625  0.00  0.00    +0.000 A 
ATOM      8  C   UNL     1       2.562   3.033  18.047  0.00  0.00    +0.000 A 
ATOM      9  C   UNL     1       2.778   4.362  18.485  0.00  0.00    +0.000 A 
ENDROOT
BRANCH   1  11
ATOM     10  O   UNL     1       4.863   5.650  16.084  0.00  0.00    +0.000 OA
ATOM     11  C   UNL     1       4.880   5.256  17.240  0.00  0.00    +0.000 C 
BRANCH  11  12
ATOM     12  C   UNL     1       6.089   4.591  17.829  0.00  0.00    +0.000 C 
ATOM     13  C   UNL     1       7.444   4.621  17.166  0.00  0.00    +0.000 C 
ATOM     14  C   UNL     1       7.204   5.426  18.410  0.00  0.00    +0.000 C 
ENDBRANCH  11  12
ENDBRANCH   1  11
BRANCH   3  15
ATOM     15  C   UNL     1       1.862   7.073  20.769  0.00  0.00    +0.000 C 
BRANCH  15  16
ATOM     16  C   UNL     1       1.292   8.394  20.276  0.00  0.00    +0.000 C 
ATOM     17  O   UNL     1       1.827   8.979  19.329  0.00  0.00    +0.000 OA
ATOM     18  N   UNL     1       0.098   8.850  20.829  0.00  0.00    +0.000 N 
ATOM     19  C   UNL     1      -0.559  10.015  20.229  0.00  0.00    +0.000 C 
ATOM     20  C   UNL     1      -0.333  11.258  21.084  0.00  0.00    +0.000 C 
ATOM     21  C   UNL     1      -0.790  11.006  22.521  0.00  0.00    +0.000 C 
ATOM     22  C   UNL     1      -0.116   9.759  23.096  0.00  0.00    +0.000 C 
ATOM     23  C   UNL     1      -0.336   8.546  22.192  0.00  0.00    +0.000 C 
ENDBRANCH  15  16
ENDBRANCH   3  15
TORSDOF 4
ENDMDL
MODEL 8
REMARK VINA RESULT:      -7.5      1.345      1.874
REMARK  Name = 
REMARK  4 active torsions:
REMARK  status: ('A' for Active; 'I' for Inactive)
REMARK    1  A    between atoms: C_2  and  C_3
REMARK    2  A    between atoms: C_2  and  C_21
REMARK    3  A    between atoms: N_5  and  C_6
REMARK    4  A    between atoms: C_6  and  C_7
REMARK                            x       y       z     vdW  Elec       q    Type
REMARK                         _______ _______ _______ _____ _____    ______ ____
ROOT
ATOM      1  C   UNL     1       4.762   6.185  17.211  0.00  0.00    +0.000 A 
ATOM      2  C   UNL     1       4.052   7.317  17.574  0.00  0.00    +0.000 A 
ATOM      3  N   UNL     1       2.780   6.956  17.945  0.00  0.00    +0.000 N 
ATOM      4  C   UNL     1       2.660   5.583  17.882  0.00  0.00    +0.000 A 
ATOM      5  C   UNL     1       1.596   4.732  18.232  0.00  0.00    +0.000 A 
ATOM      6  C   UNL     1       1.765   3.355  18.057  0.00  0.00    +0.000 A 
ATOM      7  C   UNL     1       2.946   2.831  17.550  0.00  0.00    +0.000 A 
ATOM      8  C   UNL     1       4.003   3.681  17.211  0.00  0.00    +0.000 A 
ATOM      9  C   UNL     1       3.868   5.080  17.379  0.00  0.00    +0.000 A 
ENDROOT
BRANCH   1  11
ATOM     10  O   UNL     1       6.541   6.111  15.636  0.00  0.00    +0.000 OA
ATOM     11  C   UNL     1       6.163   6.157  16.797  0.00  0.00    +0.000 C 
BRANCH  11  12
ATOM     12  C   UNL     1       7.131   6.170  17.942  0.00  0.00    +0.000 C 
ATOM     13  C   UNL     1       6.844   5.506  19.266  0.00  0.00    +0.000 C 
ATOM     14  C   UNL     1       7.856   4.905  18.335  0.00  0.00    +0.000 C 
ENDBRANCH  11  12
ENDBRANCH   1  11
BRANCH   3  15
ATOM     15  C   UNL     1       1.809   7.894  18.498  0.00  0.00    +0.000 C 
BRANCH  15  16
ATOM     16  C   UNL     1       1.668   7.880  20.012  0.00  0.00    +0.000 C 
ATOM     17  O   UNL     1       1.829   6.825  20.634  0.00  0.00    +0.000 OA
ATOM     18  N   UNL     1       1.485   9.092  20.674  0.00  0.00    +0.000 N 
ATOM     19  C   UNL     1       1.543   9.112  22.139  0.00  0.00    +0.000 C 
ATOM     20  C   UNL     1       0.140   9.212  22.730  0.00  0.00    +0.000 C 
ATOM     21  C   UNL     1      -0.595  10.424  22.158  0.00  0.00    +0.000 C 
ATOM     22  C   UNL     1      -0.596  10.387  20.629  0.00  0.00    +0.000 C 
ATOM     23  C   UNL     1       0.823  10.252  20.078  0.00  0.00    +0.000 C 
ENDBRANCH  15  16
ENDBRANCH   3  15
TORSDOF 4
ENDMDL
MODEL 9
REMARK VINA RESULT:      -7.5      1.641      2.128
REMARK  Name = 
REMARK  4 active torsions:
REMARK  status: ('A' for Active; 'I' for Inactive)
REMARK    1  A    between atoms: C_2  and  C_3
REMARK    2  A    between atoms: C_2  and  C_21
REMARK    3  A    between atoms: N_5  and  C_6
REMARK    4  A    between atoms: C_6  and  C_7
REMARK                            x       y       z     vdW  Elec       q    Type
REMARK                         _______ _______ _______ _____ _____    ______ ____
ROOT
ATOM      1  C   UNL     1       5.020   5.297  18.495  0.00  0.00    +0.000 A 
ATOM      2  C   UNL     1       4.420   6.531  18.313  0.00  0.00    +0.000 A 
ATOM      3  N   UNL     1       3.070   6.356  18.132  0.00  0.00    +0.000 N 
ATOM      4  C   UNL     1       2.764   5.016  18.247  0.00  0.00    +0.000 A 
ATOM      5  C   UNL     1       1.529   4.344  18.220  0.00  0.00    +0.000 A 
ATOM      6  C   UNL     1       1.528   2.954  18.366  0.00  0.00    +0.000 A 
ATOM      7  C   UNL     1       2.709   2.244  18.532  0.00  0.00    +0.000 A 
ATOM      8  C   UNL     1       3.934   2.918  18.566  0.00  0.00    +0.000 A 
ATOM      9  C   UNL     1       3.971   4.326  18.425  0.00  0.00    +0.000 A 
ENDROOT
BRANCH   1  11
ATOM     10  O   UNL     1       6.968   5.205  19.854  0.00  0.00    +0.000 OA
ATOM     11  C   UNL     1       6.440   5.075  18.760  0.00  0.00    +0.000 C 
BRANCH  11  12
ATOM     12  C   UNL     1       7.228   4.683  17.546  0.00  0.00    +0.000 C 
ATOM     13  C   UNL     1       6.585   4.378  16.215  0.00  0.00    +0.000 C 
ATOM     14  C   UNL     1       7.368   5.647  16.391  0.00  0.00    +0.000 C 
ENDBRANCH  11  12
ENDBRANCH   1  11
BRANCH   3  15
ATOM     15  C   UNL     1       2.124   7.463  18.032  0.00  0.00    +0.000 C 
BRANCH  15  16
ATOM     16  C   UNL     1       1.690   8.079  19.353  0.00  0.00    +0.000 C 
ATOM     17  O   UNL     1       1.783   7.424  20.396  0.00  0.00    +0.000 OA
ATOM     18  N   UNL     1       1.314   9.420  19.369  0.00  0.00    +0.000 N 
ATOM     19  C   UNL     1       1.083  10.073  20.661  0.00  0.00    +0.000 C 
ATOM     20  C   UNL     1      -0.412  10.225  20.926  0.00  0.00    +0.000 C 
ATOM     21  C   UNL     1      -1.086  10.964  19.770  0.00  0.00    +0.000 C 
ATOM     22  C   UNL     1      -0.785  10.277  18.436  0.00  0.00    +0.000 C 
ATOM     23  C   UNL     1       0.721  10.112  18.227  0.00  0.00    +0.000 C 
ENDBRANCH  15  16
ENDBRANCH   3  15
TORSDOF 4
ENDMDL
