MODEL 1
REMARK VINA RESULT:      -7.9      0.000      0.000
REMARK  Name = 
REMARK  7 active torsions:
REMARK  status: ('A' for Active; 'I' for Inactive)
REMARK    1  A    between atoms: C_2  and  C_3
REMARK    2  A    between atoms: C_3  and  O_4
REMARK    3  A    between atoms: O_4  and  C_5
REMARK    4  A    between atoms: C_5  and  C_7
REMARK    5  A    between atoms: C_7  and  C_8
REMARK    6  A    between atoms: C_13  and  N_14
REMARK    7  A    between atoms: N_17  and  C_18
REMARK                            x       y       z     vdW  Elec       q    Type
REMARK                         _______ _______ _______ _____ _____    ______ ____
ROOT
ATOM      1  C   UNL     1       5.284   5.462  18.695  0.00  0.00    +0.000 C 
ATOM      2  O   UNL     1       5.917   5.219  19.717  0.00  0.00    +0.000 OA
ENDROOT
BRANCH   1   3
ATOM      3  O   UNL     1       5.543   6.504  17.859  0.00  0.00    +0.000 OA
BRANCH   3   4
ATOM      4  C   UNL     1       6.870   6.563  17.330  0.00  0.00    +0.000 C 
BRANCH   4   6
ATOM      5  O   UNL     1       7.954   4.468  16.773  0.00  0.00    +0.000 OA
ATOM      6  C   UNL     1       7.263   5.410  16.396  0.00  0.00    +0.000 C 
ATOM      7  N   UNL     1       6.753   5.512  15.120  0.00  0.00    +0.000 N 
ATOM      8  H   UNL     1       6.021   6.208  14.971  0.00  0.00    +0.000 HD
BRANCH   7   9
ATOM      9  C   UNL     1       6.904   4.469  14.129  0.00  0.00    +0.000 C 
ATOM     10  C   UNL     1       5.563   3.934  13.638  0.00  0.00    +0.000 C 
ATOM     11  C   UNL     1       5.892   3.282  12.303  0.00  0.00    +0.000 C 
ATOM     12  C   UNL     1       7.094   4.045  11.748  0.00  0.00    +0.000 C 
ATOM     13  C   UNL     1       7.555   4.990  12.852  0.00  0.00    +0.000 C 
ENDBRANCH   7   9
ENDBRANCH   4   6
ENDBRANCH   3   4
ENDBRANCH   1   3
BRANCH   1  14
ATOM     14  C   UNL     1       4.149   4.614  18.175  0.00  0.00    +0.000 C 
BRANCH  14  15
ATOM     15  C   UNL     1       3.092   4.178  19.176  0.00  0.00    +0.000 A 
ATOM     16  C   UNL     1       2.063   5.067  19.550  0.00  0.00    +0.000 A 
ATOM     17  C   UNL     1       1.070   4.702  20.463  0.00  0.00    +0.000 A 
ATOM     18  C   UNL     1       1.071   3.436  21.031  0.00  0.00    +0.000 A 
ATOM     19  C   UNL     1       2.069   2.528  20.686  0.00  0.00    +0.000 A 
ATOM     20  C   UNL     1       3.079   2.886  19.768  0.00  0.00    +0.000 A 
BRANCH  20  21
ATOM     21  N   UNL     1       4.096   1.847  19.472  0.00  0.00    +0.000 N 
ATOM     22  O   UNL     1       3.908   1.080  18.519  0.00  0.00    +0.000 OA
ATOM     23  O   UNL     1       5.097   1.797  20.203  0.00  0.00    +0.000 OA
ENDBRANCH  20  21
ENDBRANCH  14  15
ENDBRANCH   1  14
TORSDOF 7
ENDMDL
MODEL 2
REMARK VINA RESULT:      -7.8      1.606      2.065
REMARK  Name = 
REMARK  7 active torsions:
REMARK  status: ('A' for Active; 'I' for Inactive)
REMARK    1  A    between atoms: C_2  and  C_3
REMARK    2  A    between atoms: C_3  and  O_4
REMARK    3  A    between atoms: O_4  and  C_5
REMARK    4  A    between atoms: C_5  and  C_7
REMARK    5  A    between atoms: C_7  and  C_8
REMARK    6  A    between atoms: C_13  and  N_14
REMARK    7  A    between atoms: N_17  and  C_18
REMARK                            x       y       z     vdW  Elec       q    Type
REMARK                         _______ _______ _______ _____ _____    ______ ____
ROOT
ATOM      1  C   UNL     1       5.507   4.802  18.951  0.00  0.00    +0.000 C 
ATOM      2  O   UNL     1       6.381   4.673  19.802  0.00  0.00    +0.000 OA
ENDROOT
BRANCH   1   3
ATOM      3  O   UNL     1       5.320   5.923  18.202  0.00  0.00    +0.000 OA
BRANCH   3   4
ATOM      4  C   UNL     1       6.452   6.362  17.447  0.00  0.00    +0.000 C 
BRANCH   4   6
ATOM      5  O   UNL     1       7.966   4.622  16.703  0.00  0.00    +0.000 OA
ATOM      6  C   UNL     1       7.011   5.348  16.440  0.00  0.00    +0.000 C 
ATOM      7  N   UNL     1       6.335   5.304  15.240  0.00  0.00    +0.000 N 
ATOM      8  H   UNL     1       5.434   5.782  15.203  0.00  0.00    +0.000 HD
BRANCH   7   9
ATOM      9  C   UNL     1       6.627   4.330  14.211  0.00  0.00    +0.000 C 
ATOM     10  C   UNL     1       5.370   3.841  13.500  0.00  0.00    +0.000 C 
ATOM     11  C   UNL     1       5.885   3.281  12.182  0.00  0.00    +0.000 C 
ATOM     12  C   UNL     1       7.151   4.071  11.856  0.00  0.00    +0.000 C 
ATOM     13  C   UNL     1       7.450   4.935  13.077  0.00  0.00    +0.000 C 
ENDBRANCH   7   9
ENDBRANCH   4   6
ENDBRANCH   3   4
ENDBRANCH   1   3
BRANCH   1  14
ATOM     14  C   UNL     1       4.530   3.719  18.564  0.00  0.00    +0.000 C 
BRANCH  14  15
ATOM     15  C   UNL     1       3.364   3.466  19.505  0.00  0.00    +0.000 A 
ATOM     16  C   UNL     1       3.561   2.734  20.695  0.00  0.00    +0.000 A 
ATOM     17  C   UNL     1       2.516   2.486  21.589  0.00  0.00    +0.000 A 
ATOM     18  C   UNL     1       1.240   2.961  21.325  0.00  0.00    +0.000 A 
ATOM     19  C   UNL     1       1.004   3.689  20.162  0.00  0.00    +0.000 A 
ATOM     20  C   UNL     1       2.050   3.944  19.250  0.00  0.00    +0.000 A 
BRANCH  20  21
ATOM     21  N   UNL     1       1.692   4.726  18.041  0.00  0.00    +0.000 N 
ATOM     22  O   UNL     1       1.098   4.158  17.115  0.00  0.00    +0.000 OA
ATOM     23  O   UNL     1       2.011   5.924  18.016  0.00  0.00    +0.000 OA
ENDBRANCH  20  21
ENDBRANCH  14  15
ENDBRANCH   1  14
TORSDOF 7
ENDMDL
MODEL 3
REMARK VINA RESULT:      -7.4      1.654      2.310
REMARK  Name = 
REMARK  7 active torsions:
REMARK  status: ('A' for Active; 'I' for Inactive)
REMARK    1  A    between atoms: C_2  and  C_3
REMARK    2  A    between atoms: C_3  and  O_4
REMARK    3  A    between atoms: O_4  and  C_5
REMARK    4  A    between atoms: C_5  and  C_7
REMARK    5  A    between atoms: C_7  and  C_8
REMARK    6  A    between atoms: C_13  and  N_14
REMARK    7  A    between atoms: N_17  and  C_18
REMARK                            x       y       z     vdW  Elec       q    Type
REMARK                         _______ _______ _______ _____ _____    ______ ____
ROOT
ATOM      1  C   UNL     1       5.532   4.533  19.165  0.00  0.00    +0.000 C 
ATOM      2  O   UNL     1       5.106   5.554  19.694  0.00  0.00    +0.000 OA
ENDROOT
BRANCH   1   3
ATOM      3  O   UNL     1       6.797   4.385  18.685  0.00  0.00    +0.000 OA
BRANCH   3   4
ATOM      4  C   UNL     1       7.350   5.527  18.025  0.00  0.00    +0.000 C 
BRANCH   4   6
ATOM      5  O   UNL     1       6.302   6.894  16.320  0.00  0.00    +0.000 OA
ATOM      6  C   UNL     1       6.798   5.812  16.621  0.00  0.00    +0.000 C 
ATOM      7  N   UNL     1       6.934   4.768  15.732  0.00  0.00    +0.000 N 
ATOM      8  H   UNL     1       7.547   4.002  16.013  0.00  0.00    +0.000 HD
BRANCH   7   9
ATOM      9  C   UNL     1       6.591   4.881  14.332  0.00  0.00    +0.000 C 
ATOM     10  C   UNL     1       7.818   5.075  13.446  0.00  0.00    +0.000 C 
ATOM     11  C   UNL     1       7.345   4.652  12.063  0.00  0.00    +0.000 C 
ATOM     12  C   UNL     1       6.252   3.611  12.292  0.00  0.00    +0.000 C 
ATOM     13  C   UNL     1       5.979   3.592  13.792  0.00  0.00    +0.000 C 
ENDBRANCH   7   9
ENDBRANCH   4   6
ENDBRANCH   3   4
ENDBRANCH   1   3
BRANCH   1  14
ATOM     14  C   UNL     1       4.737   3.260  19.008  0.00  0.00    +0.000 C 
BRANCH  14  15
ATOM     15  C   UNL     1       3.412   3.173  19.747  0.00  0.00    +0.000 A 
ATOM     16  C   UNL     1       3.362   2.628  21.047  0.00  0.00    +0.000 A 
ATOM     17  C   UNL     1       2.164   2.537  21.761  0.00  0.00    +0.000 A 
ATOM     18  C   UNL     1       0.977   2.987  21.201  0.00  0.00    +0.000 A 
ATOM     19  C   UNL     1       0.985   3.533  19.920  0.00  0.00    +0.000 A 
ATOM     20  C   UNL     1       2.187   3.628  19.187  0.00  0.00    +0.000 A 
BRANCH  20  21
ATOM     21  N   UNL     1       2.086   4.222  17.832  0.00  0.00    +0.000 N 
ATOM     22  O   UNL     1       1.991   3.469  16.854  0.00  0.00    +0.000 OA
ATOM     23  O   UNL     1       2.102   5.459  17.743  0.00  0.00    +0.000 OA
ENDBRANCH  20  21
ENDBRANCH  14  15
ENDBRANCH   1  14
TORSDOF 7
ENDMDL
MODEL 4
REMARK VINA RESULT:      -7.2      0.943      1.173
REMARK  Name = 
REMARK  7 active torsions:
REMARK  status: ('A' for Active; 'I' for Inactive)
REMARK    1  A    between atoms: C_2  and  C_3
REMARK    2  A    between atoms: C_3  and  O_4
REMARK    3  A    between atoms: O_4  and  C_5
REMARK    4  A    between atoms: C_5  and  C_7
REMARK    5  A    between atoms: C_7  and  C_8
REMARK    6  A    between atoms: C_13  and  N_14
REMARK    7  A    between atoms: N_17  and  C_18
REMARK                            x       y       z     vdW  Elec       q    Type
REMARK                         _______ _______ _______ _____ _____    ______ ____
ROOT
ATOM      1  C   UNL     1       4.982   5.805  18.181  0.00  0.00    +0.000 C 
ATOM      2  O   UNL     1       4.133   6.112  17.351  0.00  0.00    +0.000 OA
ENDROOT
BRANCH   1   3
ATOM      3  O   UNL     1       6.194   6.411  18.303  0.00  0.00    +0.000 OA
BRANCH   3   4
ATOM      4  C   UNL     1       6.874   6.695  17.078  0.00  0.00    +0.000 C 
BRANCH   4   6
ATOM      5  O   UNL     1       7.937   4.568  16.608  0.00  0.00    +0.000 OA
ATOM      6  C   UNL     1       7.211   5.475  16.209  0.00  0.00    +0.000 C 
ATOM      7  N   UNL     1       6.611   5.475  14.969  0.00  0.00    +0.000 N 
ATOM      8  H   UNL     1       5.864   6.154  14.820  0.00  0.00    +0.000 HD
BRANCH   7   9
ATOM      9  C   UNL     1       6.702   4.359  14.054  0.00  0.00    +0.000 C 
ATOM     10  C   UNL     1       5.344   3.955  13.491  0.00  0.00    +0.000 C 
ATOM     11  C   UNL     1       5.683   3.183  12.224  0.00  0.00    +0.000 C 
ATOM     12  C   UNL     1       7.005   3.761  11.722  0.00  0.00    +0.000 C 
ATOM     13  C   UNL     1       7.500   4.716  12.803  0.00  0.00    +0.000 C 
ENDBRANCH   7   9
ENDBRANCH   4   6
ENDBRANCH   3   4
ENDBRANCH   1   3
BRANCH   1  14
ATOM     14  C   UNL     1       4.795   4.741  19.235  0.00  0.00    +0.000 C 
BRANCH  14  15
ATOM     15  C   UNL     1       3.372   4.300  19.533  0.00  0.00    +0.000 A 
ATOM     16  C   UNL     1       2.550   5.082  20.371  0.00  0.00    +0.000 A 
ATOM     17  C   UNL     1       1.234   4.714  20.664  0.00  0.00    +0.000 A 
ATOM     18  C   UNL     1       0.696   3.552  20.129  0.00  0.00    +0.000 A 
ATOM     19  C   UNL     1       1.474   2.753  19.296  0.00  0.00    +0.000 A 
ATOM     20  C   UNL     1       2.805   3.113  18.995  0.00  0.00    +0.000 A 
BRANCH  20  21
ATOM     21  N   UNL     1       3.548   2.192  18.100  0.00  0.00    +0.000 N 
ATOM     22  O   UNL     1       3.936   2.608  17.001  0.00  0.00    +0.000 OA
ATOM     23  O   UNL     1       3.747   1.036  18.502  0.00  0.00    +0.000 OA
ENDBRANCH  20  21
ENDBRANCH  14  15
ENDBRANCH   1  14
TORSDOF 7
ENDMDL
MODEL 5
REMARK VINA RESULT:      -7.2      1.799      2.250
REMARK  Name = 
REMARK  7 active torsions:
REMARK  status: ('A' for Active; 'I' for Inactive)
REMARK    1  A    between atoms: C_2  and  C_3
REMARK    2  A    between atoms: C_3  and  O_4
REMARK    3  A    between atoms: O_4  and  C_5
REMARK    4  A    between atoms: C_5  and  C_7
REMARK    5  A    between atoms: C_7  and  C_8
REMARK    6  A    between atoms: C_13  and  N_14
REMARK    7  A    between atoms: N_17  and  C_18
REMARK                            x       y       z     vdW  Elec       q    Type
REMARK                         _______ _______ _______ _____ _____    ______ ____
ROOT
ATOM      1  C   UNL     1       4.965   5.588  18.666  0.00  0.00    +0.000 C 
ATOM      2  O   UNL     1       4.104   6.171  18.016  0.00  0.00    +0.000 OA
ENDROOT
BRANCH   1   3
ATOM      3  O   UNL     1       6.240   6.034  18.830  0.00  0.00    +0.000 OA
BRANCH   3   4
ATOM      4  C   UNL     1       6.913   6.446  17.638  0.00  0.00    +0.000 C 
BRANCH   4   6
ATOM      5  O   UNL     1       7.937   4.345  16.998  0.00  0.00    +0.000 OA
ATOM      6  C   UNL     1       7.275   5.321  16.658  0.00  0.00    +0.000 C 
ATOM      7  N   UNL     1       6.771   5.489  15.387  0.00  0.00    +0.000 N 
ATOM      8  H   UNL     1       6.060   6.211  15.265  0.00  0.00    +0.000 HD
BRANCH   7   9
ATOM      9  C   UNL     1       6.894   4.482  14.355  0.00  0.00    +0.000 C 
ATOM     10  C   UNL     1       5.539   4.007  13.841  0.00  0.00    +0.000 C 
ATOM     11  C   UNL     1       5.852   3.400  12.481  0.00  0.00    +0.000 C 
ATOM     12  C   UNL     1       7.077   4.149  11.959  0.00  0.00    +0.000 C 
ATOM     13  C   UNL     1       7.563   5.035  13.100  0.00  0.00    +0.000 C 
ENDBRANCH   7   9
ENDBRANCH   4   6
ENDBRANCH   3   4
ENDBRANCH   1   3
BRANCH   1  14
ATOM     14  C   UNL     1       4.733   4.307  19.431  0.00  0.00    +0.000 C 
BRANCH  14  15
ATOM     15  C   UNL     1       3.480   3.515  19.095  0.00  0.00    +0.000 A 
ATOM     16  C   UNL     1       3.436   2.723  17.929  0.00  0.00    +0.000 A 
ATOM     17  C   UNL     1       2.306   1.975  17.588  0.00  0.00    +0.000 A 
ATOM     18  C   UNL     1       1.182   1.994  18.402  0.00  0.00    +0.000 A 
ATOM     19  C   UNL     1       1.186   2.763  19.563  0.00  0.00    +0.000 A 
ATOM     20  C   UNL     1       2.320   3.524  19.917  0.00  0.00    +0.000 A 
BRANCH  20  21
ATOM     21  N   UNL     1       2.220   4.309  21.171  0.00  0.00    +0.000 N 
ATOM     22  O   UNL     1       2.318   3.721  22.256  0.00  0.00    +0.000 OA
ATOM     23  O   UNL     1       2.040   5.532  21.070  0.00  0.00    +0.000 OA
ENDBRANCH  20  21
ENDBRANCH  14  15
ENDBRANCH   1  14
TORSDOF 7
ENDMDL
MODEL 6
REMARK VINA RESULT:      -7.2      1.591      2.023
REMARK  Name = 
REMARK  7 active torsions:
REMARK  status: ('A' for Active; 'I' for Inactive)
REMARK    1  A    between atoms: C_2  and  C_3
REMARK    2  A    between atoms: C_3  and  O_4
REMARK    3  A    between atoms: O_4  and  C_5
REMARK    4  A    between atoms: C_5  and  C_7
REMARK    5  A    between atoms: C_7  and  C_8
REMARK    6  A    between atoms: C_13  and  N_14
REMARK    7  A    between atoms: N_17  and  C_18
REMARK                            x       y       z     vdW  Elec       q    Type
REMARK                         _______ _______ _______ _____ _____    ______ ____
ROOT
ATOM      1  C   UNL     1       5.012   5.316  19.319  0.00  0.00    +0.000 C 
ATOM      2  O   UNL     1       4.212   6.217  19.554  0.00  0.00    +0.000 OA
ENDROOT
BRANCH   1   3
ATOM      3  O   UNL     1       6.343   5.504  19.109  0.00  0.00    +0.000 OA
BRANCH   3   4
ATOM      4  C   UNL     1       6.698   6.096  17.858  0.00  0.00    +0.000 C 
BRANCH   4   6
ATOM      5  O   UNL     1       7.971   4.205  17.034  0.00  0.00    +0.000 OA
ATOM      6  C   UNL     1       7.194   5.121  16.781  0.00  0.00    +0.000 C 
ATOM      7  N   UNL     1       6.672   5.345  15.525  0.00  0.00    +0.000 N 
ATOM      8  H   UNL     1       5.878   5.984  15.464  0.00  0.00    +0.000 HD
BRANCH   7   9
ATOM      9  C   UNL     1       6.917   4.463  14.405  0.00  0.00    +0.000 C 
ATOM     10  C   UNL     1       5.626   3.974  13.756  0.00  0.00    +0.000 C 
ATOM     11  C   UNL     1       6.055   3.535  12.364  0.00  0.00    +0.000 C 
ATOM     12  C   UNL     1       7.262   4.399  12.004  0.00  0.00    +0.000 C 
ATOM     13  C   UNL     1       7.625   5.183  13.261  0.00  0.00    +0.000 C 
ENDBRANCH   7   9
ENDBRANCH   4   6
ENDBRANCH   3   4
ENDBRANCH   1   3
BRANCH   1  14
ATOM     14  C   UNL     1       4.654   3.850  19.277  0.00  0.00    +0.000 C 
BRANCH  14  15
ATOM     15  C   UNL     1       3.321   3.443  19.883  0.00  0.00    +0.000 A 
ATOM     16  C   UNL     1       3.266   2.951  21.204  0.00  0.00    +0.000 A 
ATOM     17  C   UNL     1       2.060   2.571  21.799  0.00  0.00    +0.000 A 
ATOM     18  C   UNL     1       0.869   2.671  21.094  0.00  0.00    +0.000 A 
ATOM     19  C   UNL     1       0.881   3.153  19.788  0.00  0.00    +0.000 A 
ATOM     20  C   UNL     1       2.092   3.537  19.176  0.00  0.00    +0.000 A 
BRANCH  20  21
ATOM     21  N   UNL     1       1.996   4.034  17.781  0.00  0.00    +0.000 N 
ATOM     22  O   UNL     1       1.754   5.233  17.588  0.00  0.00    +0.000 OA
ATOM     23  O   UNL     1       2.162   3.214  16.866  0.00  0.00    +0.000 OA
ENDBRANCH  20  21
ENDBRANCH  14  15
ENDBRANCH   1  14
TORSDOF 7
ENDMDL
MODEL 7
REMARK VINA RESULT:      -7.1      3.901      6.104
REMARK  Name = 
REMARK  7 active torsions:
REMARK  status: ('A' for Active; 'I' for Inactive)
REMARK    1  A    between atoms: C_2  and  C_3
REMARK    2  A    between atoms: C_3  and  O_4
REMARK    3  A    between atoms: O_4  and  C_5
REMARK    4  A    between atoms: C_5  and  C_7
REMARK    5  A    between atoms: C_7  and  C_8
REMARK    6  A    between atoms: C_13  and  N_14
REMARK    7  A    between atoms: N_17  and  C_18
REMARK                            x       y       z     vdW  Elec       q    Type
REMARK                         _______ _______ _______ _____ _____    ______ ____
ROOT
ATOM      1  C   UNL     1       7.128   5.670  16.834  0.00  0.00    +0.000 C 
ATOM      2  O   UNL     1       7.743   4.676  17.205  0.00  0.00    +0.000 OA
ENDROOT
BRANCH   1   3
ATOM      3  O   UNL     1       7.631   6.934  16.844  0.00  0.00    +0.000 OA
BRANCH   3   4
ATOM      4  C   UNL     1       7.962   7.462  18.130  0.00  0.00    +0.000 C 
BRANCH   4   6
ATOM      5  O   UNL     1       7.574   9.768  17.490  0.00  0.00    +0.000 OA
ATOM      6  C   UNL     1       8.209   8.976  18.182  0.00  0.00    +0.000 C 
ATOM      7  N   UNL     1       9.175   9.366  19.084  0.00  0.00    +0.000 N 
ATOM      8  H   UNL     1       9.484   8.665  19.758  0.00  0.00    +0.000 HD
BRANCH   7   9
ATOM      9  C   UNL     1       9.466  10.754  19.372  0.00  0.00    +0.000 C 
ATOM     10  C   UNL     1       9.341  11.080  20.856  0.00  0.00    +0.000 C 
ATOM     11  C   UNL     1      10.158  12.352  21.025  0.00  0.00    +0.000 C 
ATOM     12  C   UNL     1      11.243  12.301  19.950  0.00  0.00    +0.000 C 
ATOM     13  C   UNL     1      10.918  11.104  19.063  0.00  0.00    +0.000 C 
ENDBRANCH   7   9
ENDBRANCH   4   6
ENDBRANCH   3   4
ENDBRANCH   1   3
BRANCH   1  14
ATOM     14  C   UNL     1       5.733   5.642  16.258  0.00  0.00    +0.000 C 
BRANCH  14  15
ATOM     15  C   UNL     1       4.594   6.045  17.180  0.00  0.00    +0.000 A 
ATOM     16  C   UNL     1       4.040   7.340  17.095  0.00  0.00    +0.000 A 
ATOM     17  C   UNL     1       2.988   7.747  17.920  0.00  0.00    +0.000 A 
ATOM     18  C   UNL     1       2.454   6.874  18.857  0.00  0.00    +0.000 A 
ATOM     19  C   UNL     1       2.972   5.586  18.970  0.00  0.00    +0.000 A 
ATOM     20  C   UNL     1       4.035   5.164  18.145  0.00  0.00    +0.000 A 
BRANCH  20  21
ATOM     21  N   UNL     1       4.515   3.775  18.349  0.00  0.00    +0.000 N 
ATOM     22  O   UNL     1       4.088   2.880  17.608  0.00  0.00    +0.000 OA
ATOM     23  O   UNL     1       5.329   3.577  19.263  0.00  0.00    +0.000 OA
ENDBRANCH  20  21
ENDBRANCH  14  15
ENDBRANCH   1  14
TORSDOF 7
ENDMDL
MODEL 8
REMARK VINA RESULT:      -7.0      1.796      2.402
REMARK  Name = 
REMARK  7 active torsions:
REMARK  status: ('A' for Active; 'I' for Inactive)
REMARK    1  A    between atoms: C_2  and  C_3
REMARK    2  A    between atoms: C_3  and  O_4
REMARK    3  A    between atoms: O_4  and  C_5
REMARK    4  A    between atoms: C_5  and  C_7
REMARK    5  A    between atoms: C_7  and  C_8
REMARK    6  A    between atoms: C_13  and  N_14
REMARK    7  A    between atoms: N_17  and  C_18
REMARK                            x       y       z     vdW  Elec       q    Type
REMARK                         _______ _______ _______ _____ _____    ______ ____
ROOT
ATOM      1  C   UNL     1       4.825   3.657  19.284  0.00  0.00    +0.000 C 
ATOM      2  O   UNL     1       4.811   2.584  19.877  0.00  0.00    +0.000 OA
ENDROOT
BRANCH   1   3
ATOM      3  O   UNL     1       5.925   4.446  19.143  0.00  0.00    +0.000 OA
BRANCH   3   4
ATOM      4  C   UNL     1       5.952   5.276  17.980  0.00  0.00    +0.000 C 
BRANCH   4   6
ATOM      5  O   UNL     1       7.905   4.368  16.868  0.00  0.00    +0.000 OA
ATOM      6  C   UNL     1       6.729   4.713  16.782  0.00  0.00    +0.000 C 
ATOM      7  N   UNL     1       5.991   4.603  15.624  0.00  0.00    +0.000 N 
ATOM      8  H   UNL     1       4.980   4.707  15.712  0.00  0.00    +0.000 HD
BRANCH   7   9
ATOM      9  C   UNL     1       6.504   3.980  14.423  0.00  0.00    +0.000 C 
ATOM     10  C   UNL     1       5.395   3.582  13.455  0.00  0.00    +0.000 C 
ATOM     11  C   UNL     1       6.103   3.456  12.113  0.00  0.00    +0.000 C 
ATOM     12  C   UNL     1       7.282   4.426  12.168  0.00  0.00    +0.000 C 
ATOM     13  C   UNL     1       7.348   4.949  13.599  0.00  0.00    +0.000 C 
ENDBRANCH   7   9
ENDBRANCH   4   6
ENDBRANCH   3   4
ENDBRANCH   1   3
BRANCH   1  14
ATOM     14  C   UNL     1       3.634   4.251  18.570  0.00  0.00    +0.000 C 
BRANCH  14  15
ATOM     15  C   UNL     1       2.858   5.336  19.297  0.00  0.00    +0.000 A 
ATOM     16  C   UNL     1       2.966   6.680  18.883  0.00  0.00    +0.000 A 
ATOM     17  C   UNL     1       2.264   7.706  19.522  0.00  0.00    +0.000 A 
ATOM     18  C   UNL     1       1.431   7.423  20.595  0.00  0.00    +0.000 A 
ATOM     19  C   UNL     1       1.297   6.108  21.033  0.00  0.00    +0.000 A 
ATOM     20  C   UNL     1       2.002   5.064  20.398  0.00  0.00    +0.000 A 
BRANCH  20  21
ATOM     21  N   UNL     1       1.791   3.701  20.944  0.00  0.00    +0.000 N 
ATOM     22  O   UNL     1       2.316   3.400  22.024  0.00  0.00    +0.000 OA
ATOM     23  O   UNL     1       1.090   2.919  20.283  0.00  0.00    +0.000 OA
ENDBRANCH  20  21
ENDBRANCH  14  15
ENDBRANCH   1  14
TORSDOF 7
ENDMDL
MODEL 9
REMARK VINA RESULT:      -7.0      1.234      1.743
REMARK  Name = 
REMARK  7 active torsions:
REMARK  status: ('A' for Active; 'I' for Inactive)
REMARK    1  A    between atoms: C_2  and  C_3
REMARK    2  A    between atoms: C_3  and  O_4
REMARK    3  A    between atoms: O_4  and  C_5
REMARK    4  A    between atoms: C_5  and  C_7
REMARK    5  A    between atoms: C_7  and  C_8
REMARK    6  A    between atoms: C_13  and  N_14
REMARK    7  A    between atoms: N_17  and  C_18
REMARK                            x       y       z     vdW  Elec       q    Type
REMARK                         _______ _______ _______ _____ _____    ______ ____
ROOT
ATOM      1  C   UNL     1       5.093   6.510  16.602  0.00  0.00    +0.000 C 
ATOM      2  O   UNL     1       4.924   7.011  15.495  0.00  0.00    +0.000 OA
ENDROOT
BRANCH   1   3
ATOM      3  O   UNL     1       5.974   6.972  17.530  0.00  0.00    +0.000 OA
BRANCH   3   4
ATOM      4  C   UNL     1       7.322   6.520  17.388  0.00  0.00    +0.000 C 
BRANCH   4   6
ATOM      5  O   UNL     1       7.836   4.204  16.890  0.00  0.00    +0.000 OA
ATOM      6  C   UNL     1       7.522   5.311  16.463  0.00  0.00    +0.000 C 
ATOM      7  N   UNL     1       7.290   5.570  15.129  0.00  0.00    +0.000 N 
ATOM      8  H   UNL     1       6.827   6.451  14.905  0.00  0.00    +0.000 HD
BRANCH   7   9
ATOM      9  C   UNL     1       7.303   4.537  14.116  0.00  0.00    +0.000 C 
ATOM     10  C   UNL     1       5.909   3.994  13.821  0.00  0.00    +0.000 C 
ATOM     11  C   UNL     1       6.043   3.359  12.445  0.00  0.00    +0.000 C 
ATOM     12  C   UNL     1       7.145   4.138  11.728  0.00  0.00    +0.000 C 
ATOM     13  C   UNL     1       7.755   5.077  12.762  0.00  0.00    +0.000 C 
ENDBRANCH   7   9
ENDBRANCH   4   6
ENDBRANCH   3   4
ENDBRANCH   1   3
BRANCH   1  14
ATOM     14  C   UNL     1       4.313   5.330  17.130  0.00  0.00    +0.000 C 
BRANCH  14  15
ATOM     15  C   UNL     1       3.467   5.556  18.372  0.00  0.00    +0.000 A 
ATOM     16  C   UNL     1       2.853   6.808  18.590  0.00  0.00    +0.000 A 
ATOM     17  C   UNL     1       2.063   7.053  19.717  0.00  0.00    +0.000 A 
ATOM     18  C   UNL     1       1.859   6.057  20.661  0.00  0.00    +0.000 A 
ATOM     19  C   UNL     1       2.447   4.808  20.480  0.00  0.00    +0.000 A 
ATOM     20  C   UNL     1       3.248   4.548  19.349  0.00  0.00    +0.000 A 
BRANCH  20  21
ATOM     21  N   UNL     1       3.830   3.187  19.254  0.00  0.00    +0.000 N 
ATOM     22  O   UNL     1       3.154   2.281  18.746  0.00  0.00    +0.000 OA
ATOM     23  O   UNL     1       4.977   3.019  19.693  0.00  0.00    +0.000 OA
ENDBRANCH  20  21
ENDBRANCH  14  15
ENDBRANCH   1  14
TORSDOF 7
ENDMDL
