MODEL 1
REMARK VINA RESULT:      -8.4      0.000      0.000
REMARK  Name = 
REMARK  9 active torsions:
REMARK  status: ('A' for Active; 'I' for Inactive)
REMARK    1  A    between atoms: C_1  and  O_2
REMARK    2  A    between atoms: O_2  and  C_3
REMARK    3  A    between atoms: C_9  and  C_10
REMARK    4  A    between atoms: N_12  and  C_13
REMARK    5  A    between atoms: C_13  and  C_14
REMARK    6  A    between atoms: N_17  and  C_18
REMARK    7  A    between atoms: C_18  and  C_19
REMARK    8  A    between atoms: CA_22  and  C_23
REMARK    9  A    between atoms: C_23  and  OXT_25
REMARK                            x       y       z     vdW  Elec       q    Type
REMARK                         _______ _______ _______ _____ _____    ______ ____
ROOT
ATOM      1  C   UNL     1       2.016   7.341  20.484  0.00  0.00    +0.000 C 
ENDROOT
BRANCH   1   2
ATOM      2  C   UNL     1       1.802   6.120  19.569  0.00  0.00    +0.000 C 
ATOM      3  C   UNL     1       2.330   4.796  20.146  0.00  0.00    +0.000 C 
ATOM      4  C   UNL     1       3.821   4.535  19.909  0.00  0.00    +0.000 C 
ATOM      5  N   UNL     1       4.184   4.706  18.491  0.00  0.00    +0.000 NA
ATOM      6  C   UNL     1       3.888   6.091  18.084  0.00  0.00    +0.000 C 
ATOM      7  C   UNL     1       2.384   6.359  18.167  0.00  0.00    +0.000 C 
BRANCH   5   8
ATOM      8  C   UNL     1       5.607   4.403  18.247  0.00  0.00    +0.000 C 
BRANCH   8   9
ATOM      9  C   UNL     1       6.055   4.560  16.809  0.00  0.00    +0.000 A 
ATOM     10  C   UNL     1       5.548   3.723  15.808  0.00  0.00    +0.000 A 
ATOM     11  C   UNL     1       6.003   3.841  14.498  0.00  0.00    +0.000 A 
ATOM     12  CA  UNL     1       6.960   4.805  14.228  0.00  0.00    +0.000 A 
ATOM     13  N   UNL     1       7.483   5.655  15.162  0.00  0.00    +0.000 NA
ATOM     14  C   UNL     1       7.010   5.505  16.428  0.00  0.00    +0.000 A 
BRANCH  12  15
ATOM     15  C   UNL     1       7.489   4.952  12.837  0.00  0.00    +0.000 C 
ATOM     16  O   UNL     1       7.224   4.213  11.908  0.00  0.00    +0.000 OA
BRANCH  15  17
ATOM     17  OXT UNL     1       8.313   6.027  12.748  0.00  0.00    +0.000 OA
ATOM     18  HXT UNL     1       7.793   6.841  12.952  0.00  0.00    +0.000 HD
ENDBRANCH  15  17
ENDBRANCH  12  15
ENDBRANCH   8   9
ENDBRANCH   5   8
ENDBRANCH   1   2
BRANCH   1  21
ATOM     19  C   UNL     1       1.081   9.389  19.377  0.00  0.00    +0.000 C 
ATOM     20  O   UNL     1       2.005   9.526  18.578  0.00  0.00    +0.000 OA
ATOM     21  N   UNL     1       1.004   8.357  20.290  0.00  0.00    +0.000 N 
ATOM     22  H   UNL     1       0.192   8.396  20.904  0.00  0.00    +0.000 HD
BRANCH  19  29
ATOM     23  C   UNL     1      -2.916  10.205  16.906  0.00  0.00    +0.000 A 
ATOM     24  C   UNL     1      -3.663  11.212  17.519  0.00  0.00    +0.000 A 
ATOM     25  C   UNL     1      -3.201  11.858  18.670  0.00  0.00    +0.000 A 
ATOM     26  C   UNL     1      -1.973  11.444  19.188  0.00  0.00    +0.000 A 
ATOM     27  N   UNL     1      -1.265  11.878  20.273  0.00  0.00    +0.000 N 
ATOM     28  N   UNL     1      -0.108  11.231  20.479  0.00  0.00    +0.000 NA
ATOM     29  C   UNL     1      -0.062  10.318  19.478  0.00  0.00    +0.000 A 
ATOM     30  C   UNL     1      -1.207  10.428  18.627  0.00  0.00    +0.000 A 
ATOM     31  C   UNL     1      -1.691   9.795  17.462  0.00  0.00    +0.000 A 
ATOM     32  H   UNL     1      -1.524  12.618  20.916  0.00  0.00    +0.000 HD
BRANCH  23  34
ATOM     33  C   UNL     1      -3.274  10.260  14.563  0.00  0.00    +0.000 C 
ATOM     34  O   UNL     1      -3.306   9.523  15.783  0.00  0.00    +0.000 OA
ENDBRANCH  23  34
ENDBRANCH  19  29
ENDBRANCH   1  21
TORSDOF 8
ENDMDL
MODEL 2
REMARK VINA RESULT:      -8.3      3.169      3.950
REMARK  Name = 
REMARK  9 active torsions:
REMARK  status: ('A' for Active; 'I' for Inactive)
REMARK    1  A    between atoms: C_1  and  O_2
REMARK    2  A    between atoms: O_2  and  C_3
REMARK    3  A    between atoms: C_9  and  C_10
REMARK    4  A    between atoms: N_12  and  C_13
REMARK    5  A    between atoms: C_13  and  C_14
REMARK    6  A    between atoms: N_17  and  C_18
REMARK    7  A    between atoms: C_18  and  C_19
REMARK    8  A    between atoms: CA_22  and  C_23
REMARK    9  A    between atoms: C_23  and  OXT_25
REMARK                            x       y       z     vdW  Elec       q    Type
REMARK                         _______ _______ _______ _____ _____    ______ ____
ROOT
ATOM      1  C   UNL     1       0.965   3.248  19.841  0.00  0.00    +0.000 C 
ENDROOT
BRANCH   1   2
ATOM      2  C   UNL     1       1.899   2.309  19.054  0.00  0.00    +0.000 C 
ATOM      3  C   UNL     1       3.180   1.913  19.807  0.00  0.00    +0.000 C 
ATOM      4  C   UNL     1       4.331   2.918  19.698  0.00  0.00    +0.000 C 
ATOM      5  N   UNL     1       4.602   3.284  18.297  0.00  0.00    +0.000 NA
ATOM      6  C   UNL     1       3.395   3.902  17.722  0.00  0.00    +0.000 C 
ATOM      7  C   UNL     1       2.250   2.889  17.676  0.00  0.00    +0.000 C 
BRANCH   5   8
ATOM      8  C   UNL     1       5.745   4.210  18.182  0.00  0.00    +0.000 C 
BRANCH   8   9
ATOM      9  C   UNL     1       6.225   4.458  16.767  0.00  0.00    +0.000 A 
ATOM     10  C   UNL     1       5.802   3.637  15.715  0.00  0.00    +0.000 A 
ATOM     11  C   UNL     1       6.287   3.842  14.427  0.00  0.00    +0.000 A 
ATOM     12  CA  UNL     1       7.188   4.875  14.230  0.00  0.00    +0.000 A 
ATOM     13  N   UNL     1       7.627   5.714  15.215  0.00  0.00    +0.000 NA
ATOM     14  C   UNL     1       7.128   5.478  16.458  0.00  0.00    +0.000 A 
BRANCH  12  15
ATOM     15  C   UNL     1       7.747   5.117  12.863  0.00  0.00    +0.000 C 
ATOM     16  O   UNL     1       7.358   4.578  11.845  0.00  0.00    +0.000 OA
BRANCH  15  17
ATOM     17  OXT UNL     1       8.757   6.023  12.913  0.00  0.00    +0.000 OA
ATOM     18  HXT UNL     1       9.544   5.643  12.455  0.00  0.00    +0.000 HD
ENDBRANCH  15  17
ENDBRANCH  12  15
ENDBRANCH   8   9
ENDBRANCH   5   8
ENDBRANCH   1   2
BRANCH   1  21
ATOM     19  C   UNL     1       1.843   5.560  20.261  0.00  0.00    +0.000 C 
ATOM     20  O   UNL     1       2.414   5.282  21.313  0.00  0.00    +0.000 OA
ATOM     21  N   UNL     1       1.161   4.638  19.492  0.00  0.00    +0.000 N 
ATOM     22  H   UNL     1       0.717   5.026  18.662  0.00  0.00    +0.000 HD
BRANCH  19  29
ATOM     23  C   UNL     1       0.643   9.910  21.806  0.00  0.00    +0.000 A 
ATOM     24  C   UNL     1       0.847  10.852  20.797  0.00  0.00    +0.000 A 
ATOM     25  C   UNL     1       1.306  10.471  19.532  0.00  0.00    +0.000 A 
ATOM     26  C   UNL     1       1.563   9.115  19.326  0.00  0.00    +0.000 A 
ATOM     27  N   UNL     1       2.003   8.443  18.220  0.00  0.00    +0.000 N 
ATOM     28  N   UNL     1       2.150   7.121  18.393  0.00  0.00    +0.000 NA
ATOM     29  C   UNL     1       1.795   6.919  19.685  0.00  0.00    +0.000 A 
ATOM     30  C   UNL     1       1.400   8.144  20.309  0.00  0.00    +0.000 A 
ATOM     31  C   UNL     1       0.930   8.553  21.576  0.00  0.00    +0.000 A 
ATOM     32  H   UNL     1       2.221   8.837  17.312  0.00  0.00    +0.000 HD
BRANCH  23  34
ATOM     33  C   UNL     1      -1.143  10.666  23.171  0.00  0.00    +0.000 C 
ATOM     34  O   UNL     1       0.203  10.208  23.070  0.00  0.00    +0.000 OA
ENDBRANCH  23  34
ENDBRANCH  19  29
ENDBRANCH   1  21
TORSDOF 8
ENDMDL
MODEL 3
REMARK VINA RESULT:      -8.1      3.279      4.106
REMARK  Name = 
REMARK  9 active torsions:
REMARK  status: ('A' for Active; 'I' for Inactive)
REMARK    1  A    between atoms: C_1  and  O_2
REMARK    2  A    between atoms: O_2  and  C_3
REMARK    3  A    between atoms: C_9  and  C_10
REMARK    4  A    between atoms: N_12  and  C_13
REMARK    5  A    between atoms: C_13  and  C_14
REMARK    6  A    between atoms: N_17  and  C_18
REMARK    7  A    between atoms: C_18  and  C_19
REMARK    8  A    between atoms: CA_22  and  C_23
REMARK    9  A    between atoms: C_23  and  OXT_25
REMARK                            x       y       z     vdW  Elec       q    Type
REMARK                         _______ _______ _______ _____ _____    ______ ____
ROOT
ATOM      1  C   UNL     1       1.878   4.725  20.690  0.00  0.00    +0.000 C 
ENDROOT
BRANCH   1   2
ATOM      2  C   UNL     1       1.584   3.557  19.730  0.00  0.00    +0.000 C 
ATOM      3  C   UNL     1       2.632   2.431  19.761  0.00  0.00    +0.000 C 
ATOM      4  C   UNL     1       3.859   2.665  18.874  0.00  0.00    +0.000 C 
ATOM      5  N   UNL     1       3.475   3.028  17.498  0.00  0.00    +0.000 NA
ATOM      6  C   UNL     1       2.688   4.272  17.533  0.00  0.00    +0.000 C 
ATOM      7  C   UNL     1       1.377   4.051  18.290  0.00  0.00    +0.000 C 
BRANCH   5   8
ATOM      8  C   UNL     1       4.652   3.200  16.626  0.00  0.00    +0.000 C 
BRANCH   8   9
ATOM      9  C   UNL     1       5.529   4.388  16.967  0.00  0.00    +0.000 A 
ATOM     10  C   UNL     1       6.223   4.438  18.181  0.00  0.00    +0.000 A 
ATOM     11  C   UNL     1       6.986   5.556  18.506  0.00  0.00    +0.000 A 
ATOM     12  CA  UNL     1       7.032   6.598  17.595  0.00  0.00    +0.000 A 
ATOM     13  N   UNL     1       6.384   6.599  16.392  0.00  0.00    +0.000 NA
ATOM     14  C   UNL     1       5.651   5.488  16.115  0.00  0.00    +0.000 A 
BRANCH  12  15
ATOM     15  C   UNL     1       7.825   7.825  17.915  0.00  0.00    +0.000 C 
ATOM     16  O   UNL     1       7.746   8.882  17.319  0.00  0.00    +0.000 OA
BRANCH  15  17
ATOM     17  OXT UNL     1       8.654   7.599  18.966  0.00  0.00    +0.000 OA
ATOM     18  HXT UNL     1       9.523   8.028  18.781  0.00  0.00    +0.000 HD
ENDBRANCH  15  17
ENDBRANCH  12  15
ENDBRANCH   8   9
ENDBRANCH   5   8
ENDBRANCH   1   2
BRANCH   1  21
ATOM     19  C   UNL     1       2.519   6.865  19.549  0.00  0.00    +0.000 C 
ATOM     20  O   UNL     1       3.714   6.595  19.450  0.00  0.00    +0.000 OA
ATOM     21  N   UNL     1       1.584   6.012  20.098  0.00  0.00    +0.000 N 
ATOM     22  H   UNL     1       0.638   6.389  20.136  0.00  0.00    +0.000 HD
BRANCH  19  29
ATOM     23  C   UNL     1      -0.226  10.239  21.506  0.00  0.00    +0.000 A 
ATOM     24  C   UNL     1      -0.440  11.273  20.594  0.00  0.00    +0.000 A 
ATOM     25  C   UNL     1       0.085  11.218  19.299  0.00  0.00    +0.000 A 
ATOM     26  C   UNL     1       0.844  10.096  18.963  0.00  0.00    +0.000 A 
ATOM     27  N   UNL     1       1.471   9.753  17.798  0.00  0.00    +0.000 N 
ATOM     28  N   UNL     1       2.127   8.584  17.842  0.00  0.00    +0.000 NA
ATOM     29  C   UNL     1       1.926   8.144  19.107  0.00  0.00    +0.000 A 
ATOM     30  C   UNL     1       1.106   9.054  19.846  0.00  0.00    +0.000 A 
ATOM     31  C   UNL     1       0.559   9.129  21.146  0.00  0.00    +0.000 A 
ATOM     32  H   UNL     1       1.486  10.282  16.934  0.00  0.00    +0.000 HD
BRANCH  23  34
ATOM     33  C   UNL     1      -1.559  11.307  23.151  0.00  0.00    +0.000 C 
ATOM     34  O   UNL     1      -0.702  10.226  22.791  0.00  0.00    +0.000 OA
ENDBRANCH  23  34
ENDBRANCH  19  29
ENDBRANCH   1  21
TORSDOF 8
ENDMDL
MODEL 4
REMARK VINA RESULT:      -8.1      3.544      4.384
REMARK  Name = 
REMARK  9 active torsions:
REMARK  status: ('A' for Active; 'I' for Inactive)
REMARK    1  A    between atoms: C_1  and  O_2
REMARK    2  A    between atoms: O_2  and  C_3
REMARK    3  A    between atoms: C_9  and  C_10
REMARK    4  A    between atoms: N_12  and  C_13
REMARK    5  A    between atoms: C_13  and  C_14
REMARK    6  A    between atoms: N_17  and  C_18
REMARK    7  A    between atoms: C_18  and  C_19
REMARK    8  A    between atoms: CA_22  and  C_23
REMARK    9  A    between atoms: C_23  and  OXT_25
REMARK                            x       y       z     vdW  Elec       q    Type
REMARK                         _______ _______ _______ _____ _____    ______ ____
ROOT
ATOM      1  C   UNL     1       1.839   4.190  21.099  0.00  0.00    +0.000 C 
ENDROOT
BRANCH   1   2
ATOM      2  C   UNL     1       1.681   2.979  20.160  0.00  0.00    +0.000 C 
ATOM      3  C   UNL     1       2.970   2.163  19.956  0.00  0.00    +0.000 C 
ATOM      4  C   UNL     1       3.912   2.701  18.874  0.00  0.00    +0.000 C 
ATOM      5  N   UNL     1       3.201   2.941  17.605  0.00  0.00    +0.000 NA
ATOM      6  C   UNL     1       2.142   3.939  17.832  0.00  0.00    +0.000 C 
ATOM      7  C   UNL     1       1.093   3.391  18.802  0.00  0.00    +0.000 C 
BRANCH   5   8
ATOM      8  C   UNL     1       4.114   3.407  16.544  0.00  0.00    +0.000 C 
BRANCH   8   9
ATOM      9  C   UNL     1       5.043   4.532  16.951  0.00  0.00    +0.000 A 
ATOM     10  C   UNL     1       4.786   5.849  16.554  0.00  0.00    +0.000 A 
ATOM     11  C   UNL     1       5.672   6.868  16.890  0.00  0.00    +0.000 A 
ATOM     12  CA  UNL     1       6.799   6.533  17.622  0.00  0.00    +0.000 A 
ATOM     13  N   UNL     1       7.096   5.267  18.044  0.00  0.00    +0.000 NA
ATOM     14  C   UNL     1       6.203   4.303  17.694  0.00  0.00    +0.000 A 
BRANCH  12  15
ATOM     15  C   UNL     1       7.786   7.596  17.987  0.00  0.00    +0.000 C 
ATOM     16  O   UNL     1       8.631   7.494  18.855  0.00  0.00    +0.000 OA
BRANCH  15  17
ATOM     17  OXT UNL     1       7.610   8.698  17.215  0.00  0.00    +0.000 OA
ATOM     18  HXT UNL     1       8.445   8.873  16.719  0.00  0.00    +0.000 HD
ENDBRANCH  15  17
ENDBRANCH  12  15
ENDBRANCH   8   9
ENDBRANCH   5   8
ENDBRANCH   1   2
BRANCH   1  21
ATOM     19  C   UNL     1       2.649   6.245  19.909  0.00  0.00    +0.000 C 
ATOM     20  O   UNL     1       3.839   5.940  19.941  0.00  0.00    +0.000 OA
ATOM     21  N   UNL     1       1.640   5.447  20.412  0.00  0.00    +0.000 N 
ATOM     22  H   UNL     1       0.708   5.849  20.337  0.00  0.00    +0.000 HD
BRANCH  19  29
ATOM     23  C   UNL     1       0.393  10.098  21.586  0.00  0.00    +0.000 A 
ATOM     24  C   UNL     1       0.198  11.025  20.561  0.00  0.00    +0.000 A 
ATOM     25  C   UNL     1       0.607  10.754  19.251  0.00  0.00    +0.000 A 
ATOM     26  C   UNL     1       1.230   9.527  19.016  0.00  0.00    +0.000 A 
ATOM     27  N   UNL     1       1.724   8.978  17.866  0.00  0.00    +0.000 N 
ATOM     28  N   UNL     1       2.273   7.764  18.020  0.00  0.00    +0.000 NA
ATOM     29  C   UNL     1       2.139   7.510  19.344  0.00  0.00    +0.000 A 
ATOM     30  C   UNL     1       1.470   8.584  20.010  0.00  0.00    +0.000 A 
ATOM     31  C   UNL     1       1.042   8.879  21.323  0.00  0.00    +0.000 A 
ATOM     32  H   UNL     1       1.715   9.389  16.939  0.00  0.00    +0.000 HD
BRANCH  23  34
ATOM     33  C   UNL     1      -1.062  11.191  23.106  0.00  0.00    +0.000 C 
ATOM     34  O   UNL     1       0.027  10.296  22.892  0.00  0.00    +0.000 OA
ENDBRANCH  23  34
ENDBRANCH  19  29
ENDBRANCH   1  21
TORSDOF 8
ENDMDL
MODEL 5
REMARK VINA RESULT:      -8.1      3.015      9.453
REMARK  Name = 
REMARK  9 active torsions:
REMARK  status: ('A' for Active; 'I' for Inactive)
REMARK    1  A    between atoms: C_1  and  O_2
REMARK    2  A    between atoms: O_2  and  C_3
REMARK    3  A    between atoms: C_9  and  C_10
REMARK    4  A    between atoms: N_12  and  C_13
REMARK    5  A    between atoms: C_13  and  C_14
REMARK    6  A    between atoms: N_17  and  C_18
REMARK    7  A    between atoms: C_18  and  C_19
REMARK    8  A    between atoms: CA_22  and  C_23
REMARK    9  A    between atoms: C_23  and  OXT_25
REMARK                            x       y       z     vdW  Elec       q    Type
REMARK                         _______ _______ _______ _____ _____    ______ ____
ROOT
ATOM      1  C   UNL     1       2.440   2.321  18.627  0.00  0.00    +0.000 C 
ENDROOT
BRANCH   1   2
ATOM      2  C   UNL     1       1.232   3.274  18.704  0.00  0.00    +0.000 C 
ATOM      3  C   UNL     1       1.298   4.460  17.727  0.00  0.00    +0.000 C 
ATOM      4  C   UNL     1       2.101   5.666  18.227  0.00  0.00    +0.000 C 
ATOM      5  N   UNL     1       1.676   6.080  19.576  0.00  0.00    +0.000 NA
ATOM      6  C   UNL     1       1.893   4.963  20.511  0.00  0.00    +0.000 C 
ATOM      7  C   UNL     1       1.002   3.777  20.137  0.00  0.00    +0.000 C 
BRANCH   5   8
ATOM      8  C   UNL     1       2.407   7.274  20.040  0.00  0.00    +0.000 C 
BRANCH   8   9
ATOM      9  C   UNL     1       1.534   8.385  20.586  0.00  0.00    +0.000 A 
ATOM     10  C   UNL     1       0.860   9.254  19.720  0.00  0.00    +0.000 A 
ATOM     11  C   UNL     1       0.100  10.302  20.231  0.00  0.00    +0.000 A 
ATOM     12  CA  UNL     1       0.037  10.447  21.607  0.00  0.00    +0.000 A 
ATOM     13  N   UNL     1       0.665   9.624  22.499  0.00  0.00    +0.000 NA
ATOM     14  C   UNL     1       1.396   8.614  21.957  0.00  0.00    +0.000 A 
BRANCH  12  15
ATOM     15  C   UNL     1      -0.754  11.573  22.196  0.00  0.00    +0.000 C 
ATOM     16  O   UNL     1      -0.670  12.737  21.855  0.00  0.00    +0.000 OA
BRANCH  15  17
ATOM     17  OXT UNL     1      -1.581  11.118  23.171  0.00  0.00    +0.000 OA
ATOM     18  HXT UNL     1      -1.500  10.135  23.221  0.00  0.00    +0.000 HD
ENDBRANCH  15  17
ENDBRANCH  12  15
ENDBRANCH   8   9
ENDBRANCH   5   8
ENDBRANCH   1   2
BRANCH   1  21
ATOM     19  C   UNL     1       4.766   3.204  18.951  0.00  0.00    +0.000 C 
ATOM     20  O   UNL     1       4.892   2.791  20.102  0.00  0.00    +0.000 OA
ATOM     21  N   UNL     1       3.642   2.991  18.179  0.00  0.00    +0.000 N 
ATOM     22  H   UNL     1       3.675   3.420  17.256  0.00  0.00    +0.000 HD
BRANCH  19  29
ATOM     23  C   UNL     1       5.828   4.187  14.406  0.00  0.00    +0.000 A 
ATOM     24  C   UNL     1       6.918   5.056  14.344  0.00  0.00    +0.000 A 
ATOM     25  C   UNL     1       7.565   5.491  15.505  0.00  0.00    +0.000 A 
ATOM     26  C   UNL     1       7.067   5.032  16.726  0.00  0.00    +0.000 A 
ATOM     27  N   UNL     1       7.479   5.266  18.008  0.00  0.00    +0.000 N 
ATOM     28  N   UNL     1       6.743   4.657  18.949  0.00  0.00    +0.000 NA
ATOM     29  C   UNL     1       5.793   3.997  18.245  0.00  0.00    +0.000 A 
ATOM     30  C   UNL     1       5.968   4.187  16.838  0.00  0.00    +0.000 A 
ATOM     31  C   UNL     1       5.335   3.758  15.651  0.00  0.00    +0.000 A 
ATOM     32  H   UNL     1       8.262   5.838  18.303  0.00  0.00    +0.000 HD
BRANCH  23  34
ATOM     33  C   UNL     1       5.934   3.288  12.215  0.00  0.00    +0.000 C 
ATOM     34  O   UNL     1       5.139   3.726  13.314  0.00  0.00    +0.000 OA
ENDBRANCH  23  34
ENDBRANCH  19  29
ENDBRANCH   1  21
TORSDOF 8
ENDMDL
MODEL 6
REMARK VINA RESULT:      -8.0      2.507      9.200
REMARK  Name = 
REMARK  9 active torsions:
REMARK  status: ('A' for Active; 'I' for Inactive)
REMARK    1  A    between atoms: C_1  and  O_2
REMARK    2  A    between atoms: O_2  and  C_3
REMARK    3  A    between atoms: C_9  and  C_10
REMARK    4  A    between atoms: N_12  and  C_13
REMARK    5  A    between atoms: C_13  and  C_14
REMARK    6  A    between atoms: N_17  and  C_18
REMARK    7  A    between atoms: C_18  and  C_19
REMARK    8  A    between atoms: CA_22  and  C_23
REMARK    9  A    between atoms: C_23  and  OXT_25
REMARK                            x       y       z     vdW  Elec       q    Type
REMARK                         _______ _______ _______ _____ _____    ______ ____
ROOT
ATOM      1  C   UNL     1       2.483   2.159  18.588  0.00  0.00    +0.000 C 
ENDROOT
BRANCH   1   2
ATOM      2  C   UNL     1       1.239   3.062  18.685  0.00  0.00    +0.000 C 
ATOM      3  C   UNL     1       1.294   4.313  17.791  0.00  0.00    +0.000 C 
ATOM      4  C   UNL     1       2.035   5.509  18.395  0.00  0.00    +0.000 C 
ATOM      5  N   UNL     1       1.552   5.819  19.753  0.00  0.00    +0.000 NA
ATOM      6  C   UNL     1       1.779   4.650  20.620  0.00  0.00    +0.000 C 
ATOM      7  C   UNL     1       0.944   3.461  20.139  0.00  0.00    +0.000 C 
BRANCH   5   8
ATOM      8  C   UNL     1       2.224   7.004  20.318  0.00  0.00    +0.000 C 
BRANCH   8   9
ATOM      9  C   UNL     1       1.416   8.284  20.260  0.00  0.00    +0.000 A 
ATOM     10  C   UNL     1       0.590   8.656  21.327  0.00  0.00    +0.000 A 
ATOM     11  C   UNL     1      -0.186   9.808  21.244  0.00  0.00    +0.000 A 
ATOM     12  CA  UNL     1      -0.110  10.559  20.082  0.00  0.00    +0.000 A 
ATOM     13  N   UNL     1       0.685  10.250  19.014  0.00  0.00    +0.000 NA
ATOM     14  C   UNL     1       1.427   9.117  19.139  0.00  0.00    +0.000 A 
BRANCH  12  15
ATOM     15  C   UNL     1      -0.943  11.794  19.945  0.00  0.00    +0.000 C 
ATOM     16  O   UNL     1      -2.158  11.822  19.971  0.00  0.00    +0.000 OA
BRANCH  15  17
ATOM     17  OXT UNL     1      -0.156  12.888  19.784  0.00  0.00    +0.000 OA
ATOM     18  HXT UNL     1      -0.614  13.668  20.179  0.00  0.00    +0.000 HD
ENDBRANCH  15  17
ENDBRANCH  12  15
ENDBRANCH   8   9
ENDBRANCH   5   8
ENDBRANCH   1   2
BRANCH   1  21
ATOM     19  C   UNL     1       4.753   3.151  18.986  0.00  0.00    +0.000 C 
ATOM     20  O   UNL     1       4.865   2.736  20.137  0.00  0.00    +0.000 OA
ATOM     21  N   UNL     1       3.663   2.890  18.180  0.00  0.00    +0.000 N 
ATOM     22  H   UNL     1       3.703   3.327  17.261  0.00  0.00    +0.000 HD
BRANCH  19  29
ATOM     23  C   UNL     1       6.032   4.059  14.482  0.00  0.00    +0.000 A 
ATOM     24  C   UNL     1       7.054   5.008  14.454  0.00  0.00    +0.000 A 
ATOM     25  C   UNL     1       7.589   5.532  15.635  0.00  0.00    +0.000 A 
ATOM     26  C   UNL     1       7.049   5.077  16.839  0.00  0.00    +0.000 A 
ATOM     27  N   UNL     1       7.357   5.387  18.134  0.00  0.00    +0.000 N 
ATOM     28  N   UNL     1       6.610   4.754  19.051  0.00  0.00    +0.000 NA
ATOM     29  C   UNL     1       5.761   3.997  18.315  0.00  0.00    +0.000 A 
ATOM     30  C   UNL     1       6.012   4.153  16.915  0.00  0.00    +0.000 A 
ATOM     31  C   UNL     1       5.493   3.635  15.709  0.00  0.00    +0.000 A 
ATOM     32  H   UNL     1       8.073   6.028  18.455  0.00  0.00    +0.000 HD
BRANCH  23  34
ATOM     33  C   UNL     1       6.281   3.427  12.209  0.00  0.00    +0.000 C 
ATOM     34  O   UNL     1       5.454   3.507  13.367  0.00  0.00    +0.000 OA
ENDBRANCH  23  34
ENDBRANCH  19  29
ENDBRANCH   1  21
TORSDOF 8
ENDMDL
MODEL 7
REMARK VINA RESULT:      -7.9      3.984     11.668
REMARK  Name = 
REMARK  9 active torsions:
REMARK  status: ('A' for Active; 'I' for Inactive)
REMARK    1  A    between atoms: C_1  and  O_2
REMARK    2  A    between atoms: O_2  and  C_3
REMARK    3  A    between atoms: C_9  and  C_10
REMARK    4  A    between atoms: N_12  and  C_13
REMARK    5  A    between atoms: C_13  and  C_14
REMARK    6  A    between atoms: N_17  and  C_18
REMARK    7  A    between atoms: C_18  and  C_19
REMARK    8  A    between atoms: CA_22  and  C_23
REMARK    9  A    between atoms: C_23  and  OXT_25
REMARK                            x       y       z     vdW  Elec       q    Type
REMARK                         _______ _______ _______ _____ _____    ______ ____
ROOT
ATOM      1  C   UNL     1       1.644   8.700  20.972  0.00  0.00    +0.000 C 
ENDROOT
BRANCH   1   2
ATOM      2  C   UNL     1       0.103   8.720  20.998  0.00  0.00    +0.000 C 
ATOM      3  C   UNL     1      -0.530   9.823  20.133  0.00  0.00    +0.000 C 
ATOM      4  C   UNL     1      -0.642  11.193  20.810  0.00  0.00    +0.000 C 
ATOM      5  N   UNL     1      -1.277  11.094  22.136  0.00  0.00    +0.000 NA
ATOM      6  C   UNL     1      -0.459  10.220  22.995  0.00  0.00    +0.000 C 
ATOM      7  C   UNL     1      -0.434   8.797  22.435  0.00  0.00    +0.000 C 
BRANCH   5   8
ATOM      8  C   UNL     1      -1.437  12.416  22.770  0.00  0.00    +0.000 C 
BRANCH   8   9
ATOM      9  C   UNL     1      -2.872  12.851  22.986  0.00  0.00    +0.000 A 
ATOM     10  C   UNL     1      -3.274  13.401  24.208  0.00  0.00    +0.000 A 
ATOM     11  C   UNL     1      -4.606  13.752  24.414  0.00  0.00    +0.000 A 
ATOM     12  CA  UNL     1      -5.500  13.540  23.378  0.00  0.00    +0.000 A 
ATOM     13  N   UNL     1      -5.162  13.016  22.162  0.00  0.00    +0.000 NA
ATOM     14  C   UNL     1      -3.852  12.689  22.004  0.00  0.00    +0.000 A 
BRANCH  12  15
ATOM     15  C   UNL     1      -6.944  13.885  23.567  0.00  0.00    +0.000 C 
ATOM     16  O   UNL     1      -7.605  14.560  22.801  0.00  0.00    +0.000 OA
BRANCH  15  17
ATOM     17  OXT UNL     1      -7.420  13.342  24.716  0.00  0.00    +0.000 OA
ATOM     18  HXT UNL     1      -8.328  12.995  24.548  0.00  0.00    +0.000 HD
ENDBRANCH  15  17
ENDBRANCH  12  15
ENDBRANCH   8   9
ENDBRANCH   5   8
ENDBRANCH   1   2
BRANCH   1  21
ATOM     19  C   UNL     1       2.377   7.699  18.791  0.00  0.00    +0.000 C 
ATOM     20  O   UNL     1       2.195   8.716  18.125  0.00  0.00    +0.000 OA
ATOM     21  N   UNL     1       2.166   7.627  20.154  0.00  0.00    +0.000 N 
ATOM     22  H   UNL     1       2.333   6.708  20.559  0.00  0.00    +0.000 HD
BRANCH  19  29
ATOM     23  C   UNL     1       6.382   6.040  16.804  0.00  0.00    +0.000 A 
ATOM     24  C   UNL     1       6.237   4.689  16.485  0.00  0.00    +0.000 A 
ATOM     25  C   UNL     1       5.035   4.014  16.718  0.00  0.00    +0.000 A 
ATOM     26  C   UNL     1       3.993   4.743  17.295  0.00  0.00    +0.000 A 
ATOM     27  N   UNL     1       2.721   4.376  17.632  0.00  0.00    +0.000 N 
ATOM     28  N   UNL     1       1.988   5.353  18.186  0.00  0.00    +0.000 NA
ATOM     29  C   UNL     1       2.830   6.413  18.222  0.00  0.00    +0.000 A 
ATOM     30  C   UNL     1       4.100   6.083  17.654  0.00  0.00    +0.000 A 
ATOM     31  C   UNL     1       5.322   6.743  17.403  0.00  0.00    +0.000 A 
ATOM     32  H   UNL     1       2.294   3.465  17.506  0.00  0.00    +0.000 HD
BRANCH  23  34
ATOM     33  C   UNL     1       7.771   7.812  17.547  0.00  0.00    +0.000 C 
ATOM     34  O   UNL     1       7.530   6.764  16.612  0.00  0.00    +0.000 OA
ENDBRANCH  23  34
ENDBRANCH  19  29
ENDBRANCH   1  21
TORSDOF 8
ENDMDL
MODEL 8
REMARK VINA RESULT:      -7.9      4.130     11.767
REMARK  Name = 
REMARK  9 active torsions:
REMARK  status: ('A' for Active; 'I' for Inactive)
REMARK    1  A    between atoms: C_1  and  O_2
REMARK    2  A    between atoms: O_2  and  C_3
REMARK    3  A    between atoms: C_9  and  C_10
REMARK    4  A    between atoms: N_12  and  C_13
REMARK    5  A    between atoms: C_13  and  C_14
REMARK    6  A    between atoms: N_17  and  C_18
REMARK    7  A    between atoms: C_18  and  C_19
REMARK    8  A    between atoms: CA_22  and  C_23
REMARK    9  A    between atoms: C_23  and  OXT_25
REMARK                            x       y       z     vdW  Elec       q    Type
REMARK                         _______ _______ _______ _____ _____    ______ ____
ROOT
ATOM      1  C   UNL     1       1.479   8.680  21.318  0.00  0.00    +0.000 C 
ENDROOT
BRANCH   1   2
ATOM      2  C   UNL     1      -0.040   8.856  21.127  0.00  0.00    +0.000 C 
ATOM      3  C   UNL     1      -0.433  10.067  20.265  0.00  0.00    +0.000 C 
ATOM      4  C   UNL     1      -0.517  11.398  21.018  0.00  0.00    +0.000 C 
ATOM      5  N   UNL     1      -1.348  11.287  22.229  0.00  0.00    +0.000 NA
ATOM      6  C   UNL     1      -0.751  10.285  23.129  0.00  0.00    +0.000 C 
ATOM      7  C   UNL     1      -0.775   8.902  22.476  0.00  0.00    +0.000 C 
BRANCH   5   8
ATOM      8  C   UNL     1      -1.476  12.579  22.929  0.00  0.00    +0.000 C 
BRANCH   8   9
ATOM      9  C   UNL     1      -2.901  13.036  23.169  0.00  0.00    +0.000 A 
ATOM     10  C   UNL     1      -3.423  14.135  22.477  0.00  0.00    +0.000 A 
ATOM     11  C   UNL     1      -4.716  14.578  22.740  0.00  0.00    +0.000 A 
ATOM     12  CA  UNL     1      -5.453  13.898  23.696  0.00  0.00    +0.000 A 
ATOM     13  N   UNL     1      -4.998  12.815  24.394  0.00  0.00    +0.000 NA
ATOM     14  C   UNL     1      -3.731  12.416  24.104  0.00  0.00    +0.000 A 
BRANCH  12  15
ATOM     15  C   UNL     1      -6.840  14.354  24.022  0.00  0.00    +0.000 C 
ATOM     16  O   UNL     1      -7.306  15.437  23.724  0.00  0.00    +0.000 OA
BRANCH  15  17
ATOM     17  OXT UNL     1      -7.513  13.392  24.702  0.00  0.00    +0.000 OA
ATOM     18  HXT UNL     1      -6.864  12.859  25.221  0.00  0.00    +0.000 HD
ENDBRANCH  15  17
ENDBRANCH  12  15
ENDBRANCH   8   9
ENDBRANCH   5   8
ENDBRANCH   1   2
BRANCH   1  21
ATOM     19  C   UNL     1       2.293   7.317  19.375  0.00  0.00    +0.000 C 
ATOM     20  O   UNL     1       2.249   8.235  18.558  0.00  0.00    +0.000 OA
ATOM     21  N   UNL     1       1.972   7.463  20.710  0.00  0.00    +0.000 N 
ATOM     22  H   UNL     1       2.030   6.605  21.254  0.00  0.00    +0.000 HD
BRANCH  19  29
ATOM     23  C   UNL     1       5.254   5.238  16.267  0.00  0.00    +0.000 A 
ATOM     24  C   UNL     1       5.237   3.854  16.439  0.00  0.00    +0.000 A 
ATOM     25  C   UNL     1       4.407   3.252  17.389  0.00  0.00    +0.000 A 
ATOM     26  C   UNL     1       3.608   4.092  18.167  0.00  0.00    +0.000 A 
ATOM     27  N   UNL     1       2.704   3.813  19.152  0.00  0.00    +0.000 N 
ATOM     28  N   UNL     1       2.121   4.891  19.696  0.00  0.00    +0.000 NA
ATOM     29  C   UNL     1       2.681   5.933  19.036  0.00  0.00    +0.000 A 
ATOM     30  C   UNL     1       3.611   5.479  18.049  0.00  0.00    +0.000 A 
ATOM     31  C   UNL     1       4.454   6.062  17.078  0.00  0.00    +0.000 A 
ATOM     32  H   UNL     1       2.442   2.897  19.499  0.00  0.00    +0.000 HD
BRANCH  23  34
ATOM     33  C   UNL     1       6.809   5.077  14.483  0.00  0.00    +0.000 C 
ATOM     34  O   UNL     1       6.045   5.899  15.363  0.00  0.00    +0.000 OA
ENDBRANCH  23  34
ENDBRANCH  19  29
ENDBRANCH   1  21
TORSDOF 8
ENDMDL
MODEL 9
REMARK VINA RESULT:      -7.9      1.371      1.638
REMARK  Name = 
REMARK  9 active torsions:
REMARK  status: ('A' for Active; 'I' for Inactive)
REMARK    1  A    between atoms: C_1  and  O_2
REMARK    2  A    between atoms: O_2  and  C_3
REMARK    3  A    between atoms: C_9  and  C_10
REMARK    4  A    between atoms: N_12  and  C_13
REMARK    5  A    between atoms: C_13  and  C_14
REMARK    6  A    between atoms: N_17  and  C_18
REMARK    7  A    between atoms: C_18  and  C_19
REMARK    8  A    between atoms: CA_22  and  C_23
REMARK    9  A    between atoms: C_23  and  OXT_25
REMARK                            x       y       z     vdW  Elec       q    Type
REMARK                         _______ _______ _______ _____ _____    ______ ____
ROOT
ATOM      1  C   UNL     1       1.817   6.596  21.214  0.00  0.00    +0.000 C 
ENDROOT
BRANCH   1   2
ATOM      2  C   UNL     1       1.758   5.705  19.959  0.00  0.00    +0.000 C 
ATOM      3  C   UNL     1       2.632   4.442  20.036  0.00  0.00    +0.000 C 
ATOM      4  C   UNL     1       4.100   4.646  19.648  0.00  0.00    +0.000 C 
ATOM      5  N   UNL     1       4.229   5.331  18.350  0.00  0.00    +0.000 NA
ATOM      6  C   UNL     1       3.588   6.654  18.441  0.00  0.00    +0.000 C 
ATOM      7  C   UNL     1       2.086   6.502  18.687  0.00  0.00    +0.000 C 
BRANCH   5   8
ATOM      8  C   UNL     1       5.640   5.481  17.946  0.00  0.00    +0.000 C 
BRANCH   8   9
ATOM      9  C   UNL     1       5.934   5.110  16.507  0.00  0.00    +0.000 A 
ATOM     10  C   UNL     1       5.034   4.328  15.774  0.00  0.00    +0.000 A 
ATOM     11  C   UNL     1       5.336   3.949  14.468  0.00  0.00    +0.000 A 
ATOM     12  CA  UNL     1       6.541   4.373  13.933  0.00  0.00    +0.000 A 
ATOM     13  N   UNL     1       7.452   5.145  14.598  0.00  0.00    +0.000 NA
ATOM     14  C   UNL     1       7.116   5.491  15.869  0.00  0.00    +0.000 A 
BRANCH  12  15
ATOM     15  C   UNL     1       6.912   3.972  12.540  0.00  0.00    +0.000 C 
ATOM     16  O   UNL     1       7.554   4.654  11.766  0.00  0.00    +0.000 OA
BRANCH  15  17
ATOM     17  OXT UNL     1       6.430   2.736  12.253  0.00  0.00    +0.000 OA
ATOM     18  HXT UNL     1       5.444   2.769  12.271  0.00  0.00    +0.000 HD
ENDBRANCH  15  17
ENDBRANCH  12  15
ENDBRANCH   8   9
ENDBRANCH   5   8
ENDBRANCH   1   2
BRANCH   1  21
ATOM     19  C   UNL     1       0.326   8.613  21.271  0.00  0.00    +0.000 C 
ATOM     20  O   UNL     1      -0.569   8.081  21.925  0.00  0.00    +0.000 OA
ATOM     21  N   UNL     1       1.502   7.978  20.924  0.00  0.00    +0.000 N 
ATOM     22  H   UNL     1       2.134   8.540  20.357  0.00  0.00    +0.000 HD
BRANCH  19  29
ATOM     23  C   UNL     1      -1.798  10.824  17.618  0.00  0.00    +0.000 A 
ATOM     24  C   UNL     1      -1.529  12.192  17.662  0.00  0.00    +0.000 A 
ATOM     25  C   UNL     1      -0.708  12.738  18.654  0.00  0.00    +0.000 A 
ATOM     26  C   UNL     1      -0.183  11.861  19.605  0.00  0.00    +0.000 A 
ATOM     27  N   UNL     1       0.642  12.083  20.671  0.00  0.00    +0.000 N 
ATOM     28  N   UNL     1       0.936  10.986  21.385  0.00  0.00    +0.000 NA
ATOM     29  C   UNL     1       0.259   9.996  20.757  0.00  0.00    +0.000 A 
ATOM     30  C   UNL     1      -0.446  10.495  19.617  0.00  0.00    +0.000 A 
ATOM     31  C   UNL     1      -1.273   9.967  18.602  0.00  0.00    +0.000 A 
ATOM     32  H   UNL     1       1.039  12.969  20.963  0.00  0.00    +0.000 HD
BRANCH  23  34
ATOM     33  C   UNL     1      -3.682  11.002  16.188  0.00  0.00    +0.000 C 
ATOM     34  O   UNL     1      -2.598  10.219  16.683  0.00  0.00    +0.000 OA
ENDBRANCH  23  34
ENDBRANCH  19  29
ENDBRANCH   1  21
TORSDOF 8
ENDMDL
