MODEL 1
REMARK VINA RESULT:      -8.0      0.000      0.000
REMARK  Name = 
REMARK  6 active torsions:
REMARK  status: ('A' for Active; 'I' for Inactive)
REMARK    1  A    between atoms: C_2  and  C_13
REMARK    2  A    between atoms: N_3  and  C_4
REMARK    3  A    between atoms: C_4  and  C_5
REMARK    4  A    between atoms: C_5  and  C_6
REMARK    5  A    between atoms: C_6  and  C_7
REMARK    6  A    between atoms: C_14  and  O_15
REMARK                            x       y       z     vdW  Elec       q    Type
REMARK                         _______ _______ _______ _____ _____    ______ ____
ROOT
ATOM      1  O   UNL     1       7.516   6.402  16.173  0.00  0.00    +0.000 OA
ATOM      2  C   UNL     1       6.914   6.732  17.196  0.00  0.00    +0.000 C 
ATOM      3  N   UNL     1       7.190   7.889  17.870  0.00  0.00    +0.000 N 
ATOM      4  H   UNL     1       6.586   8.177  18.640  0.00  0.00    +0.000 HD
ENDROOT
BRANCH   2   5
ATOM      5  C   UNL     1       5.885   5.834  17.783  0.00  0.00    +0.000 A 
ATOM      6  C   UNL     1       6.275   4.641  18.290  0.00  0.00    +0.000 A 
ATOM      7  N   UNL     1       5.433   3.746  18.899  0.00  0.00    +0.000 NA
ATOM      8  C   UNL     1       4.192   4.067  18.943  0.00  0.00    +0.000 A 
ATOM      9  S   UNL     1       2.929   3.076  19.649  0.00  0.00    +0.000 S 
ATOM     10  C   UNL     1       1.730   4.268  19.228  0.00  0.00    +0.000 A 
ATOM     11  C   UNL     1       2.277   5.321  18.614  0.00  0.00    +0.000 A 
ATOM     12  N   UNL     1       3.643   5.227  18.450  0.00  0.00    +0.000 N 
ATOM     13  C   UNL     1       4.443   6.188  17.877  0.00  0.00    +0.000 A 
ATOM     14  O   UNL     1       4.030   7.276  17.474  0.00  0.00    +0.000 OA
BRANCH   6  15
ATOM     15  O   UNL     1       7.591   4.211  18.258  0.00  0.00    +0.000 OA
ATOM     16  H   UNL     1       7.738   3.686  17.440  0.00  0.00    +0.000 HD
ENDBRANCH   6  15
ENDBRANCH   2   5
BRANCH   3  17
ATOM     17  C   UNL     1       8.245   8.782  17.437  0.00  0.00    +0.000 C 
BRANCH  17  18
ATOM     18  C   UNL     1       8.231  10.092  18.216  0.00  0.00    +0.000 C 
BRANCH  18  19
ATOM     19  C   UNL     1       9.332  10.096  19.277  0.00  0.00    +0.000 C 
BRANCH  19  20
ATOM     20  C   UNL     1      10.340  11.192  19.044  0.00  0.00    +0.000 A 
ATOM     21  C   UNL     1      10.949  11.842  20.126  0.00  0.00    +0.000 A 
ATOM     22  C   UNL     1      11.858  12.878  19.909  0.00  0.00    +0.000 A 
ATOM     23  C   UNL     1      12.167  13.275  18.609  0.00  0.00    +0.000 A 
ATOM     24  C   UNL     1      11.573  12.630  17.526  0.00  0.00    +0.000 A 
ATOM     25  C   UNL     1      10.661  11.596  17.741  0.00  0.00    +0.000 A 
ENDBRANCH  19  20
ENDBRANCH  18  19
ENDBRANCH  17  18
ENDBRANCH   3  17
TORSDOF 6
ENDMDL
MODEL 2
REMARK VINA RESULT:      -7.9      1.161      1.463
REMARK  Name = 
REMARK  6 active torsions:
REMARK  status: ('A' for Active; 'I' for Inactive)
REMARK    1  A    between atoms: C_2  and  C_13
REMARK    2  A    between atoms: N_3  and  C_4
REMARK    3  A    between atoms: C_4  and  C_5
REMARK    4  A    between atoms: C_5  and  C_6
REMARK    5  A    between atoms: C_6  and  C_7
REMARK    6  A    between atoms: C_14  and  O_15
REMARK                            x       y       z     vdW  Elec       q    Type
REMARK                         _______ _______ _______ _____ _____    ______ ____
ROOT
ATOM      1  O   UNL     1       5.141   6.914  16.620  0.00  0.00    +0.000 OA
ATOM      2  C   UNL     1       5.570   6.494  17.696  0.00  0.00    +0.000 C 
ATOM      3  N   UNL     1       6.788   6.865  18.197  0.00  0.00    +0.000 N 
ATOM      4  H   UNL     1       7.047   6.586  19.143  0.00  0.00    +0.000 HD
ENDROOT
BRANCH   2   5
ATOM      5  C   UNL     1       4.792   5.497  18.477  0.00  0.00    +0.000 A 
ATOM      6  C   UNL     1       5.352   4.294  18.738  0.00  0.00    +0.000 A 
ATOM      7  N   UNL     1       4.757   3.309  19.486  0.00  0.00    +0.000 NA
ATOM      8  C   UNL     1       3.577   3.555  19.921  0.00  0.00    +0.000 A 
ATOM      9  S   UNL     1       2.613   2.444  20.876  0.00  0.00    +0.000 S 
ATOM     10  C   UNL     1       1.306   3.595  20.934  0.00  0.00    +0.000 A 
ATOM     11  C   UNL     1       1.613   4.721  20.282  0.00  0.00    +0.000 A 
ATOM     12  N   UNL     1       2.870   4.716  19.716  0.00  0.00    +0.000 N 
ATOM     13  C   UNL     1       3.433   5.761  19.022  0.00  0.00    +0.000 A 
ATOM     14  O   UNL     1       2.884   6.852  18.857  0.00  0.00    +0.000 OA
BRANCH   6  15
ATOM     15  O   UNL     1       6.611   3.942  18.283  0.00  0.00    +0.000 OA
ATOM     16  H   UNL     1       6.665   2.963  18.209  0.00  0.00    +0.000 HD
ENDBRANCH   6  15
ENDBRANCH   2   5
BRANCH   3  17
ATOM     17  C   UNL     1       7.667   7.752  17.462  0.00  0.00    +0.000 C 
BRANCH  17  18
ATOM     18  C   UNL     1       8.551   8.571  18.395  0.00  0.00    +0.000 C 
BRANCH  18  19
ATOM     19  C   UNL     1       8.460  10.058  18.051  0.00  0.00    +0.000 C 
BRANCH  19  20
ATOM     20  C   UNL     1       9.592  10.850  18.654  0.00  0.00    +0.000 A 
ATOM     21  C   UNL     1       9.658  11.054  20.039  0.00  0.00    +0.000 A 
ATOM     22  C   UNL     1      10.689  11.814  20.594  0.00  0.00    +0.000 A 
ATOM     23  C   UNL     1      11.664  12.375  19.770  0.00  0.00    +0.000 A 
ATOM     24  C   UNL     1      11.612  12.170  18.393  0.00  0.00    +0.000 A 
ATOM     25  C   UNL     1      10.580  11.414  17.836  0.00  0.00    +0.000 A 
ENDBRANCH  19  20
ENDBRANCH  18  19
ENDBRANCH  17  18
ENDBRANCH   3  17
TORSDOF 6
ENDMDL
MODEL 3
REMARK VINA RESULT:      -7.7      1.101      1.656
REMARK  Name = 
REMARK  6 active torsions:
REMARK  status: ('A' for Active; 'I' for Inactive)
REMARK    1  A    between atoms: C_2  and  C_13
REMARK    2  A    between atoms: N_3  and  C_4
REMARK    3  A    between atoms: C_4  and  C_5
REMARK    4  A    between atoms: C_5  and  C_6
REMARK    5  A    between atoms: C_6  and  C_7
REMARK    6  A    between atoms: C_14  and  O_15
REMARK                            x       y       z     vdW  Elec       q    Type
REMARK                         _______ _______ _______ _____ _____    ______ ____
ROOT
ATOM      1  O   UNL     1       5.548   6.185  16.089  0.00  0.00    +0.000 OA
ATOM      2  C   UNL     1       5.641   6.238  17.316  0.00  0.00    +0.000 C 
ATOM      3  N   UNL     1       6.529   7.063  17.952  0.00  0.00    +0.000 N 
ATOM      4  H   UNL     1       6.486   7.158  18.966  0.00  0.00    +0.000 HD
ENDROOT
BRANCH   2   5
ATOM      5  C   UNL     1       4.819   5.340  18.170  0.00  0.00    +0.000 A 
ATOM      6  C   UNL     1       5.395   4.235  18.696  0.00  0.00    +0.000 A 
ATOM      7  N   UNL     1       4.759   3.355  19.535  0.00  0.00    +0.000 NA
ATOM      8  C   UNL     1       3.526   3.597  19.790  0.00  0.00    +0.000 A 
ATOM      9  S   UNL     1       2.505   2.606  20.813  0.00  0.00    +0.000 S 
ATOM     10  C   UNL     1       1.153   3.667  20.528  0.00  0.00    +0.000 A 
ATOM     11  C   UNL     1       1.485   4.684  19.727  0.00  0.00    +0.000 A 
ATOM     12  N   UNL     1       2.800   4.662  19.310  0.00  0.00    +0.000 N 
ATOM     13  C   UNL     1       3.395   5.608  18.509  0.00  0.00    +0.000 A 
ATOM     14  O   UNL     1       2.825   6.619  18.098  0.00  0.00    +0.000 OA
BRANCH   6  15
ATOM     15  O   UNL     1       6.713   3.891  18.449  0.00  0.00    +0.000 OA
ATOM     16  H   UNL     1       6.784   2.912  18.387  0.00  0.00    +0.000 HD
ENDBRANCH   6  15
ENDBRANCH   2   5
BRANCH   3  17
ATOM     17  C   UNL     1       7.446   7.901  17.207  0.00  0.00    +0.000 C 
BRANCH  17  18
ATOM     18  C   UNL     1       8.424   8.622  18.126  0.00  0.00    +0.000 C 
BRANCH  18  19
ATOM     19  C   UNL     1       8.357  10.133  17.900  0.00  0.00    +0.000 C 
BRANCH  19  20
ATOM     20  C   UNL     1       9.466  10.862  18.615  0.00  0.00    +0.000 A 
ATOM     21  C   UNL     1      10.540  11.405  17.896  0.00  0.00    +0.000 A 
ATOM     22  C   UNL     1      11.582  12.052  18.561  0.00  0.00    +0.000 A 
ATOM     23  C   UNL     1      11.561  12.162  19.951  0.00  0.00    +0.000 A 
ATOM     24  C   UNL     1      10.495  11.632  20.674  0.00  0.00    +0.000 A 
ATOM     25  C   UNL     1       9.453  10.982  20.011  0.00  0.00    +0.000 A 
ENDBRANCH  19  20
ENDBRANCH  18  19
ENDBRANCH  17  18
ENDBRANCH   3  17
TORSDOF 6
ENDMDL
MODEL 4
REMARK VINA RESULT:      -7.7      1.405      1.791
REMARK  Name = 
REMARK  6 active torsions:
REMARK  status: ('A' for Active; 'I' for Inactive)
REMARK    1  A    between atoms: C_2  and  C_13
REMARK    2  A    between atoms: N_3  and  C_4
REMARK    3  A    between atoms: C_4  and  C_5
REMARK    4  A    between atoms: C_5  and  C_6
REMARK    5  A    between atoms: C_6  and  C_7
REMARK    6  A    between atoms: C_14  and  O_15
REMARK                            x       y       z     vdW  Elec       q    Type
REMARK                         _______ _______ _______ _____ _____    ______ ____
ROOT
ATOM      1  O   UNL     1       7.667   5.387  16.495  0.00  0.00    +0.000 OA
ATOM      2  C   UNL     1       6.814   5.856  17.250  0.00  0.00    +0.000 C 
ATOM      3  N   UNL     1       6.806   7.173  17.622  0.00  0.00    +0.000 N 
ATOM      4  H   UNL     1       6.015   7.538  18.152  0.00  0.00    +0.000 HD
ENDROOT
BRANCH   2   5
ATOM      5  C   UNL     1       5.778   4.976  17.850  0.00  0.00    +0.000 A 
ATOM      6  C   UNL     1       5.847   4.695  19.172  0.00  0.00    +0.000 A 
ATOM      7  N   UNL     1       4.929   3.936  19.852  0.00  0.00    +0.000 NA
ATOM      8  C   UNL     1       3.972   3.439  19.158  0.00  0.00    +0.000 A 
ATOM      9  S   UNL     1       2.696   2.422  19.801  0.00  0.00    +0.000 S 
ATOM     10  C   UNL     1       1.988   2.272  18.216  0.00  0.00    +0.000 A 
ATOM     11  C   UNL     1       2.680   2.957  17.301  0.00  0.00    +0.000 A 
ATOM     12  N   UNL     1       3.783   3.613  17.808  0.00  0.00    +0.000 N 
ATOM     13  C   UNL     1       4.638   4.407  17.080  0.00  0.00    +0.000 A 
ATOM     14  O   UNL     1       4.493   4.659  15.883  0.00  0.00    +0.000 OA
BRANCH   6  15
ATOM     15  O   UNL     1       6.862   5.173  19.984  0.00  0.00    +0.000 OA
ATOM     16  H   UNL     1       7.297   5.935  19.541  0.00  0.00    +0.000 HD
ENDBRANCH   6  15
ENDBRANCH   2   5
BRANCH   3  17
ATOM     17  C   UNL     1       7.834   8.090  17.175  0.00  0.00    +0.000 C 
BRANCH  17  18
ATOM     18  C   UNL     1       8.480   8.827  18.341  0.00  0.00    +0.000 C 
BRANCH  18  19
ATOM     19  C   UNL     1       8.477  10.335  18.090  0.00  0.00    +0.000 C 
BRANCH  19  20
ATOM     20  C   UNL     1       9.654  11.019  18.739  0.00  0.00    +0.000 A 
ATOM     21  C   UNL     1      10.785  11.358  17.983  0.00  0.00    +0.000 A 
ATOM     22  C   UNL     1      11.886  11.962  18.591  0.00  0.00    +0.000 A 
ATOM     23  C   UNL     1      11.868  12.234  19.958  0.00  0.00    +0.000 A 
ATOM     24  C   UNL     1      10.745  11.908  20.716  0.00  0.00    +0.000 A 
ATOM     25  C   UNL     1       9.644  11.301  20.111  0.00  0.00    +0.000 A 
ENDBRANCH  19  20
ENDBRANCH  18  19
ENDBRANCH  17  18
ENDBRANCH   3  17
TORSDOF 6
ENDMDL
MODEL 5
REMARK VINA RESULT:      -7.7      1.489      2.599
REMARK  Name = 
REMARK  6 active torsions:
REMARK  status: ('A' for Active; 'I' for Inactive)
REMARK    1  A    between atoms: C_2  and  C_13
REMARK    2  A    between atoms: N_3  and  C_4
REMARK    3  A    between atoms: C_4  and  C_5
REMARK    4  A    between atoms: C_5  and  C_6
REMARK    5  A    between atoms: C_6  and  C_7
REMARK    6  A    between atoms: C_14  and  O_15
REMARK                            x       y       z     vdW  Elec       q    Type
REMARK                         _______ _______ _______ _____ _____    ______ ____
ROOT
ATOM      1  O   UNL     1       5.455   6.903  15.566  0.00  0.00    +0.000 OA
ATOM      2  C   UNL     1       5.471   6.591  16.758  0.00  0.00    +0.000 C 
ATOM      3  N   UNL     1       6.484   6.961  17.600  0.00  0.00    +0.000 N 
ATOM      4  H   UNL     1       6.394   6.782  18.600  0.00  0.00    +0.000 HD
ENDROOT
BRANCH   2   5
ATOM      5  C   UNL     1       4.400   5.730  17.323  0.00  0.00    +0.000 A 
ATOM      6  C   UNL     1       3.344   6.319  17.931  0.00  0.00    +0.000 A 
ATOM      7  N   UNL     1       2.272   5.639  18.450  0.00  0.00    +0.000 NA
ATOM      8  C   UNL     1       2.315   4.360  18.376  0.00  0.00    +0.000 A 
ATOM      9  S   UNL     1       1.075   3.281  18.987  0.00  0.00    +0.000 S 
ATOM     10  C   UNL     1       1.993   1.895  18.467  0.00  0.00    +0.000 A 
ATOM     11  C   UNL     1       3.135   2.256  17.874  0.00  0.00    +0.000 A 
ATOM     12  N   UNL     1       3.328   3.620  17.812  0.00  0.00    +0.000 N 
ATOM     13  C   UNL     1       4.404   4.245  17.227  0.00  0.00    +0.000 A 
ATOM     14  O   UNL     1       5.314   3.650  16.648  0.00  0.00    +0.000 OA
BRANCH   6  15
ATOM     15  O   UNL     1       3.236   7.691  18.074  0.00  0.00    +0.000 OA
ATOM     16  H   UNL     1       3.634   7.958  18.932  0.00  0.00    +0.000 HD
ENDBRANCH   6  15
ENDBRANCH   2   5
BRANCH   3  17
ATOM     17  C   UNL     1       7.626   7.713  17.122  0.00  0.00    +0.000 C 
BRANCH  17  18
ATOM     18  C   UNL     1       8.326   8.455  18.254  0.00  0.00    +0.000 C 
BRANCH  18  19
ATOM     19  C   UNL     1       8.217   9.967  18.052  0.00  0.00    +0.000 C 
BRANCH  19  20
ATOM     20  C   UNL     1       9.370  10.707  18.681  0.00  0.00    +0.000 A 
ATOM     21  C   UNL     1      10.452  11.135  17.899  0.00  0.00    +0.000 A 
ATOM     22  C   UNL     1      11.533  11.792  18.487  0.00  0.00    +0.000 A 
ATOM     23  C   UNL     1      11.544  12.028  19.861  0.00  0.00    +0.000 A 
ATOM     24  C   UNL     1      10.470  11.613  20.646  0.00  0.00    +0.000 A 
ATOM     25  C   UNL     1       9.389  10.953  20.060  0.00  0.00    +0.000 A 
ENDBRANCH  19  20
ENDBRANCH  18  19
ENDBRANCH  17  18
ENDBRANCH   3  17
TORSDOF 6
ENDMDL
MODEL 6
REMARK VINA RESULT:      -7.7      4.149      6.005
REMARK  Name = 
REMARK  6 active torsions:
REMARK  status: ('A' for Active; 'I' for Inactive)
REMARK    1  A    between atoms: C_2  and  C_13
REMARK    2  A    between atoms: N_3  and  C_4
REMARK    3  A    between atoms: C_4  and  C_5
REMARK    4  A    between atoms: C_5  and  C_6
REMARK    5  A    between atoms: C_6  and  C_7
REMARK    6  A    between atoms: C_14  and  O_15
REMARK                            x       y       z     vdW  Elec       q    Type
REMARK                         _______ _______ _______ _____ _____    ______ ____
ROOT
ATOM      1  O   UNL     1       4.484   5.185  19.397  0.00  0.00    +0.000 OA
ATOM      2  C   UNL     1       3.549   5.567  18.691  0.00  0.00    +0.000 C 
ATOM      3  N   UNL     1       3.261   4.997  17.481  0.00  0.00    +0.000 N 
ATOM      4  H   UNL     1       2.409   5.267  16.991  0.00  0.00    +0.000 HD
ENDROOT
BRANCH   2   5
ATOM      5  C   UNL     1       2.721   6.728  19.108  0.00  0.00    +0.000 A 
ATOM      6  C   UNL     1       2.131   6.703  20.326  0.00  0.00    +0.000 A 
ATOM      7  N   UNL     1       1.382   7.729  20.845  0.00  0.00    +0.000 NA
ATOM      8  C   UNL     1       1.213   8.752  20.090  0.00  0.00    +0.000 A 
ATOM      9  S   UNL     1       0.279  10.171  20.527  0.00  0.00    +0.000 S 
ATOM     10  C   UNL     1       0.615  10.894  18.978  0.00  0.00    +0.000 A 
ATOM     11  C   UNL     1       1.382  10.103  18.221  0.00  0.00    +0.000 A 
ATOM     12  N   UNL     1       1.725   8.911  18.825  0.00  0.00    +0.000 N 
ATOM     13  C   UNL     1       2.528   7.942  18.270  0.00  0.00    +0.000 A 
ATOM     14  O   UNL     1       3.073   8.046  17.170  0.00  0.00    +0.000 OA
BRANCH   6  15
ATOM     15  O   UNL     1       2.245   5.626  21.189  0.00  0.00    +0.000 OA
ATOM     16  H   UNL     1       2.084   4.795  20.689  0.00  0.00    +0.000 HD
ENDBRANCH   6  15
ENDBRANCH   2   5
BRANCH   3  17
ATOM     17  C   UNL     1       4.073   3.927  16.938  0.00  0.00    +0.000 C 
BRANCH  17  18
ATOM     18  C   UNL     1       4.892   4.393  15.740  0.00  0.00    +0.000 C 
BRANCH  18  19
ATOM     19  C   UNL     1       6.381   4.136  15.976  0.00  0.00    +0.000 C 
BRANCH  19  20
ATOM     20  C   UNL     1       6.989   5.148  16.913  0.00  0.00    +0.000 A 
ATOM     21  C   UNL     1       7.548   4.743  18.133  0.00  0.00    +0.000 A 
ATOM     22  C   UNL     1       8.082   5.685  19.014  0.00  0.00    +0.000 A 
ATOM     23  C   UNL     1       8.062   7.039  18.684  0.00  0.00    +0.000 A 
ATOM     24  C   UNL     1       7.516   7.451  17.470  0.00  0.00    +0.000 A 
ATOM     25  C   UNL     1       6.978   6.511  16.590  0.00  0.00    +0.000 A 
ENDBRANCH  19  20
ENDBRANCH  18  19
ENDBRANCH  17  18
ENDBRANCH   3  17
TORSDOF 6
ENDMDL
MODEL 7
REMARK VINA RESULT:      -7.7      1.104      1.287
REMARK  Name = 
REMARK  6 active torsions:
REMARK  status: ('A' for Active; 'I' for Inactive)
REMARK    1  A    between atoms: C_2  and  C_13
REMARK    2  A    between atoms: N_3  and  C_4
REMARK    3  A    between atoms: C_4  and  C_5
REMARK    4  A    between atoms: C_5  and  C_6
REMARK    5  A    between atoms: C_6  and  C_7
REMARK    6  A    between atoms: C_14  and  O_15
REMARK                            x       y       z     vdW  Elec       q    Type
REMARK                         _______ _______ _______ _____ _____    ______ ____
ROOT
ATOM      1  O   UNL     1       5.772   6.909  16.324  0.00  0.00    +0.000 OA
ATOM      2  C   UNL     1       6.024   6.614  17.493  0.00  0.00    +0.000 C 
ATOM      3  N   UNL     1       7.122   7.095  18.152  0.00  0.00    +0.000 N 
ATOM      4  H   UNL     1       7.224   6.918  19.152  0.00  0.00    +0.000 HD
ENDROOT
BRANCH   2   5
ATOM      5  C   UNL     1       5.161   5.652  18.226  0.00  0.00    +0.000 A 
ATOM      6  C   UNL     1       5.689   4.469  18.616  0.00  0.00    +0.000 A 
ATOM      7  N   UNL     1       5.012   3.518  19.338  0.00  0.00    +0.000 NA
ATOM      8  C   UNL     1       3.787   3.776  19.615  0.00  0.00    +0.000 A 
ATOM      9  S   UNL     1       2.719   2.707  20.505  0.00  0.00    +0.000 S 
ATOM     10  C   UNL     1       1.411   3.847  20.345  0.00  0.00    +0.000 A 
ATOM     11  C   UNL     1       1.790   4.941  19.677  0.00  0.00    +0.000 A 
ATOM     12  N   UNL     1       3.107   4.918  19.266  0.00  0.00    +0.000 N 
ATOM     13  C   UNL     1       3.745   5.931  18.590  0.00  0.00    +0.000 A 
ATOM     14  O   UNL     1       3.218   7.007  18.303  0.00  0.00    +0.000 OA
BRANCH   6  15
ATOM     15  O   UNL     1       6.995   4.105  18.334  0.00  0.00    +0.000 OA
ATOM     16  H   UNL     1       7.605   4.649  18.881  0.00  0.00    +0.000 HD
ENDBRANCH   6  15
ENDBRANCH   2   5
BRANCH   3  17
ATOM     17  C   UNL     1       8.081   7.957  17.492  0.00  0.00    +0.000 C 
BRANCH  17  18
ATOM     18  C   UNL     1       7.905   9.414  17.901  0.00  0.00    +0.000 C 
BRANCH  18  19
ATOM     19  C   UNL     1       9.055   9.861  18.805  0.00  0.00    +0.000 C 
BRANCH  19  20
ATOM     20  C   UNL     1       9.702  11.130  18.312  0.00  0.00    +0.000 A 
ATOM     21  C   UNL     1      11.096  11.220  18.199  0.00  0.00    +0.000 A 
ATOM     22  C   UNL     1      11.696  12.406  17.773  0.00  0.00    +0.000 A 
ATOM     23  C   UNL     1      10.909  13.512  17.456  0.00  0.00    +0.000 A 
ATOM     24  C   UNL     1       9.522  13.430  17.558  0.00  0.00    +0.000 A 
ATOM     25  C   UNL     1       8.920  12.246  17.987  0.00  0.00    +0.000 A 
ENDBRANCH  19  20
ENDBRANCH  18  19
ENDBRANCH  17  18
ENDBRANCH   3  17
TORSDOF 6
ENDMDL
MODEL 8
REMARK VINA RESULT:      -7.6      6.242      8.635
REMARK  Name = 
REMARK  6 active torsions:
REMARK  status: ('A' for Active; 'I' for Inactive)
REMARK    1  A    between atoms: C_2  and  C_13
REMARK    2  A    between atoms: N_3  and  C_4
REMARK    3  A    between atoms: C_4  and  C_5
REMARK    4  A    between atoms: C_5  and  C_6
REMARK    5  A    between atoms: C_6  and  C_7
REMARK    6  A    between atoms: C_14  and  O_15
REMARK                            x       y       z     vdW  Elec       q    Type
REMARK                         _______ _______ _______ _____ _____    ______ ____
ROOT
ATOM      1  O   UNL     1       4.127   5.727  19.682  0.00  0.00    +0.000 OA
ATOM      2  C   UNL     1       3.314   6.189  18.879  0.00  0.00    +0.000 C 
ATOM      3  N   UNL     1       3.239   5.763  17.581  0.00  0.00    +0.000 N 
ATOM      4  H   UNL     1       2.474   6.089  16.991  0.00  0.00    +0.000 HD
ENDROOT
BRANCH   2   5
ATOM      5  C   UNL     1       2.408   7.296  19.283  0.00  0.00    +0.000 A 
ATOM      6  C   UNL     1       1.816   7.242  20.499  0.00  0.00    +0.000 A 
ATOM      7  N   UNL     1       0.998   8.220  21.006  0.00  0.00    +0.000 NA
ATOM      8  C   UNL     1       0.764   9.223  20.242  0.00  0.00    +0.000 A 
ATOM      9  S   UNL     1      -0.264  10.580  20.663  0.00  0.00    +0.000 S 
ATOM     10  C   UNL     1       0.029  11.311  19.109  0.00  0.00    +0.000 A 
ATOM     11  C   UNL     1       0.851  10.567  18.362  0.00  0.00    +0.000 A 
ATOM     12  N   UNL     1       1.270   9.406  18.977  0.00  0.00    +0.000 N 
ATOM     13  C   UNL     1       2.138   8.488  18.434  0.00  0.00    +0.000 A 
ATOM     14  O   UNL     1       2.680   8.619  17.335  0.00  0.00    +0.000 OA
BRANCH   6  15
ATOM     15  O   UNL     1       1.998   6.183  21.371  0.00  0.00    +0.000 OA
ATOM     16  H   UNL     1       1.123   5.796  21.595  0.00  0.00    +0.000 HD
ENDBRANCH   6  15
ENDBRANCH   2   5
BRANCH   3  17
ATOM     17  C   UNL     1       4.147   4.762  17.062  0.00  0.00    +0.000 C 
BRANCH  17  18
ATOM     18  C   UNL     1       3.439   3.439  16.800  0.00  0.00    +0.000 C 
BRANCH  18  19
ATOM     19  C   UNL     1       3.778   2.423  17.891  0.00  0.00    +0.000 C 
BRANCH  19  20
ATOM     20  C   UNL     1       2.889   2.572  19.100  0.00  0.00    +0.000 A 
ATOM     21  C   UNL     1       1.521   2.836  18.948  0.00  0.00    +0.000 A 
ATOM     22  C   UNL     1       0.705   3.006  20.067  0.00  0.00    +0.000 A 
ATOM     23  C   UNL     1       1.248   2.913  21.348  0.00  0.00    +0.000 A 
ATOM     24  C   UNL     1       2.605   2.643  21.509  0.00  0.00    +0.000 A 
ATOM     25  C   UNL     1       3.424   2.476  20.391  0.00  0.00    +0.000 A 
ENDBRANCH  19  20
ENDBRANCH  18  19
ENDBRANCH  17  18
ENDBRANCH   3  17
TORSDOF 6
ENDMDL
MODEL 9
REMARK VINA RESULT:      -7.5      1.591      2.085
REMARK  Name = 
REMARK  6 active torsions:
REMARK  status: ('A' for Active; 'I' for Inactive)
REMARK    1  A    between atoms: C_2  and  C_13
REMARK    2  A    between atoms: N_3  and  C_4
REMARK    3  A    between atoms: C_4  and  C_5
REMARK    4  A    between atoms: C_5  and  C_6
REMARK    5  A    between atoms: C_6  and  C_7
REMARK    6  A    between atoms: C_14  and  O_15
REMARK                            x       y       z     vdW  Elec       q    Type
REMARK                         _______ _______ _______ _____ _____    ______ ____
ROOT
ATOM      1  O   UNL     1       7.749   6.224  16.144  0.00  0.00    +0.000 OA
ATOM      2  C   UNL     1       7.100   6.269  17.190  0.00  0.00    +0.000 C 
ATOM      3  N   UNL     1       7.418   7.114  18.218  0.00  0.00    +0.000 N 
ATOM      4  H   UNL     1       6.782   7.199  19.011  0.00  0.00    +0.000 HD
ENDROOT
BRANCH   2   5
ATOM      5  C   UNL     1       5.959   5.340  17.404  0.00  0.00    +0.000 A 
ATOM      6  C   UNL     1       5.165   5.031  16.353  0.00  0.00    +0.000 A 
ATOM      7  N   UNL     1       4.112   4.153  16.410  0.00  0.00    +0.000 NA
ATOM      8  C   UNL     1       3.861   3.635  17.555  0.00  0.00    +0.000 A 
ATOM      9  S   UNL     1       2.557   2.507  17.876  0.00  0.00    +0.000 S 
ATOM     10  C   UNL     1       3.012   2.427  19.556  0.00  0.00    +0.000 A 
ATOM     11  C   UNL     1       4.074   3.195  19.816  0.00  0.00    +0.000 A 
ATOM     12  N   UNL     1       4.559   3.870  18.715  0.00  0.00    +0.000 N 
ATOM     13  C   UNL     1       5.658   4.698  18.712  0.00  0.00    +0.000 A 
ATOM     14  O   UNL     1       6.368   4.903  19.697  0.00  0.00    +0.000 OA
BRANCH   6  15
ATOM     15  O   UNL     1       5.354   5.568  15.091  0.00  0.00    +0.000 OA
ATOM     16  H   UNL     1       6.304   5.795  14.977  0.00  0.00    +0.000 HD
ENDBRANCH   6  15
ENDBRANCH   2   5
BRANCH   3  17
ATOM     17  C   UNL     1       8.573   7.985  18.148  0.00  0.00    +0.000 C 
BRANCH  17  18
ATOM     18  C   UNL     1       8.169   9.454  18.097  0.00  0.00    +0.000 C 
BRANCH  18  19
ATOM     19  C   UNL     1       8.969  10.265  19.117  0.00  0.00    +0.000 C 
BRANCH  19  20
ATOM     20  C   UNL     1       9.558  11.513  18.511  0.00  0.00    +0.000 A 
ATOM     21  C   UNL     1       8.897  12.743  18.632  0.00  0.00    +0.000 A 
ATOM     22  C   UNL     1       9.428  13.892  18.043  0.00  0.00    +0.000 A 
ATOM     23  C   UNL     1      10.624  13.822  17.330  0.00  0.00    +0.000 A 
ATOM     24  C   UNL     1      11.293  12.606  17.212  0.00  0.00    +0.000 A 
ATOM     25  C   UNL     1      10.762  11.455  17.796  0.00  0.00    +0.000 A 
ENDBRANCH  19  20
ENDBRANCH  18  19
ENDBRANCH  17  18
ENDBRANCH   3  17
TORSDOF 6
ENDMDL
