MODEL 1
REMARK VINA RESULT:      -8.6      0.000      0.000
REMARK  Name = 
REMARK  6 active torsions:
REMARK  status: ('A' for Active; 'I' for Inactive)
REMARK    1  A    between atoms: C_1  and  C_2
REMARK    2  A    between atoms: C_5  and  C_6
REMARK    3  A    between atoms: N_8  and  C_9
REMARK    4  A    between atoms: C_13  and  C_14
REMARK    5  A    between atoms: C_14  and  O_15
REMARK    6  A    between atoms: C_14  and  C_16
REMARK                            x       y       z     vdW  Elec       q    Type
REMARK                         _______ _______ _______ _____ _____    ______ ____
ROOT
ATOM      1  C   UNL     1       1.789   5.695  20.498  0.00  0.00    +0.000 A 
ATOM      2  C   UNL     1       1.029   4.523  20.524  0.00  0.00    +0.000 A 
ATOM      3  C   UNL     1       1.545   3.315  20.052  0.00  0.00    +0.000 A 
ATOM      4  C   UNL     1       2.831   3.265  19.526  0.00  0.00    +0.000 A 
ATOM      5  C   UNL     1       3.612   4.430  19.449  0.00  0.00    +0.000 A 
ATOM      6  C   UNL     1       3.070   5.645  19.927  0.00  0.00    +0.000 A 
ENDROOT
BRANCH   1   9
ATOM      7  C   UNL     1       1.383   8.148  20.395  0.00  0.00    +0.000 C 
ATOM      8  O   UNL     1       1.827   8.344  19.268  0.00  0.00    +0.000 OA
ATOM      9  N   UNL     1       1.332   6.924  21.049  0.00  0.00    +0.000 N 
ATOM     10  H   UNL     1       0.777   6.864  21.891  0.00  0.00    +0.000 HD
BRANCH   7  15
ATOM     11  C   UNL     1      -1.357  12.453  23.121  0.00  0.00    +0.000 C 
ATOM     12  C   UNL     1      -0.597  11.364  22.422  0.00  0.00    +0.000 A 
ATOM     13  C   UNL     1      -0.472  10.102  23.010  0.00  0.00    +0.000 A 
ATOM     14  C   UNL     1       0.200   9.084  22.342  0.00  0.00    +0.000 A 
ATOM     15  C   UNL     1       0.777   9.314  21.085  0.00  0.00    +0.000 A 
ATOM     16  C   UNL     1       0.669  10.573  20.491  0.00  0.00    +0.000 A 
ATOM     17  C   UNL     1      -0.019  11.593  21.163  0.00  0.00    +0.000 A 
ENDBRANCH   7  15
ENDBRANCH   1   9
BRANCH   5  18
ATOM     18  C   UNL     1       5.029   4.382  18.897  0.00  0.00    +0.000 C 
BRANCH  18  19
ATOM     19  C   UNL     1       5.196   4.723  17.422  0.00  0.00    +0.000 A 
ATOM     20  C   UNL     1       5.051   6.037  16.944  0.00  0.00    +0.000 A 
ATOM     21  C   UNL     1       5.279   6.342  15.598  0.00  0.00    +0.000 A 
ATOM     22  C   UNL     1       5.674   5.344  14.711  0.00  0.00    +0.000 A 
ATOM     23  C   UNL     1       5.836   4.039  15.165  0.00  0.00    +0.000 A 
ATOM     24  C   UNL     1       5.602   3.733  16.508  0.00  0.00    +0.000 A 
ENDBRANCH  18  19
BRANCH  18  25
ATOM     25  O   UNL     1       5.589   3.089  19.156  0.00  0.00    +0.000 OA
ATOM     26  H   UNL     1       6.555   3.175  19.120  0.00  0.00    +0.000 HD
ENDBRANCH  18  25
ENDBRANCH   5  18
TORSDOF 5
ENDMDL
MODEL 2
REMARK VINA RESULT:      -8.5      5.601      7.780
REMARK  Name = 
REMARK  6 active torsions:
REMARK  status: ('A' for Active; 'I' for Inactive)
REMARK    1  A    between atoms: C_1  and  C_2
REMARK    2  A    between atoms: C_5  and  C_6
REMARK    3  A    between atoms: N_8  and  C_9
REMARK    4  A    between atoms: C_13  and  C_14
REMARK    5  A    between atoms: C_14  and  O_15
REMARK    6  A    between atoms: C_14  and  C_16
REMARK                            x       y       z     vdW  Elec       q    Type
REMARK                         _______ _______ _______ _____ _____    ______ ____
ROOT
ATOM      1  C   UNL     1       7.709   7.914  17.878  0.00  0.00    +0.000 A 
ATOM      2  C   UNL     1       8.281   7.046  18.812  0.00  0.00    +0.000 A 
ATOM      3  C   UNL     1       7.795   5.750  18.986  0.00  0.00    +0.000 A 
ATOM      4  C   UNL     1       6.711   5.306  18.238  0.00  0.00    +0.000 A 
ATOM      5  C   UNL     1       6.086   6.162  17.317  0.00  0.00    +0.000 A 
ATOM      6  C   UNL     1       6.588   7.474  17.158  0.00  0.00    +0.000 A 
ENDROOT
BRANCH   1   9
ATOM      7  C   UNL     1       8.884  10.006  18.540  0.00  0.00    +0.000 C 
ATOM      8  O   UNL     1       9.099   9.714  19.713  0.00  0.00    +0.000 OA
ATOM      9  N   UNL     1       8.230   9.210  17.609  0.00  0.00    +0.000 N 
ATOM     10  H   UNL     1       8.283   9.485  16.637  0.00  0.00    +0.000 HD
BRANCH   7  15
ATOM     11  C   UNL     1      11.350  15.016  17.026  0.00  0.00    +0.000 C 
ATOM     12  C   UNL     1      10.686  13.714  17.367  0.00  0.00    +0.000 A 
ATOM     13  C   UNL     1      11.445  12.549  17.508  0.00  0.00    +0.000 A 
ATOM     14  C   UNL     1      10.831  11.353  17.861  0.00  0.00    +0.000 A 
ATOM     15  C   UNL     1       9.445  11.295  18.061  0.00  0.00    +0.000 A 
ATOM     16  C   UNL     1       8.672  12.448  17.915  0.00  0.00    +0.000 A 
ATOM     17  C   UNL     1       9.297  13.654  17.568  0.00  0.00    +0.000 A 
ENDBRANCH   7  15
ENDBRANCH   1   9
BRANCH   5  18
ATOM     18  C   UNL     1       4.913   5.678  16.477  0.00  0.00    +0.000 C 
BRANCH  18  19
ATOM     19  C   UNL     1       3.835   4.886  17.206  0.00  0.00    +0.000 A 
ATOM     20  C   UNL     1       2.874   5.513  18.017  0.00  0.00    +0.000 A 
ATOM     21  C   UNL     1       1.849   4.776  18.619  0.00  0.00    +0.000 A 
ATOM     22  C   UNL     1       1.757   3.403  18.407  0.00  0.00    +0.000 A 
ATOM     23  C   UNL     1       2.690   2.763  17.598  0.00  0.00    +0.000 A 
ATOM     24  C   UNL     1       3.717   3.498  17.001  0.00  0.00    +0.000 A 
ENDBRANCH  18  19
BRANCH  18  25
ATOM     25  O   UNL     1       5.412   4.909  15.376  0.00  0.00    +0.000 OA
ATOM     26  H   UNL     1       4.747   4.235  15.165  0.00  0.00    +0.000 HD
ENDBRANCH  18  25
ENDBRANCH   5  18
TORSDOF 5
ENDMDL
MODEL 3
REMARK VINA RESULT:      -8.3      2.864      8.467
REMARK  Name = 
REMARK  6 active torsions:
REMARK  status: ('A' for Active; 'I' for Inactive)
REMARK    1  A    between atoms: C_1  and  C_2
REMARK    2  A    between atoms: C_5  and  C_6
REMARK    3  A    between atoms: N_8  and  C_9
REMARK    4  A    between atoms: C_13  and  C_14
REMARK    5  A    between atoms: C_14  and  O_15
REMARK    6  A    between atoms: C_14  and  C_16
REMARK                            x       y       z     vdW  Elec       q    Type
REMARK                         _______ _______ _______ _____ _____    ______ ____
ROOT
ATOM      1  C   UNL     1       1.819   8.297  19.413  0.00  0.00    +0.000 A 
ATOM      2  C   UNL     1       1.467   7.887  20.701  0.00  0.00    +0.000 A 
ATOM      3  C   UNL     1       0.481   8.556  21.428  0.00  0.00    +0.000 A 
ATOM      4  C   UNL     1      -0.158   9.663  20.882  0.00  0.00    +0.000 A 
ATOM      5  C   UNL     1       0.195  10.127  19.604  0.00  0.00    +0.000 A 
ATOM      6  C   UNL     1       1.201   9.441  18.885  0.00  0.00    +0.000 A 
ENDROOT
BRANCH   1   9
ATOM      7  C   UNL     1       2.830   6.207  18.517  0.00  0.00    +0.000 C 
ATOM      8  O   UNL     1       2.116   5.406  19.115  0.00  0.00    +0.000 OA
ATOM      9  N   UNL     1       2.754   7.590  18.607  0.00  0.00    +0.000 N 
ATOM     10  H   UNL     1       3.269   8.134  17.927  0.00  0.00    +0.000 HD
BRANCH   7  15
ATOM     11  C   UNL     1       6.453   4.251  14.452  0.00  0.00    +0.000 C 
ATOM     12  C   UNL     1       5.547   4.735  15.546  0.00  0.00    +0.000 A 
ATOM     13  C   UNL     1       5.455   6.100  15.835  0.00  0.00    +0.000 A 
ATOM     14  C   UNL     1       4.585   6.547  16.824  0.00  0.00    +0.000 A 
ATOM     15  C   UNL     1       3.808   5.639  17.555  0.00  0.00    +0.000 A 
ATOM     16  C   UNL     1       3.897   4.272  17.284  0.00  0.00    +0.000 A 
ATOM     17  C   UNL     1       4.767   3.826  16.280  0.00  0.00    +0.000 A 
ENDBRANCH   7  15
ENDBRANCH   1   9
BRANCH   5  18
ATOM     18  C   UNL     1      -0.514  11.323  18.987  0.00  0.00    +0.000 C 
BRANCH  18  19
ATOM     19  C   UNL     1      -1.814  11.036  18.248  0.00  0.00    +0.000 A 
ATOM     20  C   UNL     1      -2.997  11.742  18.526  0.00  0.00    +0.000 A 
ATOM     21  C   UNL     1      -4.162  11.514  17.786  0.00  0.00    +0.000 A 
ATOM     22  C   UNL     1      -4.160  10.590  16.745  0.00  0.00    +0.000 A 
ATOM     23  C   UNL     1      -2.997   9.888  16.444  0.00  0.00    +0.000 A 
ATOM     24  C   UNL     1      -1.835  10.112  17.186  0.00  0.00    +0.000 A 
ENDBRANCH  18  19
BRANCH  18  25
ATOM     25  O   UNL     1       0.394  12.006  18.114  0.00  0.00    +0.000 OA
ATOM     26  H   UNL     1       0.659  12.829  18.553  0.00  0.00    +0.000 HD
ENDBRANCH  18  25
ENDBRANCH   5  18
TORSDOF 5
ENDMDL
MODEL 4
REMARK VINA RESULT:      -8.3      0.201      1.006
REMARK  Name = 
REMARK  6 active torsions:
REMARK  status: ('A' for Active; 'I' for Inactive)
REMARK    1  A    between atoms: C_1  and  C_2
REMARK    2  A    between atoms: C_5  and  C_6
REMARK    3  A    between atoms: N_8  and  C_9
REMARK    4  A    between atoms: C_13  and  C_14
REMARK    5  A    between atoms: C_14  and  O_15
REMARK    6  A    between atoms: C_14  and  C_16
REMARK                            x       y       z     vdW  Elec       q    Type
REMARK                         _______ _______ _______ _____ _____    ______ ____
ROOT
ATOM      1  C   UNL     1       1.714   5.555  20.577  0.00  0.00    +0.000 A 
ATOM      2  C   UNL     1       1.058   4.323  20.633  0.00  0.00    +0.000 A 
ATOM      3  C   UNL     1       1.672   3.156  20.174  0.00  0.00    +0.000 A 
ATOM      4  C   UNL     1       2.951   3.208  19.633  0.00  0.00    +0.000 A 
ATOM      5  C   UNL     1       3.627   4.434  19.526  0.00  0.00    +0.000 A 
ATOM      6  C   UNL     1       2.988   5.607  19.989  0.00  0.00    +0.000 A 
ENDROOT
BRANCH   1   9
ATOM      7  C   UNL     1       1.259   8.001  20.520  0.00  0.00    +0.000 C 
ATOM      8  O   UNL     1       1.838   8.255  19.467  0.00  0.00    +0.000 OA
ATOM      9  N   UNL     1       1.158   6.750  21.113  0.00  0.00    +0.000 N 
ATOM     10  H   UNL     1       0.502   6.643  21.874  0.00  0.00    +0.000 HD
BRANCH   7  15
ATOM     11  C   UNL     1      -1.166  12.621  23.019  0.00  0.00    +0.000 C 
ATOM     12  C   UNL     1      -0.589  11.400  22.366  0.00  0.00    +0.000 A 
ATOM     13  C   UNL     1      -0.043  11.477  21.082  0.00  0.00    +0.000 A 
ATOM     14  C   UNL     1       0.526  10.352  20.495  0.00  0.00    +0.000 A 
ATOM     15  C   UNL     1       0.540   9.125  21.172  0.00  0.00    +0.000 A 
ATOM     16  C   UNL     1      -0.011   9.030  22.451  0.00  0.00    +0.000 A 
ATOM     17  C   UNL     1      -0.574  10.169  23.043  0.00  0.00    +0.000 A 
ENDBRANCH   7  15
ENDBRANCH   1   9
BRANCH   5  18
ATOM     18  C   UNL     1       5.036   4.499  18.956  0.00  0.00    +0.000 C 
BRANCH  18  19
ATOM     19  C   UNL     1       5.157   4.858  17.480  0.00  0.00    +0.000 A 
ATOM     20  C   UNL     1       5.057   6.185  17.028  0.00  0.00    +0.000 A 
ATOM     21  C   UNL     1       5.243   6.502  15.678  0.00  0.00    +0.000 A 
ATOM     22  C   UNL     1       5.549   5.501  14.761  0.00  0.00    +0.000 A 
ATOM     23  C   UNL     1       5.665   4.182  15.187  0.00  0.00    +0.000 A 
ATOM     24  C   UNL     1       5.474   3.864  16.534  0.00  0.00    +0.000 A 
ENDBRANCH  18  19
BRANCH  18  25
ATOM     25  O   UNL     1       5.699   3.253  19.202  0.00  0.00    +0.000 OA
ATOM     26  H   UNL     1       5.711   3.113  20.162  0.00  0.00    +0.000 HD
ENDBRANCH  18  25
ENDBRANCH   5  18
TORSDOF 5
ENDMDL
MODEL 5
REMARK VINA RESULT:      -8.3      1.518      1.876
REMARK  Name = 
REMARK  6 active torsions:
REMARK  status: ('A' for Active; 'I' for Inactive)
REMARK    1  A    between atoms: C_1  and  C_2
REMARK    2  A    between atoms: C_5  and  C_6
REMARK    3  A    between atoms: N_8  and  C_9
REMARK    4  A    between atoms: C_13  and  C_14
REMARK    5  A    between atoms: C_14  and  O_15
REMARK    6  A    between atoms: C_14  and  C_16
REMARK                            x       y       z     vdW  Elec       q    Type
REMARK                         _______ _______ _______ _____ _____    ______ ____
ROOT
ATOM      1  C   UNL     1       2.378   5.239  20.565  0.00  0.00    +0.000 A 
ATOM      2  C   UNL     1       2.131   4.018  21.198  0.00  0.00    +0.000 A 
ATOM      3  C   UNL     1       2.764   2.847  20.781  0.00  0.00    +0.000 A 
ATOM      4  C   UNL     1       3.646   2.876  19.707  0.00  0.00    +0.000 A 
ATOM      5  C   UNL     1       3.892   4.078  19.022  0.00  0.00    +0.000 A 
ATOM      6  C   UNL     1       3.236   5.253  19.455  0.00  0.00    +0.000 A 
ENDROOT
BRANCH   1   9
ATOM      7  C   UNL     1       1.756   7.629  20.256  0.00  0.00    +0.000 C 
ATOM      8  O   UNL     1       2.169   7.763  19.107  0.00  0.00    +0.000 OA
ATOM      9  N   UNL     1       1.820   6.468  21.015  0.00  0.00    +0.000 N 
ATOM     10  H   UNL     1       1.281   6.435  21.870  0.00  0.00    +0.000 HD
BRANCH   7  15
ATOM     11  C   UNL     1      -1.264  11.885  22.753  0.00  0.00    +0.000 C 
ATOM     12  C   UNL     1      -0.439  10.818  22.096  0.00  0.00    +0.000 A 
ATOM     13  C   UNL     1       0.091   9.769  22.853  0.00  0.00    +0.000 A 
ATOM     14  C   UNL     1       0.824   8.762  22.234  0.00  0.00    +0.000 A 
ATOM     15  C   UNL     1       1.057   8.796  20.852  0.00  0.00    +0.000 A 
ATOM     16  C   UNL     1       0.543   9.842  20.086  0.00  0.00    +0.000 A 
ATOM     17  C   UNL     1      -0.204  10.851  20.712  0.00  0.00    +0.000 A 
ENDBRANCH   7  15
ENDBRANCH   1   9
BRANCH   5  18
ATOM     18  C   UNL     1       4.872   4.125  17.860  0.00  0.00    +0.000 C 
BRANCH  18  19
ATOM     19  C   UNL     1       5.954   5.196  17.927  0.00  0.00    +0.000 A 
ATOM     20  C   UNL     1       5.928   6.330  17.097  0.00  0.00    +0.000 A 
ATOM     21  C   UNL     1       6.891   7.337  17.223  0.00  0.00    +0.000 A 
ATOM     22  C   UNL     1       7.884   7.237  18.193  0.00  0.00    +0.000 A 
ATOM     23  C   UNL     1       7.922   6.129  19.035  0.00  0.00    +0.000 A 
ATOM     24  C   UNL     1       6.964   5.121  18.904  0.00  0.00    +0.000 A 
ENDBRANCH  18  19
BRANCH  18  25
ATOM     25  O   UNL     1       4.141   4.258  16.636  0.00  0.00    +0.000 OA
ATOM     26  H   UNL     1       3.198   4.170  16.848  0.00  0.00    +0.000 HD
ENDBRANCH  18  25
ENDBRANCH   5  18
TORSDOF 5
ENDMDL
MODEL 6
REMARK VINA RESULT:      -8.3      5.770      7.864
REMARK  Name = 
REMARK  6 active torsions:
REMARK  status: ('A' for Active; 'I' for Inactive)
REMARK    1  A    between atoms: C_1  and  C_2
REMARK    2  A    between atoms: C_5  and  C_6
REMARK    3  A    between atoms: N_8  and  C_9
REMARK    4  A    between atoms: C_13  and  C_14
REMARK    5  A    between atoms: C_14  and  O_15
REMARK    6  A    between atoms: C_14  and  C_16
REMARK                            x       y       z     vdW  Elec       q    Type
REMARK                         _______ _______ _______ _____ _____    ______ ____
ROOT
ATOM      1  C   UNL     1       7.909   8.151  17.984  0.00  0.00    +0.000 A 
ATOM      2  C   UNL     1       8.441   7.219  18.879  0.00  0.00    +0.000 A 
ATOM      3  C   UNL     1       7.889   5.943  19.006  0.00  0.00    +0.000 A 
ATOM      4  C   UNL     1       6.779   5.585  18.249  0.00  0.00    +0.000 A 
ATOM      5  C   UNL     1       6.194   6.508  17.367  0.00  0.00    +0.000 A 
ATOM      6  C   UNL     1       6.763   7.798  17.256  0.00  0.00    +0.000 A 
ENDROOT
BRANCH   1   9
ATOM      7  C   UNL     1       9.027  10.235  18.758  0.00  0.00    +0.000 C 
ATOM      8  O   UNL     1       9.063   9.971  19.957  0.00  0.00    +0.000 OA
ATOM      9  N   UNL     1       8.495   9.428  17.762  0.00  0.00    +0.000 N 
ATOM     10  H   UNL     1       8.694   9.675  16.802  0.00  0.00    +0.000 HD
BRANCH   7  15
ATOM     11  C   UNL     1      11.239  15.217  16.819  0.00  0.00    +0.000 C 
ATOM     12  C   UNL     1      10.702  13.927  17.366  0.00  0.00    +0.000 A 
ATOM     13  C   UNL     1       9.415  13.871  17.908  0.00  0.00    +0.000 A 
ATOM     14  C   UNL     1       8.907  12.665  18.378  0.00  0.00    +0.000 A 
ATOM     15  C   UNL     1       9.683  11.499  18.335  0.00  0.00    +0.000 A 
ATOM     16  C   UNL     1      10.974  11.542  17.806  0.00  0.00    +0.000 A 
ATOM     17  C   UNL     1      11.479  12.757  17.324  0.00  0.00    +0.000 A 
ENDBRANCH   7  15
ENDBRANCH   1   9
BRANCH   5  18
ATOM     18  C   UNL     1       4.993   6.120  16.518  0.00  0.00    +0.000 C 
BRANCH  18  19
ATOM     19  C   UNL     1       3.950   5.229  17.182  0.00  0.00    +0.000 A 
ATOM     20  C   UNL     1       2.969   5.751  18.043  0.00  0.00    +0.000 A 
ATOM     21  C   UNL     1       1.977   4.927  18.585  0.00  0.00    +0.000 A 
ATOM     22  C   UNL     1       1.937   3.574  18.262  0.00  0.00    +0.000 A 
ATOM     23  C   UNL     1       2.890   3.039  17.401  0.00  0.00    +0.000 A 
ATOM     24  C   UNL     1       3.885   3.859  16.865  0.00  0.00    +0.000 A 
ENDBRANCH  18  19
BRANCH  18  25
ATOM     25  O   UNL     1       5.454   5.501  15.311  0.00  0.00    +0.000 OA
ATOM     26  H   UNL     1       5.982   6.157  14.829  0.00  0.00    +0.000 HD
ENDBRANCH  18  25
ENDBRANCH   5  18
TORSDOF 5
ENDMDL
MODEL 7
REMARK VINA RESULT:      -8.2      2.042      2.531
REMARK  Name = 
REMARK  6 active torsions:
REMARK  status: ('A' for Active; 'I' for Inactive)
REMARK    1  A    between atoms: C_1  and  C_2
REMARK    2  A    between atoms: C_5  and  C_6
REMARK    3  A    between atoms: N_8  and  C_9
REMARK    4  A    between atoms: C_13  and  C_14
REMARK    5  A    between atoms: C_14  and  O_15
REMARK    6  A    between atoms: C_14  and  C_16
REMARK                            x       y       z     vdW  Elec       q    Type
REMARK                         _______ _______ _______ _____ _____    ______ ____
ROOT
ATOM      1  C   UNL     1       2.650   5.562  18.667  0.00  0.00    +0.000 A 
ATOM      2  C   UNL     1       1.850   4.601  18.044  0.00  0.00    +0.000 A 
ATOM      3  C   UNL     1       2.414   3.556  17.311  0.00  0.00    +0.000 A 
ATOM      4  C   UNL     1       3.794   3.466  17.174  0.00  0.00    +0.000 A 
ATOM      5  C   UNL     1       4.630   4.435  17.755  0.00  0.00    +0.000 A 
ATOM      6  C   UNL     1       4.040   5.490  18.489  0.00  0.00    +0.000 A 
ENDROOT
BRANCH   1   9
ATOM      7  C   UNL     1       1.922   7.903  19.092  0.00  0.00    +0.000 C 
ATOM      8  O   UNL     1       2.180   8.363  17.983  0.00  0.00    +0.000 OA
ATOM      9  N   UNL     1       2.119   6.589  19.495  0.00  0.00    +0.000 N 
ATOM     10  H   UNL     1       1.695   6.297  20.365  0.00  0.00    +0.000 HD
BRANCH   7  15
ATOM     11  C   UNL     1      -0.925  11.169  22.926  0.00  0.00    +0.000 C 
ATOM     12  C   UNL     1      -0.143  10.358  21.935  0.00  0.00    +0.000 A 
ATOM     13  C   UNL     1       0.335   9.090  22.280  0.00  0.00    +0.000 A 
ATOM     14  C   UNL     1       1.027   8.327  21.346  0.00  0.00    +0.000 A 
ATOM     15  C   UNL     1       1.271   8.823  20.059  0.00  0.00    +0.000 A 
ATOM     16  C   UNL     1       0.809  10.091  19.704  0.00  0.00    +0.000 A 
ATOM     17  C   UNL     1       0.104  10.854  20.645  0.00  0.00    +0.000 A 
ENDBRANCH   7  15
ENDBRANCH   1   9
BRANCH   5  18
ATOM     18  C   UNL     1       6.142   4.334  17.629  0.00  0.00    +0.000 C 
BRANCH  18  19
ATOM     19  C   UNL     1       6.929   5.624  17.829  0.00  0.00    +0.000 A 
ATOM     20  C   UNL     1       6.802   6.714  16.951  0.00  0.00    +0.000 A 
ATOM     21  C   UNL     1       7.477   7.915  17.193  0.00  0.00    +0.000 A 
ATOM     22  C   UNL     1       8.275   8.053  18.324  0.00  0.00    +0.000 A 
ATOM     23  C   UNL     1       8.405   6.992  19.215  0.00  0.00    +0.000 A 
ATOM     24  C   UNL     1       7.736   5.790  18.971  0.00  0.00    +0.000 A 
ENDBRANCH  18  19
BRANCH  18  25
ATOM     25  O   UNL     1       6.470   3.765  16.356  0.00  0.00    +0.000 OA
ATOM     26  H   UNL     1       7.147   3.086  16.504  0.00  0.00    +0.000 HD
ENDBRANCH  18  25
ENDBRANCH   5  18
TORSDOF 5
ENDMDL
MODEL 8
REMARK VINA RESULT:      -8.2      2.019      2.525
REMARK  Name = 
REMARK  6 active torsions:
REMARK  status: ('A' for Active; 'I' for Inactive)
REMARK    1  A    between atoms: C_1  and  C_2
REMARK    2  A    between atoms: C_5  and  C_6
REMARK    3  A    between atoms: N_8  and  C_9
REMARK    4  A    between atoms: C_13  and  C_14
REMARK    5  A    between atoms: C_14  and  O_15
REMARK    6  A    between atoms: C_14  and  C_16
REMARK                            x       y       z     vdW  Elec       q    Type
REMARK                         _______ _______ _______ _____ _____    ______ ____
ROOT
ATOM      1  C   UNL     1       2.543   5.585  18.816  0.00  0.00    +0.000 A 
ATOM      2  C   UNL     1       1.772   4.606  18.184  0.00  0.00    +0.000 A 
ATOM      3  C   UNL     1       2.368   3.570  17.463  0.00  0.00    +0.000 A 
ATOM      4  C   UNL     1       3.752   3.507  17.349  0.00  0.00    +0.000 A 
ATOM      5  C   UNL     1       4.558   4.494  17.939  0.00  0.00    +0.000 A 
ATOM      6  C   UNL     1       3.937   5.539  18.660  0.00  0.00    +0.000 A 
ENDROOT
BRANCH   1   9
ATOM      7  C   UNL     1       1.873   7.939  19.264  0.00  0.00    +0.000 C 
ATOM      8  O   UNL     1       2.251   8.426  18.202  0.00  0.00    +0.000 OA
ATOM      9  N   UNL     1       1.978   6.605  19.631  0.00  0.00    +0.000 N 
ATOM     10  H   UNL     1       1.464   6.300  20.447  0.00  0.00    +0.000 HD
BRANCH   7  15
ATOM     11  C   UNL     1      -1.122  11.147  23.033  0.00  0.00    +0.000 C 
ATOM     12  C   UNL     1      -0.306  10.357  22.053  0.00  0.00    +0.000 A 
ATOM     13  C   UNL     1       0.345   9.188  22.457  0.00  0.00    +0.000 A 
ATOM     14  C   UNL     1       1.069   8.438  21.537  0.00  0.00    +0.000 A 
ATOM     15  C   UNL     1       1.172   8.852  20.202  0.00  0.00    +0.000 A 
ATOM     16  C   UNL     1       0.535  10.022  19.786  0.00  0.00    +0.000 A 
ATOM     17  C   UNL     1      -0.202  10.771  20.715  0.00  0.00    +0.000 A 
ENDBRANCH   7  15
ENDBRANCH   1   9
BRANCH   5  18
ATOM     18  C   UNL     1       6.075   4.422  17.839  0.00  0.00    +0.000 C 
BRANCH  18  19
ATOM     19  C   UNL     1       6.832   5.730  18.032  0.00  0.00    +0.000 A 
ATOM     20  C   UNL     1       7.761   5.903  19.073  0.00  0.00    +0.000 A 
ATOM     21  C   UNL     1       8.498   7.086  19.190  0.00  0.00    +0.000 A 
ATOM     22  C   UNL     1       8.333   8.108  18.260  0.00  0.00    +0.000 A 
ATOM     23  C   UNL     1       7.428   7.954  17.214  0.00  0.00    +0.000 A 
ATOM     24  C   UNL     1       6.687   6.775  17.100  0.00  0.00    +0.000 A 
ENDBRANCH  18  19
BRANCH  18  25
ATOM     25  O   UNL     1       6.434   3.842  16.579  0.00  0.00    +0.000 OA
ATOM     26  H   UNL     1       6.214   4.486  15.887  0.00  0.00    +0.000 HD
ENDBRANCH  18  25
ENDBRANCH   5  18
TORSDOF 5
ENDMDL
MODEL 9
REMARK VINA RESULT:      -8.1      0.811      1.437
REMARK  Name = 
REMARK  6 active torsions:
REMARK  status: ('A' for Active; 'I' for Inactive)
REMARK    1  A    between atoms: C_1  and  C_2
REMARK    2  A    between atoms: C_5  and  C_6
REMARK    3  A    between atoms: N_8  and  C_9
REMARK    4  A    between atoms: C_13  and  C_14
REMARK    5  A    between atoms: C_14  and  O_15
REMARK    6  A    between atoms: C_14  and  C_16
REMARK                            x       y       z     vdW  Elec       q    Type
REMARK                         _______ _______ _______ _____ _____    ______ ____
ROOT
ATOM      1  C   UNL     1       1.541   5.225  20.468  0.00  0.00    +0.000 A 
ATOM      2  C   UNL     1       0.719   4.104  20.321  0.00  0.00    +0.000 A 
ATOM      3  C   UNL     1       1.240   2.876  19.912  0.00  0.00    +0.000 A 
ATOM      4  C   UNL     1       2.594   2.753  19.623  0.00  0.00    +0.000 A 
ATOM      5  C   UNL     1       3.444   3.867  19.723  0.00  0.00    +0.000 A 
ATOM      6  C   UNL     1       2.898   5.105  20.133  0.00  0.00    +0.000 A 
ENDROOT
BRANCH   1   9
ATOM      7  C   UNL     1       1.354   7.706  20.403  0.00  0.00    +0.000 C 
ATOM      8  O   UNL     1       2.054   7.901  19.413  0.00  0.00    +0.000 OA
ATOM      9  N   UNL     1       1.066   6.470  20.967  0.00  0.00    +0.000 N 
ATOM     10  H   UNL     1       0.332   6.430  21.661  0.00  0.00    +0.000 HD
BRANCH   7  15
ATOM     11  C   UNL     1      -0.807  12.562  22.687  0.00  0.00    +0.000 C 
ATOM     12  C   UNL     1      -0.300  11.282  22.090  0.00  0.00    +0.000 A 
ATOM     13  C   UNL     1       0.268  11.276  20.813  0.00  0.00    +0.000 A 
ATOM     14  C   UNL     1       0.772  10.095  20.278  0.00  0.00    +0.000 A 
ATOM     15  C   UNL     1       0.699   8.897  21.001  0.00  0.00    +0.000 A 
ATOM     16  C   UNL     1       0.125   8.886  22.273  0.00  0.00    +0.000 A 
ATOM     17  C   UNL     1      -0.373  10.080  22.813  0.00  0.00    +0.000 A 
ENDBRANCH   7  15
ENDBRANCH   1   9
BRANCH   5  18
ATOM     18  C   UNL     1       4.932   3.739  19.431  0.00  0.00    +0.000 C 
BRANCH  18  19
ATOM     19  C   UNL     1       5.405   4.248  18.075  0.00  0.00    +0.000 A 
ATOM     20  C   UNL     1       4.685   3.993  16.895  0.00  0.00    +0.000 A 
ATOM     21  C   UNL     1       5.097   4.529  15.671  0.00  0.00    +0.000 A 
ATOM     22  C   UNL     1       6.224   5.344  15.608  0.00  0.00    +0.000 A 
ATOM     23  C   UNL     1       6.944   5.621  16.766  0.00  0.00    +0.000 A 
ATOM     24  C   UNL     1       6.536   5.080  17.987  0.00  0.00    +0.000 A 
ENDBRANCH  18  19
BRANCH  18  25
ATOM     25  O   UNL     1       5.324   2.371  19.594  0.00  0.00    +0.000 OA
ATOM     26  H   UNL     1       4.591   1.817  19.284  0.00  0.00    +0.000 HD
ENDBRANCH  18  25
ENDBRANCH   5  18
TORSDOF 5
ENDMDL
