MODEL 1
REMARK VINA RESULT:      -6.5      0.000      0.000
REMARK  Name = 
REMARK  3 active torsions:
REMARK  status: ('A' for Active; 'I' for Inactive)
REMARK    1  A    between atoms: C_2  and  C_3
REMARK    2  A    between atoms: C_3  and  N_4
REMARK    3  A    between atoms: N_10  and  C_11
REMARK                            x       y       z     vdW  Elec       q    Type
REMARK                         _______ _______ _______ _____ _____    ______ ____
ROOT
ATOM      1  O   UNL     1       3.805   5.799  17.365  0.00  0.00    +0.000 OA
ATOM      2  C   UNL     1       4.264   4.746  17.803  0.00  0.00    +0.000 C 
ATOM      3  N   UNL     1       5.244   3.980  17.194  0.00  0.00    +0.000 N 
ATOM      4  H   UNL     1       5.613   3.191  17.716  0.00  0.00    +0.000 HD
ENDROOT
BRANCH   3   5
ATOM      5  C   UNL     1       5.871   4.228  15.942  0.00  0.00    +0.000 A 
ATOM      6  C   UNL     1       5.490   3.577  14.763  0.00  0.00    +0.000 A 
ATOM      7  C   UNL     1       6.141   3.853  13.558  0.00  0.00    +0.000 A 
ATOM      8 CL   UNL     1       5.665   3.027  12.124  0.00  0.00    +0.000 Cl
ATOM      9  C   UNL     1       7.176   4.784  13.502  0.00  0.00    +0.000 A 
ATOM     10  C   UNL     1       7.570   5.439  14.667  0.00  0.00    +0.000 A 
ATOM     11  C   UNL     1       6.929   5.156  15.878  0.00  0.00    +0.000 A 
ATOM     12 CL   UNL     1       7.450   6.013  17.289  0.00  0.00    +0.000 Cl
ENDBRANCH   3   5
BRANCH   2  13
ATOM     13  C   UNL     1       3.782   4.195  19.155  0.00  0.00    +0.000 C 
BRANCH  13  14
ATOM     14  N   UNL     1       2.433   4.692  19.506  0.00  0.00    +0.000 NA
ATOM     15  C   UNL     1       2.212   4.787  20.972  0.00  0.00    +0.000 C 
ATOM     16  C   UNL     1       2.103   3.428  21.685  0.00  0.00    +0.000 C 
ATOM     17  O   UNL     1       1.061   2.627  21.112  0.00  0.00    +0.000 OA
ATOM     18  C   UNL     1       1.259   2.444  19.707  0.00  0.00    +0.000 C 
ATOM     19  C   UNL     1       1.385   3.790  18.967  0.00  0.00    +0.000 C 
ENDBRANCH  13  14
ENDBRANCH   2  13
TORSDOF 3
ENDMDL
MODEL 2
REMARK VINA RESULT:      -6.3      1.492      1.862
REMARK  Name = 
REMARK  3 active torsions:
REMARK  status: ('A' for Active; 'I' for Inactive)
REMARK    1  A    between atoms: C_2  and  C_3
REMARK    2  A    between atoms: C_3  and  N_4
REMARK    3  A    between atoms: N_10  and  C_11
REMARK                            x       y       z     vdW  Elec       q    Type
REMARK                         _______ _______ _______ _____ _____    ______ ____
ROOT
ATOM      1  O   UNL     1       2.396   3.389  16.578  0.00  0.00    +0.000 OA
ATOM      2  C   UNL     1       3.080   3.003  17.522  0.00  0.00    +0.000 C 
ATOM      3  N   UNL     1       4.443   3.207  17.667  0.00  0.00    +0.000 N 
ATOM      4  H   UNL     1       4.866   2.933  18.548  0.00  0.00    +0.000 HD
ENDROOT
BRANCH   3   5
ATOM      5  C   UNL     1       5.314   3.853  16.748  0.00  0.00    +0.000 A 
ATOM      6  C   UNL     1       5.396   3.488  15.398  0.00  0.00    +0.000 A 
ATOM      7  C   UNL     1       6.272   4.151  14.536  0.00  0.00    +0.000 A 
ATOM      8 CL   UNL     1       6.367   3.673  12.885  0.00  0.00    +0.000 Cl
ATOM      9  C   UNL     1       7.076   5.193  14.996  0.00  0.00    +0.000 A 
ATOM     10  C   UNL     1       7.009   5.566  16.336  0.00  0.00    +0.000 A 
ATOM     11  C   UNL     1       6.142   4.896  17.207  0.00  0.00    +0.000 A 
ATOM     12 CL   UNL     1       6.090   5.416  18.857  0.00  0.00    +0.000 Cl
ENDBRANCH   3   5
BRANCH   2  13
ATOM     13  C   UNL     1       2.427   2.255  18.697  0.00  0.00    +0.000 C 
BRANCH  13  14
ATOM     14  N   UNL     1       1.337   3.042  19.316  0.00  0.00    +0.000 NA
ATOM     15  C   UNL     1       1.652   4.490  19.416  0.00  0.00    +0.000 C 
ATOM     16  C   UNL     1       2.740   4.832  20.449  0.00  0.00    +0.000 C 
ATOM     17  O   UNL     1       2.388   4.345  21.751  0.00  0.00    +0.000 OA
ATOM     18  C   UNL     1       2.138   2.936  21.728  0.00  0.00    +0.000 C 
ATOM     19  C   UNL     1       1.060   2.563  20.693  0.00  0.00    +0.000 C 
ENDBRANCH  13  14
ENDBRANCH   2  13
TORSDOF 3
ENDMDL
MODEL 3
REMARK VINA RESULT:      -6.3      4.396      7.222
REMARK  Name = 
REMARK  3 active torsions:
REMARK  status: ('A' for Active; 'I' for Inactive)
REMARK    1  A    between atoms: C_2  and  C_3
REMARK    2  A    between atoms: C_3  and  N_4
REMARK    3  A    between atoms: N_10  and  C_11
REMARK                            x       y       z     vdW  Elec       q    Type
REMARK                         _______ _______ _______ _____ _____    ______ ____
ROOT
ATOM      1  O   UNL     1       0.946   5.323  20.642  0.00  0.00    +0.000 OA
ATOM      2  C   UNL     1       2.058   5.746  20.334  0.00  0.00    +0.000 C 
ATOM      3  N   UNL     1       2.407   7.082  20.218  0.00  0.00    +0.000 N 
ATOM      4  H   UNL     1       3.387   7.298  20.066  0.00  0.00    +0.000 HD
ENDROOT
BRANCH   3   5
ATOM      5  C   UNL     1       1.555   8.207  20.383  0.00  0.00    +0.000 A 
ATOM      6  C   UNL     1       0.963   8.535  21.609  0.00  0.00    +0.000 A 
ATOM      7  C   UNL     1       0.128   9.650  21.718  0.00  0.00    +0.000 A 
ATOM      8 CL   UNL     1      -0.602  10.023  23.232  0.00  0.00    +0.000 Cl
ATOM      9  C   UNL     1      -0.127  10.463  20.615  0.00  0.00    +0.000 A 
ATOM     10  C   UNL     1       0.452  10.150  19.387  0.00  0.00    +0.000 A 
ATOM     11  C   UNL     1       1.278   9.026  19.270  0.00  0.00    +0.000 A 
ATOM     12 CL   UNL     1       1.983   8.697  17.723  0.00  0.00    +0.000 Cl
ENDBRANCH   3   5
BRANCH   2  13
ATOM     13  C   UNL     1       3.216   4.768  20.080  0.00  0.00    +0.000 C 
BRANCH  13  14
ATOM     14  N   UNL     1       3.527   4.641  18.639  0.00  0.00    +0.000 NA
ATOM     15  C   UNL     1       2.318   4.442  17.799  0.00  0.00    +0.000 C 
ATOM     16  C   UNL     1       1.649   3.067  17.968  0.00  0.00    +0.000 C 
ATOM     17  O   UNL     1       2.576   2.006  17.701  0.00  0.00    +0.000 OA
ATOM     18  C   UNL     1       3.736   2.108  18.533  0.00  0.00    +0.000 C 
ATOM     19  C   UNL     1       4.420   3.482  18.394  0.00  0.00    +0.000 C 
ENDBRANCH  13  14
ENDBRANCH   2  13
TORSDOF 3
ENDMDL
MODEL 4
REMARK VINA RESULT:      -6.3      1.328      1.723
REMARK  Name = 
REMARK  3 active torsions:
REMARK  status: ('A' for Active; 'I' for Inactive)
REMARK    1  A    between atoms: C_2  and  C_3
REMARK    2  A    between atoms: C_3  and  N_4
REMARK    3  A    between atoms: N_10  and  C_11
REMARK                            x       y       z     vdW  Elec       q    Type
REMARK                         _______ _______ _______ _____ _____    ______ ____
ROOT
ATOM      1  O   UNL     1       5.903   3.697  18.976  0.00  0.00    +0.000 OA
ATOM      2  C   UNL     1       4.890   4.321  18.672  0.00  0.00    +0.000 C 
ATOM      3  N   UNL     1       4.623   4.867  17.427  0.00  0.00    +0.000 N 
ATOM      4  H   UNL     1       3.700   5.262  17.276  0.00  0.00    +0.000 HD
ENDROOT
BRANCH   3   5
ATOM      5  C   UNL     1       5.472   4.854  16.287  0.00  0.00    +0.000 A 
ATOM      6  C   UNL     1       5.179   4.118  15.132  0.00  0.00    +0.000 A 
ATOM      7  C   UNL     1       6.049   4.134  14.039  0.00  0.00    +0.000 A 
ATOM      8 CL   UNL     1       5.675   3.207  12.638  0.00  0.00    +0.000 Cl
ATOM      9  C   UNL     1       7.221   4.888  14.071  0.00  0.00    +0.000 A 
ATOM     10  C   UNL     1       7.530   5.624  15.212  0.00  0.00    +0.000 A 
ATOM     11  C   UNL     1       6.668   5.599  16.314  0.00  0.00    +0.000 A 
ATOM     12 CL   UNL     1       7.096   6.548  17.698  0.00  0.00    +0.000 Cl
ENDBRANCH   3   5
BRANCH   2  13
ATOM     13  C   UNL     1       3.763   4.519  19.700  0.00  0.00    +0.000 C 
BRANCH  13  14
ATOM     14  N   UNL     1       3.298   3.232  20.264  0.00  0.00    +0.000 NA
ATOM     15  C   UNL     1       2.880   2.259  19.222  0.00  0.00    +0.000 C 
ATOM     16  C   UNL     1       1.574   2.629  18.497  0.00  0.00    +0.000 C 
ATOM     17  O   UNL     1       0.497   2.799  19.428  0.00  0.00    +0.000 OA
ATOM     18  C   UNL     1       0.819   3.780  20.419  0.00  0.00    +0.000 C 
ATOM     19  C   UNL     1       2.130   3.441  21.155  0.00  0.00    +0.000 C 
ENDBRANCH  13  14
ENDBRANCH   2  13
TORSDOF 3
ENDMDL
MODEL 5
REMARK VINA RESULT:      -6.2      1.502      1.671
REMARK  Name = 
REMARK  3 active torsions:
REMARK  status: ('A' for Active; 'I' for Inactive)
REMARK    1  A    between atoms: C_2  and  C_3
REMARK    2  A    between atoms: C_3  and  N_4
REMARK    3  A    between atoms: N_10  and  C_11
REMARK                            x       y       z     vdW  Elec       q    Type
REMARK                         _______ _______ _______ _____ _____    ______ ____
ROOT
ATOM      1  O   UNL     1       3.747   2.019  17.442  0.00  0.00    +0.000 OA
ATOM      2  C   UNL     1       3.241   3.133  17.564  0.00  0.00    +0.000 C 
ATOM      3  N   UNL     1       3.727   4.304  17.008  0.00  0.00    +0.000 N 
ATOM      4  H   UNL     1       3.153   5.137  17.093  0.00  0.00    +0.000 HD
ENDROOT
BRANCH   3   5
ATOM      5  C   UNL     1       4.911   4.458  16.236  0.00  0.00    +0.000 A 
ATOM      6  C   UNL     1       5.020   4.002  14.917  0.00  0.00    +0.000 A 
ATOM      7  C   UNL     1       6.208   4.174  14.202  0.00  0.00    +0.000 A 
ATOM      8 CL   UNL     1       6.324   3.589  12.588  0.00  0.00    +0.000 Cl
ATOM      9  C   UNL     1       7.305   4.808  14.782  0.00  0.00    +0.000 A 
ATOM     10  C   UNL     1       7.215   5.266  16.095  0.00  0.00    +0.000 A 
ATOM     11  C   UNL     1       6.031   5.084  16.819  0.00  0.00    +0.000 A 
ATOM     12 CL   UNL     1       5.973   5.689  18.440  0.00  0.00    +0.000 Cl
ENDBRANCH   3   5
BRANCH   2  13
ATOM     13  C   UNL     1       1.935   3.307  18.357  0.00  0.00    +0.000 C 
BRANCH  13  14
ATOM     14  N   UNL     1       2.101   4.232  19.500  0.00  0.00    +0.000 NA
ATOM     15  C   UNL     1       3.366   4.010  20.248  0.00  0.00    +0.000 C 
ATOM     16  C   UNL     1       3.401   2.703  21.058  0.00  0.00    +0.000 C 
ATOM     17  O   UNL     1       2.303   2.636  21.978  0.00  0.00    +0.000 OA
ATOM     18  C   UNL     1       1.050   2.777  21.302  0.00  0.00    +0.000 C 
ATOM     19  C   UNL     1       0.990   4.073  20.471  0.00  0.00    +0.000 C 
ENDBRANCH  13  14
ENDBRANCH   2  13
TORSDOF 3
ENDMDL
MODEL 6
REMARK VINA RESULT:      -6.2      0.917      1.482
REMARK  Name = 
REMARK  3 active torsions:
REMARK  status: ('A' for Active; 'I' for Inactive)
REMARK    1  A    between atoms: C_2  and  C_3
REMARK    2  A    between atoms: C_3  and  N_4
REMARK    3  A    between atoms: N_10  and  C_11
REMARK                            x       y       z     vdW  Elec       q    Type
REMARK                         _______ _______ _______ _____ _____    ______ ____
ROOT
ATOM      1  O   UNL     1       3.373   5.453  17.499  0.00  0.00    +0.000 OA
ATOM      2  C   UNL     1       4.113   4.699  18.128  0.00  0.00    +0.000 C 
ATOM      3  N   UNL     1       5.318   4.190  17.673  0.00  0.00    +0.000 N 
ATOM      4  H   UNL     1       5.885   3.668  18.334  0.00  0.00    +0.000 HD
ENDROOT
BRANCH   3   5
ATOM      5  C   UNL     1       5.907   4.395  16.396  0.00  0.00    +0.000 A 
ATOM      6  C   UNL     1       5.463   3.737  15.242  0.00  0.00    +0.000 A 
ATOM      7  C   UNL     1       6.079   3.970  14.010  0.00  0.00    +0.000 A 
ATOM      8 CL   UNL     1       5.526   3.136  12.609  0.00  0.00    +0.000 Cl
ATOM      9  C   UNL     1       7.141   4.866  13.900  0.00  0.00    +0.000 A 
ATOM     10  C   UNL     1       7.598   5.527  15.038  0.00  0.00    +0.000 A 
ATOM     11  C   UNL     1       6.992   5.286  16.277  0.00  0.00    +0.000 A 
ATOM     12 CL   UNL     1       7.591   6.151  17.653  0.00  0.00    +0.000 Cl
ENDBRANCH   3   5
BRANCH   2  13
ATOM     13  C   UNL     1       3.751   4.276  19.561  0.00  0.00    +0.000 C 
BRANCH  13  14
ATOM     14  N   UNL     1       3.437   2.832  19.649  0.00  0.00    +0.000 NA
ATOM     15  C   UNL     1       2.467   2.386  18.616  0.00  0.00    +0.000 C 
ATOM     16  C   UNL     1       1.033   2.902  18.829  0.00  0.00    +0.000 C 
ATOM     17  O   UNL     1       0.536   2.530  20.121  0.00  0.00    +0.000 OA
ATOM     18  C   UNL     1       1.400   2.995  21.163  0.00  0.00    +0.000 C 
ATOM     19  C   UNL     1       2.847   2.502  20.969  0.00  0.00    +0.000 C 
ENDBRANCH  13  14
ENDBRANCH   2  13
TORSDOF 3
ENDMDL
MODEL 7
REMARK VINA RESULT:      -6.1      1.535      1.796
REMARK  Name = 
REMARK  3 active torsions:
REMARK  status: ('A' for Active; 'I' for Inactive)
REMARK    1  A    between atoms: C_2  and  C_3
REMARK    2  A    between atoms: C_3  and  N_4
REMARK    3  A    between atoms: N_10  and  C_11
REMARK                            x       y       z     vdW  Elec       q    Type
REMARK                         _______ _______ _______ _____ _____    ______ ____
ROOT
ATOM      1  O   UNL     1       2.316   3.466  16.556  0.00  0.00    +0.000 OA
ATOM      2  C   UNL     1       2.722   4.037  17.566  0.00  0.00    +0.000 C 
ATOM      3  N   UNL     1       3.966   4.629  17.713  0.00  0.00    +0.000 N 
ATOM      4  H   UNL     1       4.133   5.164  18.560  0.00  0.00    +0.000 HD
ENDROOT
BRANCH   3   5
ATOM      5  C   UNL     1       5.019   4.657  16.759  0.00  0.00    +0.000 A 
ATOM      6  C   UNL     1       4.862   4.198  15.445  0.00  0.00    +0.000 A 
ATOM      7  C   UNL     1       5.930   4.242  14.545  0.00  0.00    +0.000 A 
ATOM      8 CL   UNL     1       5.718   3.656  12.941  0.00  0.00    +0.000 Cl
ATOM      9  C   UNL     1       7.169   4.748  14.932  0.00  0.00    +0.000 A 
ATOM     10  C   UNL     1       7.344   5.206  16.237  0.00  0.00    +0.000 A 
ATOM     11  C   UNL     1       6.280   5.152  17.144  0.00  0.00    +0.000 A 
ATOM     12 CL   UNL     1       6.551   5.751  18.746  0.00  0.00    +0.000 Cl
ENDBRANCH   3   5
BRANCH   2  13
ATOM     13  C   UNL     1       1.810   4.175  18.797  0.00  0.00    +0.000 C 
BRANCH  13  14
ATOM     14  N   UNL     1       1.472   2.859  19.385  0.00  0.00    +0.000 NA
ATOM     15  C   UNL     1       0.949   2.960  20.772  0.00  0.00    +0.000 C 
ATOM     16  C   UNL     1       2.002   3.367  21.817  0.00  0.00    +0.000 C 
ATOM     17  O   UNL     1       3.115   2.464  21.808  0.00  0.00    +0.000 OA
ATOM     18  C   UNL     1       3.704   2.379  20.507  0.00  0.00    +0.000 C 
ATOM     19  C   UNL     1       2.669   1.984  19.436  0.00  0.00    +0.000 C 
ENDBRANCH  13  14
ENDBRANCH   2  13
TORSDOF 3
ENDMDL
MODEL 8
REMARK VINA RESULT:      -6.1      4.361      7.502
REMARK  Name = 
REMARK  3 active torsions:
REMARK  status: ('A' for Active; 'I' for Inactive)
REMARK    1  A    between atoms: C_2  and  C_3
REMARK    2  A    between atoms: C_3  and  N_4
REMARK    3  A    between atoms: N_10  and  C_11
REMARK                            x       y       z     vdW  Elec       q    Type
REMARK                         _______ _______ _______ _____ _____    ______ ____
ROOT
ATOM      1  O   UNL     1       0.987   5.373  20.514  0.00  0.00    +0.000 OA
ATOM      2  C   UNL     1       2.100   5.852  20.309  0.00  0.00    +0.000 C 
ATOM      3  N   UNL     1       2.403   7.203  20.279  0.00  0.00    +0.000 N 
ATOM      4  H   UNL     1       3.382   7.462  20.211  0.00  0.00    +0.000 HD
ENDROOT
BRANCH   3   5
ATOM      5  C   UNL     1       1.496   8.287  20.431  0.00  0.00    +0.000 A 
ATOM      6  C   UNL     1       0.902   8.612  21.658  0.00  0.00    +0.000 A 
ATOM      7  C   UNL     1       0.013   9.685  21.754  0.00  0.00    +0.000 A 
ATOM      8 CL   UNL     1      -0.717  10.054  23.269  0.00  0.00    +0.000 Cl
ATOM      9  C   UNL     1      -0.296  10.459  20.637  0.00  0.00    +0.000 A 
ATOM     10  C   UNL     1       0.282  10.148  19.408  0.00  0.00    +0.000 A 
ATOM     11  C   UNL     1       1.164   9.066  19.305  0.00  0.00    +0.000 A 
ATOM     12 CL   UNL     1       1.865   8.739  17.756  0.00  0.00    +0.000 Cl
ENDBRANCH   3   5
BRANCH   2  13
ATOM     13  C   UNL     1       3.313   4.930  20.098  0.00  0.00    +0.000 C 
BRANCH  13  14
ATOM     14  N   UNL     1       3.224   4.183  18.823  0.00  0.00    +0.000 NA
ATOM     15  C   UNL     1       4.449   3.398  18.524  0.00  0.00    +0.000 C 
ATOM     16  C   UNL     1       5.674   4.252  18.155  0.00  0.00    +0.000 C 
ATOM     17  O   UNL     1       5.390   5.108  17.040  0.00  0.00    +0.000 OA
ATOM     18  C   UNL     1       4.255   5.940  17.300  0.00  0.00    +0.000 C 
ATOM     19  C   UNL     1       3.014   5.110  17.685  0.00  0.00    +0.000 C 
ENDBRANCH  13  14
ENDBRANCH   2  13
TORSDOF 3
ENDMDL
MODEL 9
REMARK VINA RESULT:      -6.1      1.272      1.531
REMARK  Name = 
REMARK  3 active torsions:
REMARK  status: ('A' for Active; 'I' for Inactive)
REMARK    1  A    between atoms: C_2  and  C_3
REMARK    2  A    between atoms: C_3  and  N_4
REMARK    3  A    between atoms: N_10  and  C_11
REMARK                            x       y       z     vdW  Elec       q    Type
REMARK                         _______ _______ _______ _____ _____    ______ ____
ROOT
ATOM      1  O   UNL     1       2.824   3.677  16.779  0.00  0.00    +0.000 OA
ATOM      2  C   UNL     1       3.661   3.133  17.496  0.00  0.00    +0.000 C 
ATOM      3  N   UNL     1       5.032   3.164  17.299  0.00  0.00    +0.000 N 
ATOM      4  H   UNL     1       5.618   2.767  18.027  0.00  0.00    +0.000 HD
ENDROOT
BRANCH   3   5
ATOM      5  C   UNL     1       5.729   3.781  16.225  0.00  0.00    +0.000 A 
ATOM      6  C   UNL     1       5.587   3.369  14.894  0.00  0.00    +0.000 A 
ATOM      7  C   UNL     1       6.299   4.006  13.875  0.00  0.00    +0.000 A 
ATOM      8 CL   UNL     1       6.120   3.471  12.248  0.00  0.00    +0.000 Cl
ATOM      9  C   UNL     1       7.158   5.067  14.158  0.00  0.00    +0.000 A 
ATOM     10  C   UNL     1       7.314   5.487  15.477  0.00  0.00    +0.000 A 
ATOM     11  C   UNL     1       6.612   4.843  16.503  0.00  0.00    +0.000 A 
ATOM     12 CL   UNL     1       6.833   5.421  18.120  0.00  0.00    +0.000 Cl
ENDBRANCH   3   5
BRANCH   2  13
ATOM     13  C   UNL     1       3.223   2.367  18.755  0.00  0.00    +0.000 C 
BRANCH  13  14
ATOM     14  N   UNL     1       3.585   3.089  19.996  0.00  0.00    +0.000 NA
ATOM     15  C   UNL     1       2.856   2.593  21.190  0.00  0.00    +0.000 C 
ATOM     16  C   UNL     1       1.356   2.937  21.205  0.00  0.00    +0.000 C 
ATOM     17  O   UNL     1       1.150   4.351  21.093  0.00  0.00    +0.000 OA
ATOM     18  C   UNL     1       1.776   4.875  19.918  0.00  0.00    +0.000 C 
ATOM     19  C   UNL     1       3.278   4.535  19.870  0.00  0.00    +0.000 C 
ENDBRANCH  13  14
ENDBRANCH   2  13
TORSDOF 3
ENDMDL
