MODEL 1
REMARK VINA RESULT:      -6.8      0.000      0.000
REMARK  Name = 
REMARK  5 active torsions:
REMARK  status: ('A' for Active; 'I' for Inactive)
REMARK    1  A    between atoms: C_1  and  O_2
REMARK    2  A    between atoms: O_2  and  C_3
REMARK    3  A    between atoms: C_6  and  C_7
REMARK    4  A    between atoms: C_7  and  C_9
REMARK    5  A    between atoms: C_9  and  N_10
REMARK                            x       y       z     vdW  Elec       q    Type
REMARK                         _______ _______ _______ _____ _____    ______ ____
ROOT
ATOM      1  C   UNL     1       2.285   4.038  18.010  0.00  0.00    +0.000 C 
ATOM      2  O   UNL     1       1.472   3.770  17.127  0.00  0.00    +0.000 OA
ENDROOT
BRANCH   1   6
ATOM      3  C   UNL     1       1.815   7.709  20.182  0.00  0.00    +0.000 A 
ATOM      4  C   UNL     1       2.245   7.738  18.855  0.00  0.00    +0.000 A 
ATOM      5  C   UNL     1       2.437   6.556  18.136  0.00  0.00    +0.000 A 
ATOM      6  C   UNL     1       2.195   5.325  18.753  0.00  0.00    +0.000 A 
ATOM      7  C   UNL     1       1.813   5.291  20.101  0.00  0.00    +0.000 A 
ATOM      8  C   UNL     1       1.621   6.481  20.812  0.00  0.00    +0.000 A 
BRANCH   3  10
ATOM      9  C   UNL     1       0.836   8.991  21.919  0.00  0.00    +0.000 C 
ATOM     10  O   UNL     1       1.661   8.936  20.760  0.00  0.00    +0.000 OA
ENDBRANCH   3  10
ENDBRANCH   1   6
BRANCH   1  11
ATOM     11  C   UNL     1       3.445   3.114  18.288  0.00  0.00    +0.000 C 
BRANCH  11  12
ATOM     12  N   UNL     1       4.677   3.721  17.726  0.00  0.00    +0.000 N 
ATOM     13  C   UNL     1       5.564   4.338  18.545  0.00  0.00    +0.000 A 
ATOM     14  C   UNL     1       6.699   4.947  18.016  0.00  0.00    +0.000 A 
ATOM     15 BR   UNL     1       7.904   5.841  19.160  0.00  0.00    +0.000 Br
ATOM     16  C   UNL     1       6.942   4.905  16.648  0.00  0.00    +0.000 A 
ATOM     17  C   UNL     1       6.036   4.240  15.834  0.00  0.00    +0.000 A 
ATOM     18 BR   UNL     1       6.319   4.145  13.972  0.00  0.00    +0.000 Br
ATOM     19  C   UNL     1       4.905   3.649  16.390  0.00  0.00    +0.000 A 
ENDBRANCH  11  12
ENDBRANCH   1  11
TORSDOF 4
ENDMDL
MODEL 2
REMARK VINA RESULT:      -6.8      0.536      2.207
REMARK  Name = 
REMARK  5 active torsions:
REMARK  status: ('A' for Active; 'I' for Inactive)
REMARK    1  A    between atoms: C_1  and  O_2
REMARK    2  A    between atoms: O_2  and  C_3
REMARK    3  A    between atoms: C_6  and  C_7
REMARK    4  A    between atoms: C_7  and  C_9
REMARK    5  A    between atoms: C_9  and  N_10
REMARK                            x       y       z     vdW  Elec       q    Type
REMARK                         _______ _______ _______ _____ _____    ______ ____
ROOT
ATOM      1  C   UNL     1       2.344   3.904  18.201  0.00  0.00    +0.000 C 
ATOM      2  O   UNL     1       1.510   3.545  17.372  0.00  0.00    +0.000 OA
ENDROOT
BRANCH   1   6
ATOM      3  C   UNL     1       1.741   7.655  20.197  0.00  0.00    +0.000 A 
ATOM      4  C   UNL     1       2.252   7.635  18.898  0.00  0.00    +0.000 A 
ATOM      5  C   UNL     1       2.488   6.426  18.239  0.00  0.00    +0.000 A 
ATOM      6  C   UNL     1       2.209   5.219  18.887  0.00  0.00    +0.000 A 
ATOM      7  C   UNL     1       1.746   5.236  20.209  0.00  0.00    +0.000 A 
ATOM      8  C   UNL     1       1.510   6.452  20.861  0.00  0.00    +0.000 A 
BRANCH   3  10
ATOM      9  C   UNL     1       0.947   9.862  19.854  0.00  0.00    +0.000 C 
ATOM     10  O   UNL     1       1.552   8.903  20.716  0.00  0.00    +0.000 OA
ENDBRANCH   3  10
ENDBRANCH   1   6
BRANCH   1  11
ATOM     11  C   UNL     1       3.571   3.066  18.465  0.00  0.00    +0.000 C 
BRANCH  11  12
ATOM     12  N   UNL     1       4.740   3.732  17.839  0.00  0.00    +0.000 N 
ATOM     13  C   UNL     1       4.911   3.679  16.495  0.00  0.00    +0.000 A 
ATOM     14  C   UNL     1       6.031   4.265  15.908  0.00  0.00    +0.000 A 
ATOM     15 BR   UNL     1       6.281   4.147  14.042  0.00  0.00    +0.000 Br
ATOM     16  C   UNL     1       6.966   4.928  16.694  0.00  0.00    +0.000 A 
ATOM     17  C   UNL     1       6.752   4.996  18.063  0.00  0.00    +0.000 A 
ATOM     18 BR   UNL     1       7.984   5.889  19.177  0.00  0.00    +0.000 Br
ATOM     19  C   UNL     1       5.629   4.393  18.623  0.00  0.00    +0.000 A 
ENDBRANCH  11  12
ENDBRANCH   1  11
TORSDOF 4
ENDMDL
MODEL 3
REMARK VINA RESULT:      -6.7      0.228      1.127
REMARK  Name = 
REMARK  5 active torsions:
REMARK  status: ('A' for Active; 'I' for Inactive)
REMARK    1  A    between atoms: C_1  and  O_2
REMARK    2  A    between atoms: O_2  and  C_3
REMARK    3  A    between atoms: C_6  and  C_7
REMARK    4  A    between atoms: C_7  and  C_9
REMARK    5  A    between atoms: C_9  and  N_10
REMARK                            x       y       z     vdW  Elec       q    Type
REMARK                         _______ _______ _______ _____ _____    ______ ____
ROOT
ATOM      1  C   UNL     1       2.386   3.872  18.193  0.00  0.00    +0.000 C 
ATOM      2  O   UNL     1       1.625   3.449  17.326  0.00  0.00    +0.000 OA
ENDROOT
BRANCH   1   6
ATOM      3  C   UNL     1       1.901   7.730  20.010  0.00  0.00    +0.000 A 
ATOM      4  C   UNL     1       1.547   6.580  20.718  0.00  0.00    +0.000 A 
ATOM      5  C   UNL     1       1.665   5.315  20.137  0.00  0.00    +0.000 A 
ATOM      6  C   UNL     1       2.144   5.197  18.829  0.00  0.00    +0.000 A 
ATOM      7  C   UNL     1       2.449   6.352  18.098  0.00  0.00    +0.000 A 
ATOM      8  C   UNL     1       2.331   7.616  18.690  0.00  0.00    +0.000 A 
BRANCH   3  10
ATOM      9  C   UNL     1       1.183   8.788  22.006  0.00  0.00    +0.000 C 
ATOM     10  O   UNL     1       1.744   8.897  20.701  0.00  0.00    +0.000 OA
ENDBRANCH   3  10
ENDBRANCH   1   6
BRANCH   1  11
ATOM     11  C   UNL     1       3.632   3.105  18.559  0.00  0.00    +0.000 C 
BRANCH  11  12
ATOM     12  N   UNL     1       4.794   3.749  17.899  0.00  0.00    +0.000 N 
ATOM     13  C   UNL     1       5.693   4.446  18.637  0.00  0.00    +0.000 A 
ATOM     14  C   UNL     1       6.762   5.089  18.016  0.00  0.00    +0.000 A 
ATOM     15 BR   UNL     1       7.981   6.092  19.047  0.00  0.00    +0.000 Br
ATOM     16  C   UNL     1       6.925   5.000  16.638  0.00  0.00    +0.000 A 
ATOM     17  C   UNL     1       6.010   4.255  15.909  0.00  0.00    +0.000 A 
ATOM     18 BR   UNL     1       6.187   4.094  14.037  0.00  0.00    +0.000 Br
ATOM     19  C   UNL     1       4.947   3.631  16.555  0.00  0.00    +0.000 A 
ENDBRANCH  11  12
ENDBRANCH   1  11
TORSDOF 4
ENDMDL
MODEL 4
REMARK VINA RESULT:      -6.7      0.410      2.438
REMARK  Name = 
REMARK  5 active torsions:
REMARK  status: ('A' for Active; 'I' for Inactive)
REMARK    1  A    between atoms: C_1  and  O_2
REMARK    2  A    between atoms: O_2  and  C_3
REMARK    3  A    between atoms: C_6  and  C_7
REMARK    4  A    between atoms: C_7  and  C_9
REMARK    5  A    between atoms: C_9  and  N_10
REMARK                            x       y       z     vdW  Elec       q    Type
REMARK                         _______ _______ _______ _____ _____    ______ ____
ROOT
ATOM      1  C   UNL     1       2.290   3.610  18.485  0.00  0.00    +0.000 C 
ATOM      2  O   UNL     1       1.444   3.091  17.758  0.00  0.00    +0.000 OA
ENDROOT
BRANCH   1   6
ATOM      3  C   UNL     1       1.917   7.611  19.989  0.00  0.00    +0.000 A 
ATOM      4  C   UNL     1       1.593   6.529  20.809  0.00  0.00    +0.000 A 
ATOM      5  C   UNL     1       1.675   5.219  20.333  0.00  0.00    +0.000 A 
ATOM      6  C   UNL     1       2.087   4.986  19.017  0.00  0.00    +0.000 A 
ATOM      7  C   UNL     1       2.362   6.072  18.177  0.00  0.00    +0.000 A 
ATOM      8  C   UNL     1       2.280   7.382  18.664  0.00  0.00    +0.000 A 
BRANCH   3  10
ATOM      9  C   UNL     1       1.200   8.853  21.876  0.00  0.00    +0.000 C 
ATOM     10  O   UNL     1       1.801   8.834  20.586  0.00  0.00    +0.000 OA
ENDBRANCH   3  10
ENDBRANCH   1   6
BRANCH   1  11
ATOM     11  C   UNL     1       3.592   2.902  18.770  0.00  0.00    +0.000 C 
BRANCH  11  12
ATOM     12  N   UNL     1       4.682   3.617  18.062  0.00  0.00    +0.000 N 
ATOM     13  C   UNL     1       4.755   3.573  16.709  0.00  0.00    +0.000 A 
ATOM     14  C   UNL     1       5.802   4.206  16.042  0.00  0.00    +0.000 A 
ATOM     15 BR   UNL     1       5.918   4.101  14.162  0.00  0.00    +0.000 Br
ATOM     16  C   UNL     1       6.764   4.908  16.760  0.00  0.00    +0.000 A 
ATOM     17  C   UNL     1       6.649   4.966  18.141  0.00  0.00    +0.000 A 
ATOM     18 BR   UNL     1       7.922   5.910  19.165  0.00  0.00    +0.000 Br
ATOM     19  C   UNL     1       5.598   4.315  18.780  0.00  0.00    +0.000 A 
ENDBRANCH  11  12
ENDBRANCH   1  11
TORSDOF 4
ENDMDL
MODEL 5
REMARK VINA RESULT:      -6.4      1.280      1.332
REMARK  Name = 
REMARK  5 active torsions:
REMARK  status: ('A' for Active; 'I' for Inactive)
REMARK    1  A    between atoms: C_1  and  O_2
REMARK    2  A    between atoms: O_2  and  C_3
REMARK    3  A    between atoms: C_6  and  C_7
REMARK    4  A    between atoms: C_7  and  C_9
REMARK    5  A    between atoms: C_9  and  N_10
REMARK                            x       y       z     vdW  Elec       q    Type
REMARK                         _______ _______ _______ _____ _____    ______ ____
ROOT
ATOM      1  C   UNL     1       2.886   4.544  18.778  0.00  0.00    +0.000 C 
ATOM      2  O   UNL     1       2.101   3.794  18.201  0.00  0.00    +0.000 OA
ENDROOT
BRANCH   1   6
ATOM      3  C   UNL     1       1.553   8.506  19.747  0.00  0.00    +0.000 A 
ATOM      4  C   UNL     1       2.093   8.245  18.487  0.00  0.00    +0.000 A 
ATOM      5  C   UNL     1       2.564   6.971  18.158  0.00  0.00    +0.000 A 
ATOM      6  C   UNL     1       2.494   5.943  19.103  0.00  0.00    +0.000 A 
ATOM      7  C   UNL     1       2.000   6.216  20.385  0.00  0.00    +0.000 A 
ATOM      8  C   UNL     1       1.528   7.495  20.705  0.00  0.00    +0.000 A 
BRANCH   3  10
ATOM      9  C   UNL     1      -0.019  10.187  19.178  0.00  0.00    +0.000 C 
ATOM     10  O   UNL     1       1.124   9.789  19.928  0.00  0.00    +0.000 OA
ENDBRANCH   3  10
ENDBRANCH   1   6
BRANCH   1  11
ATOM     11  C   UNL     1       4.295   4.093  19.078  0.00  0.00    +0.000 C 
BRANCH  11  12
ATOM     12  N   UNL     1       5.203   4.672  18.057  0.00  0.00    +0.000 N 
ATOM     13  C   UNL     1       5.991   5.730  18.373  0.00  0.00    +0.000 A 
ATOM     14  C   UNL     1       6.813   6.305  17.406  0.00  0.00    +0.000 A 
ATOM     15 BR   UNL     1       7.871   7.803  17.845  0.00  0.00    +0.000 Br
ATOM     16  C   UNL     1       6.847   5.782  16.118  0.00  0.00    +0.000 A 
ATOM     17  C   UNL     1       6.056   4.679  15.829  0.00  0.00    +0.000 A 
ATOM     18 BR   UNL     1       6.070   3.924  14.101  0.00  0.00    +0.000 Br
ATOM     19  C   UNL     1       5.238   4.132  16.813  0.00  0.00    +0.000 A 
ENDBRANCH  11  12
ENDBRANCH   1  11
TORSDOF 4
ENDMDL
MODEL 6
REMARK VINA RESULT:      -6.2      3.577      6.880
REMARK  Name = 
REMARK  5 active torsions:
REMARK  status: ('A' for Active; 'I' for Inactive)
REMARK    1  A    between atoms: C_1  and  O_2
REMARK    2  A    between atoms: O_2  and  C_3
REMARK    3  A    between atoms: C_6  and  C_7
REMARK    4  A    between atoms: C_7  and  C_9
REMARK    5  A    between atoms: C_9  and  N_10
REMARK                            x       y       z     vdW  Elec       q    Type
REMARK                         _______ _______ _______ _____ _____    ______ ____
ROOT
ATOM      1  C   UNL     1       7.030   5.597  16.603  0.00  0.00    +0.000 C 
ATOM      2  O   UNL     1       7.539   6.716  16.602  0.00  0.00    +0.000 OA
ENDROOT
BRANCH   1   6
ATOM      3  C   UNL     1       6.116   3.794  12.817  0.00  0.00    +0.000 A 
ATOM      4  C   UNL     1       5.366   3.456  13.945  0.00  0.00    +0.000 A 
ATOM      5  C   UNL     1       5.665   4.005  15.195  0.00  0.00    +0.000 A 
ATOM      6  C   UNL     1       6.728   4.904  15.320  0.00  0.00    +0.000 A 
ATOM      7  C   UNL     1       7.514   5.204  14.199  0.00  0.00    +0.000 A 
ATOM      8  C   UNL     1       7.205   4.652  12.950  0.00  0.00    +0.000 A 
BRANCH   3  10
ATOM      9  C   UNL     1       4.308   3.189  11.409  0.00  0.00    +0.000 C 
ATOM     10  O   UNL     1       5.709   3.192  11.662  0.00  0.00    +0.000 OA
ENDBRANCH   3  10
ENDBRANCH   1   6
BRANCH   1  11
ATOM     11  C   UNL     1       6.613   4.947  17.899  0.00  0.00    +0.000 C 
BRANCH  11  12
ATOM     12  N   UNL     1       5.144   5.095  18.049  0.00  0.00    +0.000 N 
ATOM     13  C   UNL     1       4.373   4.005  18.287  0.00  0.00    +0.000 A 
ATOM     14  C   UNL     1       2.989   4.133  18.385  0.00  0.00    +0.000 A 
ATOM     15 BR   UNL     1       1.923   2.604  18.671  0.00  0.00    +0.000 Br
ATOM     16  C   UNL     1       2.393   5.383  18.263  0.00  0.00    +0.000 A 
ATOM     17  C   UNL     1       3.206   6.487  18.052  0.00  0.00    +0.000 A 
ATOM     18 BR   UNL     1       2.452   8.209  17.888  0.00  0.00    +0.000 Br
ATOM     19  C   UNL     1       4.585   6.328  17.949  0.00  0.00    +0.000 A 
ENDBRANCH  11  12
ENDBRANCH   1  11
TORSDOF 4
ENDMDL
MODEL 7
REMARK VINA RESULT:      -6.2      1.643      1.949
REMARK  Name = 
REMARK  5 active torsions:
REMARK  status: ('A' for Active; 'I' for Inactive)
REMARK    1  A    between atoms: C_1  and  O_2
REMARK    2  A    between atoms: O_2  and  C_3
REMARK    3  A    between atoms: C_6  and  C_7
REMARK    4  A    between atoms: C_7  and  C_9
REMARK    5  A    between atoms: C_9  and  N_10
REMARK                            x       y       z     vdW  Elec       q    Type
REMARK                         _______ _______ _______ _____ _____    ______ ____
ROOT
ATOM      1  C   UNL     1       2.764   5.666  19.287  0.00  0.00    +0.000 C 
ATOM      2  O   UNL     1       2.981   5.165  20.388  0.00  0.00    +0.000 OA
ENDROOT
BRANCH   1   6
ATOM      3  C   UNL     1       1.229   9.664  19.016  0.00  0.00    +0.000 A 
ATOM      4  C   UNL     1       1.831   9.075  17.903  0.00  0.00    +0.000 A 
ATOM      5  C   UNL     1       2.367   7.788  17.974  0.00  0.00    +0.000 A 
ATOM      6  C   UNL     1       2.301   7.077  19.177  0.00  0.00    +0.000 A 
ATOM      7  C   UNL     1       1.745   7.685  20.309  0.00  0.00    +0.000 A 
ATOM      8  C   UNL     1       1.207   8.975  20.227  0.00  0.00    +0.000 A 
BRANCH   3  10
ATOM      9  C   UNL     1       0.737  11.797  19.925  0.00  0.00    +0.000 C 
ATOM     10  O   UNL     1       0.740  10.921  18.803  0.00  0.00    +0.000 OA
ENDBRANCH   3  10
ENDBRANCH   1   6
BRANCH   1  11
ATOM     11  C   UNL     1       2.867   4.832  18.033  0.00  0.00    +0.000 C 
BRANCH  11  12
ATOM     12  N   UNL     1       4.280   4.835  17.579  0.00  0.00    +0.000 N 
ATOM     13  C   UNL     1       5.266   5.196  18.437  0.00  0.00    +0.000 A 
ATOM     14  C   UNL     1       6.590   5.242  18.003  0.00  0.00    +0.000 A 
ATOM     15 BR   UNL     1       7.949   5.788  19.192  0.00  0.00    +0.000 Br
ATOM     16  C   UNL     1       6.908   4.896  16.694  0.00  0.00    +0.000 A 
ATOM     17  C   UNL     1       5.885   4.499  15.846  0.00  0.00    +0.000 A 
ATOM     18 BR   UNL     1       6.261   4.011  14.063  0.00  0.00    +0.000 Br
ATOM     19  C   UNL     1       4.571   4.472  16.304  0.00  0.00    +0.000 A 
ENDBRANCH  11  12
ENDBRANCH   1  11
TORSDOF 4
ENDMDL
MODEL 8
REMARK VINA RESULT:      -6.2      1.675      2.909
REMARK  Name = 
REMARK  5 active torsions:
REMARK  status: ('A' for Active; 'I' for Inactive)
REMARK    1  A    between atoms: C_1  and  O_2
REMARK    2  A    between atoms: O_2  and  C_3
REMARK    3  A    between atoms: C_6  and  C_7
REMARK    4  A    between atoms: C_7  and  C_9
REMARK    5  A    between atoms: C_9  and  N_10
REMARK                            x       y       z     vdW  Elec       q    Type
REMARK                         _______ _______ _______ _____ _____    ______ ____
ROOT
ATOM      1  C   UNL     1       2.768   5.634  19.334  0.00  0.00    +0.000 C 
ATOM      2  O   UNL     1       2.982   5.149  20.443  0.00  0.00    +0.000 OA
ENDROOT
BRANCH   1   6
ATOM      3  C   UNL     1       1.222   9.623  19.002  0.00  0.00    +0.000 A 
ATOM      4  C   UNL     1       1.836   9.024  17.901  0.00  0.00    +0.000 A 
ATOM      5  C   UNL     1       2.376   7.738  17.993  0.00  0.00    +0.000 A 
ATOM      6  C   UNL     1       2.301   7.042  19.203  0.00  0.00    +0.000 A 
ATOM      7  C   UNL     1       1.732   7.662  20.323  0.00  0.00    +0.000 A 
ATOM      8  C   UNL     1       1.191   8.949  20.220  0.00  0.00    +0.000 A 
BRANCH   3  10
ATOM      9  C   UNL     1      -0.576  11.145  19.262  0.00  0.00    +0.000 C 
ATOM     10  O   UNL     1       0.732  10.876  18.768  0.00  0.00    +0.000 OA
ENDBRANCH   3  10
ENDBRANCH   1   6
BRANCH   1  11
ATOM     11  C   UNL     1       2.877   4.783  18.092  0.00  0.00    +0.000 C 
BRANCH  11  12
ATOM     12  N   UNL     1       4.276   4.844  17.601  0.00  0.00    +0.000 N 
ATOM     13  C   UNL     1       4.559   4.512  16.317  0.00  0.00    +0.000 A 
ATOM     14  C   UNL     1       5.876   4.525  15.864  0.00  0.00    +0.000 A 
ATOM     15 BR   UNL     1       6.263   4.017  14.089  0.00  0.00    +0.000 Br
ATOM     16  C   UNL     1       6.906   4.903  16.719  0.00  0.00    +0.000 A 
ATOM     17  C   UNL     1       6.587   5.270  18.018  0.00  0.00    +0.000 A 
ATOM     18 BR   UNL     1       7.942   5.799  19.219  0.00  0.00    +0.000 Br
ATOM     19  C   UNL     1       5.263   5.238  18.446  0.00  0.00    +0.000 A 
ENDBRANCH  11  12
ENDBRANCH   1  11
TORSDOF 4
ENDMDL
MODEL 9
REMARK VINA RESULT:      -6.2      3.316      5.418
REMARK  Name = 
REMARK  5 active torsions:
REMARK  status: ('A' for Active; 'I' for Inactive)
REMARK    1  A    between atoms: C_1  and  O_2
REMARK    2  A    between atoms: O_2  and  C_3
REMARK    3  A    between atoms: C_6  and  C_7
REMARK    4  A    between atoms: C_7  and  C_9
REMARK    5  A    between atoms: C_9  and  N_10
REMARK                            x       y       z     vdW  Elec       q    Type
REMARK                         _______ _______ _______ _____ _____    ______ ____
ROOT
ATOM      1  C   UNL     1       5.273   4.266  16.236  0.00  0.00    +0.000 C 
ATOM      2  O   UNL     1       5.144   4.232  15.014  0.00  0.00    +0.000 OA
ENDROOT
BRANCH   1   6
ATOM      3  C   UNL     1       7.863   7.030  18.252  0.00  0.00    +0.000 A 
ATOM      4  C   UNL     1       7.059   7.474  17.201  0.00  0.00    +0.000 A 
ATOM      5  C   UNL     1       6.231   6.588  16.508  0.00  0.00    +0.000 A 
ATOM      6  C   UNL     1       6.207   5.237  16.870  0.00  0.00    +0.000 A 
ATOM      7  C   UNL     1       7.052   4.780  17.889  0.00  0.00    +0.000 A 
ATOM      8  C   UNL     1       7.876   5.676  18.580  0.00  0.00    +0.000 A 
BRANCH   3  10
ATOM      9  C   UNL     1       8.503   9.312  18.295  0.00  0.00    +0.000 C 
ATOM     10  O   UNL     1       8.614   8.004  18.845  0.00  0.00    +0.000 OA
ENDBRANCH   3  10
ENDBRANCH   1   6
BRANCH   1  11
ATOM     11  C   UNL     1       4.563   3.260  17.109  0.00  0.00    +0.000 C 
BRANCH  11  12
ATOM     12  N   UNL     1       3.686   3.993  18.055  0.00  0.00    +0.000 N 
ATOM     13  C   UNL     1       3.359   5.287  17.813  0.00  0.00    +0.000 A 
ATOM     14  C   UNL     1       2.571   5.992  18.721  0.00  0.00    +0.000 A 
ATOM     15 BR   UNL     1       2.160   7.804  18.397  0.00  0.00    +0.000 Br
ATOM     16  C   UNL     1       2.097   5.366  19.868  0.00  0.00    +0.000 A 
ATOM     17  C   UNL     1       2.418   4.032  20.076  0.00  0.00    +0.000 A 
ATOM     18 BR   UNL     1       1.794   3.130  21.611  0.00  0.00    +0.000 Br
ATOM     19  C   UNL     1       3.215   3.356  19.157  0.00  0.00    +0.000 A 
ENDBRANCH  11  12
ENDBRANCH   1  11
TORSDOF 4
ENDMDL
