MODEL 1
REMARK VINA RESULT:      -7.4      0.000      0.000
REMARK  Name = 
REMARK  10 active torsions:
REMARK  status: ('A' for Active; 'I' for Inactive)
REMARK    1  A    between atoms: C_1  and  C_2
REMARK    2  A    between atoms: C_2  and  O_3
REMARK    3  A    between atoms: O_3  and  C_4
REMARK    4  A    between atoms: C_4  and  C_6
REMARK    5  A    between atoms: C_9  and  C_10
REMARK    6  A    between atoms: C_10  and  C_12
REMARK    7  A    between atoms: C_12  and  C_13
REMARK    8  A    between atoms: C_13  and  C_14
REMARK    9  A    between atoms: N_20  and  C_21
REMARK   10  A    between atoms: N_22  and  C_23
REMARK                            x       y       z     vdW  Elec       q    Type
REMARK                         _______ _______ _______ _____ _____    ______ ____
ROOT
ATOM      1  C   UNL     1       4.947   5.448  18.880  0.00  0.00    +0.000 C 
ATOM      2  O   UNL     1       5.748   5.573  19.811  0.00  0.00    +0.000 OA
ENDROOT
BRANCH   1   3
ATOM      3  C   UNL     1       3.510   5.129  19.242  0.00  0.00    +0.000 C 
ATOM      4  C   UNL     1       3.065   3.834  19.229  0.00  0.00    +0.000 C 
ATOM      5  C   UNL     1       3.961   2.638  18.858  0.00  0.00    +0.000 C 
ATOM      6  C   UNL     1       2.992   1.584  18.336  0.00  0.00    +0.000 C 
ATOM      7  C   UNL     1       1.694   1.860  19.073  0.00  0.00    +0.000 C 
ATOM      8  N   UNL     1       1.825   3.251  19.523  0.00  0.00    +0.000 N 
ATOM      9  C   UNL     1       0.661   3.804  20.190  0.00  0.00    +0.000 C 
BRANCH   3  10
ATOM     10  C   UNL     1       2.614   6.224  19.731  0.00  0.00    +0.000 C 
ATOM     11  C   UNL     1       2.189   7.303  18.761  0.00  0.00    +0.000 C 
ATOM     12  O   UNL     1       2.174   6.240  20.883  0.00  0.00    +0.000 OA
ENDBRANCH   3  10
ENDBRANCH   1   3
BRANCH   1  16
ATOM     13  C   UNL     1       6.214   5.492  15.379  0.00  0.00    +0.000 A 
ATOM     14  C   UNL     1       5.298   6.524  15.383  0.00  0.00    +0.000 A 
ATOM     15  C   UNL     1       4.846   6.678  16.701  0.00  0.00    +0.000 A 
ATOM     16  C   UNL     1       5.443   5.710  17.510  0.00  0.00    +0.000 A 
ATOM     17  N   UNL     1       6.453   5.178  16.715  0.00  0.00    +0.000 N 
ATOM     18  C   UNL     1       7.677   4.508  17.116  0.00  0.00    +0.000 C 
BRANCH  13  19
ATOM     19  C   UNL     1       6.896   4.899  14.242  0.00  0.00    +0.000 C 
ATOM     20  O   UNL     1       7.891   5.354  13.694  0.00  0.00    +0.000 OA
BRANCH  19  21
ATOM     21  O   UNL     1       6.214   3.795  13.818  0.00  0.00    +0.000 OA
BRANCH  21  23
ATOM     22  C   UNL     1       4.985   3.170  11.872  0.00  0.00    +0.000 C 
ATOM     23  C   UNL     1       6.363   3.496  12.427  0.00  0.00    +0.000 C 
ENDBRANCH  21  23
ENDBRANCH  19  21
ENDBRANCH  13  19
ENDBRANCH   1  16
TORSDOF 6
ENDMDL
MODEL 2
REMARK VINA RESULT:      -7.4      1.107      2.475
REMARK  Name = 
REMARK  10 active torsions:
REMARK  status: ('A' for Active; 'I' for Inactive)
REMARK    1  A    between atoms: C_1  and  C_2
REMARK    2  A    between atoms: C_2  and  O_3
REMARK    3  A    between atoms: O_3  and  C_4
REMARK    4  A    between atoms: C_4  and  C_6
REMARK    5  A    between atoms: C_9  and  C_10
REMARK    6  A    between atoms: C_10  and  C_12
REMARK    7  A    between atoms: C_12  and  C_13
REMARK    8  A    between atoms: C_13  and  C_14
REMARK    9  A    between atoms: N_20  and  C_21
REMARK   10  A    between atoms: N_22  and  C_23
REMARK                            x       y       z     vdW  Elec       q    Type
REMARK                         _______ _______ _______ _____ _____    ______ ____
ROOT
ATOM      1  C   UNL     1       5.318   4.909  18.949  0.00  0.00    +0.000 C 
ATOM      2  O   UNL     1       6.034   5.386  19.835  0.00  0.00    +0.000 OA
ENDROOT
BRANCH   1   3
ATOM      3  C   UNL     1       4.145   4.056  19.391  0.00  0.00    +0.000 C 
ATOM      4  C   UNL     1       2.944   4.638  19.696  0.00  0.00    +0.000 C 
ATOM      5  C   UNL     1       2.698   6.156  19.616  0.00  0.00    +0.000 C 
ATOM      6  C   UNL     1       1.575   6.412  20.614  0.00  0.00    +0.000 C 
ATOM      7  C   UNL     1       0.779   5.120  20.634  0.00  0.00    +0.000 C 
ATOM      8  N   UNL     1       1.712   4.115  20.110  0.00  0.00    +0.000 N 
ATOM      9  C   UNL     1       1.222   2.749  20.106  0.00  0.00    +0.000 C 
BRANCH   3  10
ATOM     10  C   UNL     1       4.274   2.565  19.375  0.00  0.00    +0.000 C 
ATOM     11  C   UNL     1       3.758   1.803  18.176  0.00  0.00    +0.000 C 
ATOM     12  O   UNL     1       4.835   1.950  20.286  0.00  0.00    +0.000 OA
ENDBRANCH   3  10
ENDBRANCH   1   3
BRANCH   1  16
ATOM     13  C   UNL     1       6.151   5.257  15.337  0.00  0.00    +0.000 A 
ATOM     14  C   UNL     1       5.133   6.173  15.502  0.00  0.00    +0.000 A 
ATOM     15  C   UNL     1       4.825   6.214  16.869  0.00  0.00    +0.000 A 
ATOM     16  C   UNL     1       5.617   5.288  17.549  0.00  0.00    +0.000 A 
ATOM     17  N   UNL     1       6.580   4.915  16.616  0.00  0.00    +0.000 N 
ATOM     18  C   UNL     1       7.910   4.375  16.839  0.00  0.00    +0.000 C 
BRANCH  13  19
ATOM     19  C   UNL     1       6.756   4.799  14.098  0.00  0.00    +0.000 C 
ATOM     20  O   UNL     1       7.620   5.394  13.468  0.00  0.00    +0.000 OA
BRANCH  19  21
ATOM     21  O   UNL     1       6.160   3.640  13.692  0.00  0.00    +0.000 OA
BRANCH  21  23
ATOM     22  C   UNL     1       4.759   3.269  11.799  0.00  0.00    +0.000 C 
ATOM     23  C   UNL     1       6.194   3.410  12.281  0.00  0.00    +0.000 C 
ENDBRANCH  21  23
ENDBRANCH  19  21
ENDBRANCH  13  19
ENDBRANCH   1  16
TORSDOF 6
ENDMDL
MODEL 3
REMARK VINA RESULT:      -6.8      1.612      2.753
REMARK  Name = 
REMARK  10 active torsions:
REMARK  status: ('A' for Active; 'I' for Inactive)
REMARK    1  A    between atoms: C_1  and  C_2
REMARK    2  A    between atoms: C_2  and  O_3
REMARK    3  A    between atoms: O_3  and  C_4
REMARK    4  A    between atoms: C_4  and  C_6
REMARK    5  A    between atoms: C_9  and  C_10
REMARK    6  A    between atoms: C_10  and  C_12
REMARK    7  A    between atoms: C_12  and  C_13
REMARK    8  A    between atoms: C_13  and  C_14
REMARK    9  A    between atoms: N_20  and  C_21
REMARK   10  A    between atoms: N_22  and  C_23
REMARK                            x       y       z     vdW  Elec       q    Type
REMARK                         _______ _______ _______ _____ _____    ______ ____
ROOT
ATOM      1  C   UNL     1       5.487   4.374  18.761  0.00  0.00    +0.000 C 
ATOM      2  O   UNL     1       6.435   4.815  19.420  0.00  0.00    +0.000 OA
ENDROOT
BRANCH   1   3
ATOM      3  C   UNL     1       4.326   3.780  19.533  0.00  0.00    +0.000 C 
ATOM      4  C   UNL     1       3.213   4.533  19.796  0.00  0.00    +0.000 C 
ATOM      5  C   UNL     1       3.059   5.996  19.341  0.00  0.00    +0.000 C 
ATOM      6  C   UNL     1       2.089   6.606  20.347  0.00  0.00    +0.000 C 
ATOM      7  C   UNL     1       1.219   5.444  20.791  0.00  0.00    +0.000 C 
ATOM      8  N   UNL     1       2.011   4.254  20.459  0.00  0.00    +0.000 N 
ATOM      9  C   UNL     1       1.436   2.986  20.869  0.00  0.00    +0.000 C 
BRANCH   3  10
ATOM     10  C   UNL     1       4.354   2.329  19.900  0.00  0.00    +0.000 C 
ATOM     11  C   UNL     1       3.844   1.316  18.900  0.00  0.00    +0.000 C 
ATOM     12  O   UNL     1       4.828   1.937  20.969  0.00  0.00    +0.000 OA
ENDBRANCH   3  10
ENDBRANCH   1   3
BRANCH   1  16
ATOM     13  C   UNL     1       6.212   4.716  15.125  0.00  0.00    +0.000 A 
ATOM     14  C   UNL     1       5.020   4.022  15.132  0.00  0.00    +0.000 A 
ATOM     15  C   UNL     1       4.588   3.947  16.463  0.00  0.00    +0.000 A 
ATOM     16  C   UNL     1       5.534   4.550  17.292  0.00  0.00    +0.000 A 
ATOM     17  N   UNL     1       6.376   5.224  16.412  0.00  0.00    +0.000 N 
ATOM     18  C   UNL     1       7.227   6.374  16.658  0.00  0.00    +0.000 C 
BRANCH  13  19
ATOM     19  C   UNL     1       7.093   4.980  14.000  0.00  0.00    +0.000 C 
ATOM     20  O   UNL     1       8.222   5.446  14.077  0.00  0.00    +0.000 OA
BRANCH  19  21
ATOM     21  O   UNL     1       6.444   4.707  12.831  0.00  0.00    +0.000 OA
BRANCH  21  23
ATOM     22  C   UNL     1       5.848   2.632  11.817  0.00  0.00    +0.000 C 
ATOM     23  C   UNL     1       6.982   3.607  12.090  0.00  0.00    +0.000 C 
ENDBRANCH  21  23
ENDBRANCH  19  21
ENDBRANCH  13  19
ENDBRANCH   1  16
TORSDOF 6
ENDMDL
MODEL 4
REMARK VINA RESULT:      -6.8      2.926      6.874
REMARK  Name = 
REMARK  10 active torsions:
REMARK  status: ('A' for Active; 'I' for Inactive)
REMARK    1  A    between atoms: C_1  and  C_2
REMARK    2  A    between atoms: C_2  and  O_3
REMARK    3  A    between atoms: O_3  and  C_4
REMARK    4  A    between atoms: C_4  and  C_6
REMARK    5  A    between atoms: C_9  and  C_10
REMARK    6  A    between atoms: C_10  and  C_12
REMARK    7  A    between atoms: C_12  and  C_13
REMARK    8  A    between atoms: C_13  and  C_14
REMARK    9  A    between atoms: N_20  and  C_21
REMARK   10  A    between atoms: N_22  and  C_23
REMARK                            x       y       z     vdW  Elec       q    Type
REMARK                         _______ _______ _______ _____ _____    ______ ____
ROOT
ATOM      1  C   UNL     1       3.561   6.542  17.901  0.00  0.00    +0.000 C 
ATOM      2  O   UNL     1       4.147   6.991  16.911  0.00  0.00    +0.000 OA
ENDROOT
BRANCH   1   3
ATOM      3  C   UNL     1       3.969   5.164  18.381  0.00  0.00    +0.000 C 
ATOM      4  C   UNL     1       3.068   4.133  18.368  0.00  0.00    +0.000 C 
ATOM      5  C   UNL     1       1.616   4.288  17.880  0.00  0.00    +0.000 C 
ATOM      6  C   UNL     1       0.847   3.203  18.624  0.00  0.00    +0.000 C 
ATOM      7  C   UNL     1       1.867   2.104  18.858  0.00  0.00    +0.000 C 
ATOM      8  N   UNL     1       3.162   2.783  18.731  0.00  0.00    +0.000 N 
ATOM      9  C   UNL     1       4.328   1.962  19.002  0.00  0.00    +0.000 C 
BRANCH   3  10
ATOM     10  C   UNL     1       5.396   4.908  18.755  0.00  0.00    +0.000 C 
ATOM     11  C   UNL     1       6.389   4.594  17.659  0.00  0.00    +0.000 C 
ATOM     12  O   UNL     1       5.790   5.000  19.920  0.00  0.00    +0.000 OA
ENDBRANCH   3  10
ENDBRANCH   1   3
BRANCH   1  16
ATOM     13  C   UNL     1       1.492   8.737  20.085  0.00  0.00    +0.000 A 
ATOM     14  C   UNL     1       1.386   9.349  18.853  0.00  0.00    +0.000 A 
ATOM     15  C   UNL     1       2.032   8.526  17.920  0.00  0.00    +0.000 A 
ATOM     16  C   UNL     1       2.585   7.427  18.578  0.00  0.00    +0.000 A 
ATOM     17  N   UNL     1       2.015   7.468  19.847  0.00  0.00    +0.000 N 
ATOM     18  C   UNL     1       1.818   6.389  20.798  0.00  0.00    +0.000 C 
BRANCH  13  19
ATOM     19  C   UNL     1       1.057   9.237  21.378  0.00  0.00    +0.000 C 
ATOM     20  O   UNL     1       1.750   9.295  22.386  0.00  0.00    +0.000 OA
BRANCH  19  21
ATOM     21  O   UNL     1      -0.268   9.559  21.328  0.00  0.00    +0.000 OA
BRANCH  21  23
ATOM     22  C   UNL     1      -1.237  10.853  23.081  0.00  0.00    +0.000 C 
ATOM     23  C   UNL     1      -0.573  10.902  21.714  0.00  0.00    +0.000 C 
ENDBRANCH  21  23
ENDBRANCH  19  21
ENDBRANCH  13  19
ENDBRANCH   1  16
TORSDOF 6
ENDMDL
MODEL 5
REMARK VINA RESULT:      -6.7      3.173      6.507
REMARK  Name = 
REMARK  10 active torsions:
REMARK  status: ('A' for Active; 'I' for Inactive)
REMARK    1  A    between atoms: C_1  and  C_2
REMARK    2  A    between atoms: C_2  and  O_3
REMARK    3  A    between atoms: O_3  and  C_4
REMARK    4  A    between atoms: C_4  and  C_6
REMARK    5  A    between atoms: C_9  and  C_10
REMARK    6  A    between atoms: C_10  and  C_12
REMARK    7  A    between atoms: C_12  and  C_13
REMARK    8  A    between atoms: C_13  and  C_14
REMARK    9  A    between atoms: N_20  and  C_21
REMARK   10  A    between atoms: N_22  and  C_23
REMARK                            x       y       z     vdW  Elec       q    Type
REMARK                         _______ _______ _______ _____ _____    ______ ____
ROOT
ATOM      1  C   UNL     1       2.243   5.704  20.139  0.00  0.00    +0.000 C 
ATOM      2  O   UNL     1       2.112   5.132  21.226  0.00  0.00    +0.000 OA
ENDROOT
BRANCH   1   3
ATOM      3  C   UNL     1       2.644   4.851  18.952  0.00  0.00    +0.000 C 
ATOM      4  C   UNL     1       3.958   4.760  18.579  0.00  0.00    +0.000 C 
ATOM      5  C   UNL     1       5.095   5.495  19.312  0.00  0.00    +0.000 C 
ATOM      6  C   UNL     1       6.178   5.671  18.254  0.00  0.00    +0.000 C 
ATOM      7  C   UNL     1       5.991   4.492  17.316  0.00  0.00    +0.000 C 
ATOM      8  N   UNL     1       4.610   4.057  17.558  0.00  0.00    +0.000 N 
ATOM      9  C   UNL     1       4.137   2.979  16.708  0.00  0.00    +0.000 C 
BRANCH   3  10
ATOM     10  C   UNL     1       1.610   4.013  18.267  0.00  0.00    +0.000 C 
ATOM     11  C   UNL     1       1.178   2.717  18.914  0.00  0.00    +0.000 C 
ATOM     12  O   UNL     1       1.065   4.377  17.221  0.00  0.00    +0.000 OA
ENDBRANCH   3  10
ENDBRANCH   1   3
BRANCH   1  16
ATOM     13  C   UNL     1       1.137   9.191  19.445  0.00  0.00    +0.000 A 
ATOM     14  C   UNL     1       0.895   9.060  20.797  0.00  0.00    +0.000 A 
ATOM     15  C   UNL     1       1.396   7.813  21.193  0.00  0.00    +0.000 A 
ATOM     16  C   UNL     1       1.907   7.145  20.079  0.00  0.00    +0.000 A 
ATOM     17  N   UNL     1       1.957   8.123  19.090  0.00  0.00    +0.000 N 
ATOM     18  C   UNL     1       2.797   8.187  17.907  0.00  0.00    +0.000 C 
BRANCH  13  19
ATOM     19  C   UNL     1       0.731  10.268  18.558  0.00  0.00    +0.000 C 
ATOM     20  O   UNL     1       1.188  11.403  18.564  0.00  0.00    +0.000 OA
BRANCH  19  21
ATOM     21  O   UNL     1      -0.300   9.851  17.766  0.00  0.00    +0.000 OA
BRANCH  21  23
ATOM     22  C   UNL     1      -2.598   9.857  17.132  0.00  0.00    +0.000 C 
ATOM     23  C   UNL     1      -1.535  10.539  17.979  0.00  0.00    +0.000 C 
ENDBRANCH  21  23
ENDBRANCH  19  21
ENDBRANCH  13  19
ENDBRANCH   1  16
TORSDOF 6
ENDMDL
MODEL 6
REMARK VINA RESULT:      -6.4      3.183      6.745
REMARK  Name = 
REMARK  10 active torsions:
REMARK  status: ('A' for Active; 'I' for Inactive)
REMARK    1  A    between atoms: C_1  and  C_2
REMARK    2  A    between atoms: C_2  and  O_3
REMARK    3  A    between atoms: O_3  and  C_4
REMARK    4  A    between atoms: C_4  and  C_6
REMARK    5  A    between atoms: C_9  and  C_10
REMARK    6  A    between atoms: C_10  and  C_12
REMARK    7  A    between atoms: C_12  and  C_13
REMARK    8  A    between atoms: C_13  and  C_14
REMARK    9  A    between atoms: N_20  and  C_21
REMARK   10  A    between atoms: N_22  and  C_23
REMARK                            x       y       z     vdW  Elec       q    Type
REMARK                         _______ _______ _______ _____ _____    ______ ____
ROOT
ATOM      1  C   UNL     1       2.226   5.691  20.160  0.00  0.00    +0.000 C 
ATOM      2  O   UNL     1       2.075   5.115  21.242  0.00  0.00    +0.000 OA
ENDROOT
BRANCH   1   3
ATOM      3  C   UNL     1       2.639   4.841  18.974  0.00  0.00    +0.000 C 
ATOM      4  C   UNL     1       3.956   4.754  18.611  0.00  0.00    +0.000 C 
ATOM      5  C   UNL     1       5.086   5.490  19.355  0.00  0.00    +0.000 C 
ATOM      6  C   UNL     1       6.177   5.670  18.306  0.00  0.00    +0.000 C 
ATOM      7  C   UNL     1       6.000   4.493  17.365  0.00  0.00    +0.000 C 
ATOM      8  N   UNL     1       4.618   4.054  17.595  0.00  0.00    +0.000 N 
ATOM      9  C   UNL     1       4.154   2.977  16.739  0.00  0.00    +0.000 C 
BRANCH   3  10
ATOM     10  C   UNL     1       1.613   4.002  18.279  0.00  0.00    +0.000 C 
ATOM     11  C   UNL     1       1.184   2.700  18.918  0.00  0.00    +0.000 C 
ATOM     12  O   UNL     1       1.072   4.369  17.233  0.00  0.00    +0.000 OA
ENDBRANCH   3  10
ENDBRANCH   1   3
BRANCH   1  16
ATOM     13  C   UNL     1       1.122   9.183  19.487  0.00  0.00    +0.000 A 
ATOM     14  C   UNL     1       0.946   9.067  20.850  0.00  0.00    +0.000 A 
ATOM     15  C   UNL     1       1.455   7.819  21.233  0.00  0.00    +0.000 A 
ATOM     16  C   UNL     1       1.903   7.135  20.102  0.00  0.00    +0.000 A 
ATOM     17  N   UNL     1       1.913   8.103  19.102  0.00  0.00    +0.000 N 
ATOM     18  C   UNL     1       2.693   8.147  17.878  0.00  0.00    +0.000 C 
BRANCH  13  19
ATOM     19  C   UNL     1       0.682  10.255  18.610  0.00  0.00    +0.000 C 
ATOM     20  O   UNL     1      -0.301  10.219  17.884  0.00  0.00    +0.000 OA
BRANCH  19  21
ATOM     21  O   UNL     1       1.577  11.285  18.655  0.00  0.00    +0.000 OA
BRANCH  21  23
ATOM     22  C   UNL     1       1.647  12.783  20.509  0.00  0.00    +0.000 C 
ATOM     23  C   UNL     1       1.044  12.522  19.138  0.00  0.00    +0.000 C 
ENDBRANCH  21  23
ENDBRANCH  19  21
ENDBRANCH  13  19
ENDBRANCH   1  16
TORSDOF 6
ENDMDL
MODEL 7
REMARK VINA RESULT:      -6.3      2.474      6.428
REMARK  Name = 
REMARK  10 active torsions:
REMARK  status: ('A' for Active; 'I' for Inactive)
REMARK    1  A    between atoms: C_1  and  C_2
REMARK    2  A    between atoms: C_2  and  O_3
REMARK    3  A    between atoms: O_3  and  C_4
REMARK    4  A    between atoms: C_4  and  C_6
REMARK    5  A    between atoms: C_9  and  C_10
REMARK    6  A    between atoms: C_10  and  C_12
REMARK    7  A    between atoms: C_12  and  C_13
REMARK    8  A    between atoms: C_13  and  C_14
REMARK    9  A    between atoms: N_20  and  C_21
REMARK   10  A    between atoms: N_22  and  C_23
REMARK                            x       y       z     vdW  Elec       q    Type
REMARK                         _______ _______ _______ _____ _____    ______ ____
ROOT
ATOM      1  C   UNL     1       4.959   4.216  16.839  0.00  0.00    +0.000 C 
ATOM      2  O   UNL     1       5.457   3.494  15.969  0.00  0.00    +0.000 OA
ENDROOT
BRANCH   1   3
ATOM      3  C   UNL     1       5.516   5.619  16.975  0.00  0.00    +0.000 C 
ATOM      4  C   UNL     1       6.670   5.839  17.679  0.00  0.00    +0.000 C 
ATOM      5  C   UNL     1       7.467   4.715  18.364  0.00  0.00    +0.000 C 
ATOM      6  C   UNL     1       8.202   5.410  19.504  0.00  0.00    +0.000 C 
ATOM      7  C   UNL     1       8.412   6.830  19.013  0.00  0.00    +0.000 C 
ATOM      8  N   UNL     1       7.409   6.997  17.955  0.00  0.00    +0.000 N 
ATOM      9  C   UNL     1       7.334   8.323  17.368  0.00  0.00    +0.000 C 
BRANCH   3  10
ATOM     10  C   UNL     1       4.863   6.744  16.235  0.00  0.00    +0.000 C 
ATOM     11  C   UNL     1       3.834   7.587  16.954  0.00  0.00    +0.000 C 
ATOM     12  O   UNL     1       5.179   7.034  15.078  0.00  0.00    +0.000 OA
ENDBRANCH   3  10
ENDBRANCH   1   3
BRANCH   1  16
ATOM     13  C   UNL     1       2.223   3.278  19.183  0.00  0.00    +0.000 A 
ATOM     14  C   UNL     1       1.605   3.206  17.951  0.00  0.00    +0.000 A 
ATOM     15  C   UNL     1       2.588   3.422  16.977  0.00  0.00    +0.000 A 
ATOM     16  C   UNL     1       3.810   3.677  17.600  0.00  0.00    +0.000 A 
ATOM     17  N   UNL     1       3.591   3.329  18.930  0.00  0.00    +0.000 N 
ATOM     18  C   UNL     1       4.553   2.928  19.941  0.00  0.00    +0.000 C 
BRANCH  13  19
ATOM     19  C   UNL     1       1.614   3.207  20.500  0.00  0.00    +0.000 C 
ATOM     20  O   UNL     1       1.507   2.194  21.179  0.00  0.00    +0.000 OA
BRANCH  19  21
ATOM     21  O   UNL     1       1.103   4.426  20.840  0.00  0.00    +0.000 OA
BRANCH  21  23
ATOM     22  C   UNL     1       1.275   6.804  20.855  0.00  0.00    +0.000 C 
ATOM     23  C   UNL     1       2.051   5.497  20.829  0.00  0.00    +0.000 C 
ENDBRANCH  21  23
ENDBRANCH  19  21
ENDBRANCH  13  19
ENDBRANCH   1  16
TORSDOF 6
ENDMDL
MODEL 8
REMARK VINA RESULT:      -6.3      3.220      6.706
REMARK  Name = 
REMARK  10 active torsions:
REMARK  status: ('A' for Active; 'I' for Inactive)
REMARK    1  A    between atoms: C_1  and  C_2
REMARK    2  A    between atoms: C_2  and  O_3
REMARK    3  A    between atoms: O_3  and  C_4
REMARK    4  A    between atoms: C_4  and  C_6
REMARK    5  A    between atoms: C_9  and  C_10
REMARK    6  A    between atoms: C_10  and  C_12
REMARK    7  A    between atoms: C_12  and  C_13
REMARK    8  A    between atoms: C_13  and  C_14
REMARK    9  A    between atoms: N_20  and  C_21
REMARK   10  A    between atoms: N_22  and  C_23
REMARK                            x       y       z     vdW  Elec       q    Type
REMARK                         _______ _______ _______ _____ _____    ______ ____
ROOT
ATOM      1  C   UNL     1       2.578   6.536  19.741  0.00  0.00    +0.000 C 
ATOM      2  O   UNL     1       2.314   6.174  20.892  0.00  0.00    +0.000 OA
ENDROOT
BRANCH   1   3
ATOM      3  C   UNL     1       3.407   5.592  18.893  0.00  0.00    +0.000 C 
ATOM      4  C   UNL     1       2.853   4.444  18.393  0.00  0.00    +0.000 C 
ATOM      5  C   UNL     1       1.390   4.035  18.645  0.00  0.00    +0.000 C 
ATOM      6  C   UNL     1       1.395   2.516  18.524  0.00  0.00    +0.000 C 
ATOM      7  C   UNL     1       2.519   2.214  17.551  0.00  0.00    +0.000 C 
ATOM      8  N   UNL     1       3.360   3.416  17.589  0.00  0.00    +0.000 N 
ATOM      9  C   UNL     1       4.577   3.353  16.799  0.00  0.00    +0.000 C 
BRANCH   3  10
ATOM     10  C   UNL     1       4.799   5.984  18.505  0.00  0.00    +0.000 C 
ATOM     11  C   UNL     1       5.960   5.405  19.281  0.00  0.00    +0.000 C 
ATOM     12  O   UNL     1       5.024   6.720  17.541  0.00  0.00    +0.000 OA
ENDBRANCH   3  10
ENDBRANCH   1   3
BRANCH   1  16
ATOM     13  C   UNL     1       1.333   9.981  19.070  0.00  0.00    +0.000 A 
ATOM     14  C   UNL     1       1.717   9.547  17.817  0.00  0.00    +0.000 A 
ATOM     15  C   UNL     1       2.089   8.202  17.936  0.00  0.00    +0.000 A 
ATOM     16  C   UNL     1       1.985   7.809  19.270  0.00  0.00    +0.000 A 
ATOM     17  N   UNL     1       1.283   8.846  19.877  0.00  0.00    +0.000 N 
ATOM     18  C   UNL     1       0.476   8.823  21.083  0.00  0.00    +0.000 C 
BRANCH  13  19
ATOM     19  C   UNL     1       0.946  11.320  19.480  0.00  0.00    +0.000 C 
ATOM     20  O   UNL     1       1.386  11.919  20.451  0.00  0.00    +0.000 OA
BRANCH  19  21
ATOM     21  O   UNL     1      -0.045  11.784  18.665  0.00  0.00    +0.000 OA
BRANCH  21  23
ATOM     22  C   UNL     1      -2.045  11.107  17.557  0.00  0.00    +0.000 C 
ATOM     23  C   UNL     1      -1.332  11.204  18.897  0.00  0.00    +0.000 C 
ENDBRANCH  21  23
ENDBRANCH  19  21
ENDBRANCH  13  19
ENDBRANCH   1  16
TORSDOF 6
ENDMDL
MODEL 9
REMARK VINA RESULT:      -6.3      3.271      7.059
REMARK  Name = 
REMARK  10 active torsions:
REMARK  status: ('A' for Active; 'I' for Inactive)
REMARK    1  A    between atoms: C_1  and  C_2
REMARK    2  A    between atoms: C_2  and  O_3
REMARK    3  A    between atoms: O_3  and  C_4
REMARK    4  A    between atoms: C_4  and  C_6
REMARK    5  A    between atoms: C_9  and  C_10
REMARK    6  A    between atoms: C_10  and  C_12
REMARK    7  A    between atoms: C_12  and  C_13
REMARK    8  A    between atoms: C_13  and  C_14
REMARK    9  A    between atoms: N_20  and  C_21
REMARK   10  A    between atoms: N_22  and  C_23
REMARK                            x       y       z     vdW  Elec       q    Type
REMARK                         _______ _______ _______ _____ _____    ______ ____
ROOT
ATOM      1  C   UNL     1       2.337   5.985  18.750  0.00  0.00    +0.000 C 
ATOM      2  O   UNL     1       1.860   5.841  17.620  0.00  0.00    +0.000 OA
ENDROOT
BRANCH   1   3
ATOM      3  C   UNL     1       3.254   4.891  19.259  0.00  0.00    +0.000 C 
ATOM      4  C   UNL     1       2.748   3.851  19.993  0.00  0.00    +0.000 C 
ATOM      5  C   UNL     1       1.255   3.716  20.346  0.00  0.00    +0.000 C 
ATOM      6  C   UNL     1       1.242   2.895  21.630  0.00  0.00    +0.000 C 
ATOM      7  C   UNL     1       2.483   2.026  21.541  0.00  0.00    +0.000 C 
ATOM      8  N   UNL     1       3.338   2.719  20.570  0.00  0.00    +0.000 N 
ATOM      9  C   UNL     1       4.650   2.134  20.363  0.00  0.00    +0.000 C 
BRANCH   3  10
ATOM     10  C   UNL     1       4.694   4.891  18.853  0.00  0.00    +0.000 C 
ATOM     11  C   UNL     1       5.062   4.372  17.481  0.00  0.00    +0.000 C 
ATOM     12  O   UNL     1       5.577   5.350  19.582  0.00  0.00    +0.000 OA
ENDBRANCH   3  10
ENDBRANCH   1   3
BRANCH   1  16
ATOM     13  C   UNL     1       1.176   9.258  20.094  0.00  0.00    +0.000 A 
ATOM     14  C   UNL     1       1.361   8.510  21.238  0.00  0.00    +0.000 A 
ATOM     15  C   UNL     1       1.923   7.286  20.851  0.00  0.00    +0.000 A 
ATOM     16  C   UNL     1       2.043   7.251  19.461  0.00  0.00    +0.000 A 
ATOM     17  N   UNL     1       1.812   8.565  19.067  0.00  0.00    +0.000 N 
ATOM     18  C   UNL     1       2.244   9.249  17.861  0.00  0.00    +0.000 C 
BRANCH  13  19
ATOM     19  C   UNL     1       0.546  10.561  19.963  0.00  0.00    +0.000 C 
ATOM     20  O   UNL     1       1.120  11.600  19.667  0.00  0.00    +0.000 OA
BRANCH  19  21
ATOM     21  O   UNL     1      -0.774  10.473  20.300  0.00  0.00    +0.000 OA
BRANCH  21  23
ATOM     22  C   UNL     1      -0.958  11.100  22.593  0.00  0.00    +0.000 C 
ATOM     23  C   UNL     1      -1.243  11.516  21.159  0.00  0.00    +0.000 C 
ENDBRANCH  21  23
ENDBRANCH  19  21
ENDBRANCH  13  19
ENDBRANCH   1  16
TORSDOF 6
ENDMDL
