MODEL 1
REMARK VINA RESULT:      -7.8      0.000      0.000
REMARK  Name = 
REMARK  5 active torsions:
REMARK  status: ('A' for Active; 'I' for Inactive)
REMARK    1  A    between atoms: C_1  and  N_2
REMARK    2  A    between atoms: N_2  and  C_3
REMARK    3  A    between atoms: N_2  and  C_4
REMARK    4  A    between atoms: C_7  and  C_8
REMARK    5  A    between atoms: C_9  and  C_10
REMARK                            x       y       z     vdW  Elec       q    Type
REMARK                         _______ _______ _______ _____ _____    ______ ____
ROOT
ATOM      1  C   UNL     1       1.910   8.159  18.700  0.00  0.00    +0.000 C 
ATOM      2  C   UNL     1       1.322   9.169  18.037  0.00  0.00    +0.000 C 
ENDROOT
BRANCH   2   3
ATOM      3  C   UNL     1       0.403  10.110  18.692  0.00  0.00    +0.000 A 
ATOM      4  C   UNL     1       0.878  10.807  19.806  0.00  0.00    +0.000 A 
ATOM      5  C   UNL     1       0.039  11.724  20.402  0.00  0.00    +0.000 A 
ATOM      6  N   UNL     1      -1.213  11.989  19.975  0.00  0.00    +0.000 NA
ATOM      7  C   UNL     1      -1.676  11.316  18.908  0.00  0.00    +0.000 A 
ATOM      8  C   UNL     1      -2.962  11.594  18.464  0.00  0.00    +0.000 A 
ATOM      9  C   UNL     1      -3.523  10.939  17.367  0.00  0.00    +0.000 A 
ATOM     10  C   UNL     1      -2.787   9.981  16.687  0.00  0.00    +0.000 A 
ATOM     11  C   UNL     1      -1.490   9.687  17.106  0.00  0.00    +0.000 A 
ATOM     12  C   UNL     1      -0.911  10.349  18.219  0.00  0.00    +0.000 A 
ENDBRANCH   2   3
BRANCH   1  16
ATOM     13  C   UNL     1       4.696   5.391  16.806  0.00  0.00    +0.000 A 
ATOM     14  C   UNL     1       4.848   6.793  16.752  0.00  0.00    +0.000 A 
ATOM     15  C   UNL     1       3.948   7.682  17.373  0.00  0.00    +0.000 A 
ATOM     16  C   UNL     1       2.840   7.204  18.072  0.00  0.00    +0.000 A 
ATOM     17  C   UNL     1       2.679   5.823  18.160  0.00  0.00    +0.000 A 
ATOM     18  C   UNL     1       3.572   4.931  17.530  0.00  0.00    +0.000 A 
ATOM     19 BR   UNL     1       3.045   3.097  17.622  0.00  0.00    +0.000 Br
BRANCH  13  21
ATOM     20  C   UNL     1       5.511   4.382  14.696  0.00  0.00    +0.000 C 
ATOM     21  N   UNL     1       5.605   4.539  16.149  0.00  0.00    +0.000 N 
ATOM     22  C   UNL     1       6.961   4.463  16.700  0.00  0.00    +0.000 C 
ENDBRANCH  13  21
ENDBRANCH   1  16
TORSDOF 3
ENDMDL
MODEL 2
REMARK VINA RESULT:      -7.8      2.588      8.213
REMARK  Name = 
REMARK  5 active torsions:
REMARK  status: ('A' for Active; 'I' for Inactive)
REMARK    1  A    between atoms: C_1  and  N_2
REMARK    2  A    between atoms: N_2  and  C_3
REMARK    3  A    between atoms: N_2  and  C_4
REMARK    4  A    between atoms: C_7  and  C_8
REMARK    5  A    between atoms: C_9  and  C_10
REMARK                            x       y       z     vdW  Elec       q    Type
REMARK                         _______ _______ _______ _____ _____    ______ ____
ROOT
ATOM      1  C   UNL     1       2.199   7.837  19.225  0.00  0.00    +0.000 C 
ATOM      2  C   UNL     1       2.468   7.385  17.988  0.00  0.00    +0.000 C 
ENDROOT
BRANCH   2   3
ATOM      3  C   UNL     1       3.411   6.286  17.740  0.00  0.00    +0.000 A 
ATOM      4  C   UNL     1       4.732   6.626  17.438  0.00  0.00    +0.000 A 
ATOM      5  C   UNL     1       5.636   5.602  17.247  0.00  0.00    +0.000 A 
ATOM      6  N   UNL     1       5.322   4.293  17.333  0.00  0.00    +0.000 NA
ATOM      7  C   UNL     1       4.051   3.963  17.618  0.00  0.00    +0.000 A 
ATOM      8  C   UNL     1       3.729   2.615  17.714  0.00  0.00    +0.000 A 
ATOM      9  C   UNL     1       2.434   2.183  18.001  0.00  0.00    +0.000 A 
ATOM     10  C   UNL     1       1.426   3.114  18.201  0.00  0.00    +0.000 A 
ATOM     11  C   UNL     1       1.722   4.475  18.117  0.00  0.00    +0.000 A 
ATOM     12  C   UNL     1       3.037   4.923  17.828  0.00  0.00    +0.000 A 
ENDBRANCH   2   3
BRANCH   1  16
ATOM     13  C   UNL     1      -0.585  11.105  19.983  0.00  0.00    +0.000 A 
ATOM     14  C   UNL     1      -0.018  10.855  18.714  0.00  0.00    +0.000 A 
ATOM     15  C   UNL     1       0.875   9.793  18.474  0.00  0.00    +0.000 A 
ATOM     16  C   UNL     1       1.254   8.932  19.504  0.00  0.00    +0.000 A 
ATOM     17  C   UNL     1       0.691   9.142  20.760  0.00  0.00    +0.000 A 
ATOM     18  C   UNL     1      -0.195  10.212  21.006  0.00  0.00    +0.000 A 
ATOM     19 BR   UNL     1      -0.686  10.420  22.841  0.00  0.00    +0.000 Br
BRANCH  13  21
ATOM     20  C   UNL     1      -0.887  13.530  20.388  0.00  0.00    +0.000 C 
ATOM     21  N   UNL     1      -1.454  12.195  20.184  0.00  0.00    +0.000 N 
ATOM     22  C   UNL     1      -2.737  12.162  19.476  0.00  0.00    +0.000 C 
ENDBRANCH  13  21
ENDBRANCH   1  16
TORSDOF 3
ENDMDL
MODEL 3
REMARK VINA RESULT:      -7.7      2.917      8.146
REMARK  Name = 
REMARK  5 active torsions:
REMARK  status: ('A' for Active; 'I' for Inactive)
REMARK    1  A    between atoms: C_1  and  N_2
REMARK    2  A    between atoms: N_2  and  C_3
REMARK    3  A    between atoms: N_2  and  C_4
REMARK    4  A    between atoms: C_7  and  C_8
REMARK    5  A    between atoms: C_9  and  C_10
REMARK                            x       y       z     vdW  Elec       q    Type
REMARK                         _______ _______ _______ _____ _____    ______ ____
ROOT
ATOM      1  C   UNL     1       2.041   8.081  18.247  0.00  0.00    +0.000 C 
ATOM      2  C   UNL     1       2.546   7.024  18.905  0.00  0.00    +0.000 C 
ENDROOT
BRANCH   2   3
ATOM      3  C   UNL     1       3.087   5.849  18.208  0.00  0.00    +0.000 A 
ATOM      4  C   UNL     1       4.184   6.047  17.367  0.00  0.00    +0.000 A 
ATOM      5  C   UNL     1       4.727   4.944  16.741  0.00  0.00    +0.000 A 
ATOM      6  N   UNL     1       4.263   3.687  16.893  0.00  0.00    +0.000 NA
ATOM      7  C   UNL     1       3.203   3.494  17.697  0.00  0.00    +0.000 A 
ATOM      8  C   UNL     1       2.730   2.198  17.858  0.00  0.00    +0.000 A 
ATOM      9  C   UNL     1       1.633   1.909  18.671  0.00  0.00    +0.000 A 
ATOM     10  C   UNL     1       0.986   2.933  19.345  0.00  0.00    +0.000 A 
ATOM     11  C   UNL     1       1.444   4.243  19.207  0.00  0.00    +0.000 A 
ATOM     12  C   UNL     1       2.561   4.546  18.385  0.00  0.00    +0.000 A 
ENDBRANCH   2   3
BRANCH   1  16
ATOM     13  C   UNL     1       0.464  11.656  20.183  0.00  0.00    +0.000 A 
ATOM     14  C   UNL     1       1.094  11.679  18.919  0.00  0.00    +0.000 A 
ATOM     15  C   UNL     1       1.594  10.519  18.297  0.00  0.00    +0.000 A 
ATOM     16  C   UNL     1       1.498   9.275  18.919  0.00  0.00    +0.000 A 
ATOM     17  C   UNL     1       0.860   9.221  20.156  0.00  0.00    +0.000 A 
ATOM     18  C   UNL     1       0.368  10.382  20.788  0.00  0.00    +0.000 A 
ATOM     19 BR   UNL     1      -0.290  10.094  22.558  0.00  0.00    +0.000 Br
BRANCH  13  21
ATOM     20  C   UNL     1       0.974  13.796  21.319  0.00  0.00    +0.000 C 
ATOM     21  N   UNL     1       0.001  12.843  20.781  0.00  0.00    +0.000 N 
ATOM     22  C   UNL     1      -1.214  13.441  20.220  0.00  0.00    +0.000 C 
ENDBRANCH  13  21
ENDBRANCH   1  16
TORSDOF 3
ENDMDL
MODEL 4
REMARK VINA RESULT:      -7.6      3.196      8.629
REMARK  Name = 
REMARK  5 active torsions:
REMARK  status: ('A' for Active; 'I' for Inactive)
REMARK    1  A    between atoms: C_1  and  N_2
REMARK    2  A    between atoms: N_2  and  C_3
REMARK    3  A    between atoms: N_2  and  C_4
REMARK    4  A    between atoms: C_7  and  C_8
REMARK    5  A    between atoms: C_9  and  C_10
REMARK                            x       y       z     vdW  Elec       q    Type
REMARK                         _______ _______ _______ _____ _____    ______ ____
ROOT
ATOM      1  C   UNL     1       1.238   7.542  21.021  0.00  0.00    +0.000 C 
ATOM      2  C   UNL     1       1.983   7.383  19.914  0.00  0.00    +0.000 C 
ENDROOT
BRANCH   2   3
ATOM      3  C   UNL     1       2.675   6.124  19.607  0.00  0.00    +0.000 A 
ATOM      4  C   UNL     1       2.427   5.031  20.440  0.00  0.00    +0.000 A 
ATOM      5  C   UNL     1       3.038   3.833  20.135  0.00  0.00    +0.000 A 
ATOM      6  N   UNL     1       3.861   3.653  19.082  0.00  0.00    +0.000 NA
ATOM      7  C   UNL     1       4.106   4.704  18.281  0.00  0.00    +0.000 A 
ATOM      8  C   UNL     1       4.947   4.517  17.191  0.00  0.00    +0.000 A 
ATOM      9  C   UNL     1       5.259   5.554  16.312  0.00  0.00    +0.000 A 
ATOM     10  C   UNL     1       4.721   6.815  16.516  0.00  0.00    +0.000 A 
ATOM     11  C   UNL     1       3.867   7.030  17.598  0.00  0.00    +0.000 A 
ATOM     12  C   UNL     1       3.543   5.981  18.496  0.00  0.00    +0.000 A 
ENDBRANCH   2   3
BRANCH   1  16
ATOM     13  C   UNL     1      -0.875  11.209  22.070  0.00  0.00    +0.000 A 
ATOM     14  C   UNL     1      -0.518  10.227  23.021  0.00  0.00    +0.000 A 
ATOM     15  C   UNL     1       0.171   9.048  22.675  0.00  0.00    +0.000 A 
ATOM     16  C   UNL     1       0.527   8.790  21.353  0.00  0.00    +0.000 A 
ATOM     17  C   UNL     1       0.208   9.753  20.399  0.00  0.00    +0.000 A 
ATOM     18  C   UNL     1      -0.493  10.929  20.739  0.00  0.00    +0.000 A 
ATOM     19 BR   UNL     1      -0.990  12.008  19.242  0.00  0.00    +0.000 Br
BRANCH  13  21
ATOM     20  C   UNL     1      -2.806  12.212  23.253  0.00  0.00    +0.000 C 
ATOM     21  N   UNL     1      -1.587  12.361  22.455  0.00  0.00    +0.000 N 
ATOM     22  C   UNL     1      -0.802  13.567  22.733  0.00  0.00    +0.000 C 
ENDBRANCH  13  21
ENDBRANCH   1  16
TORSDOF 3
ENDMDL
MODEL 5
REMARK VINA RESULT:      -7.6      2.915      8.277
REMARK  Name = 
REMARK  5 active torsions:
REMARK  status: ('A' for Active; 'I' for Inactive)
REMARK    1  A    between atoms: C_1  and  N_2
REMARK    2  A    between atoms: N_2  and  C_3
REMARK    3  A    between atoms: N_2  and  C_4
REMARK    4  A    between atoms: C_7  and  C_8
REMARK    5  A    between atoms: C_9  and  C_10
REMARK                            x       y       z     vdW  Elec       q    Type
REMARK                         _______ _______ _______ _____ _____    ______ ____
ROOT
ATOM      1  C   UNL     1       2.179   7.442  19.710  0.00  0.00    +0.000 C 
ATOM      2  C   UNL     1       2.510   7.333  18.412  0.00  0.00    +0.000 C 
ENDROOT
BRANCH   2   3
ATOM      3  C   UNL     1       3.293   6.203  17.892  0.00  0.00    +0.000 A 
ATOM      4  C   UNL     1       4.542   6.486  17.335  0.00  0.00    +0.000 A 
ATOM      5  C   UNL     1       5.304   5.429  16.884  0.00  0.00    +0.000 A 
ATOM      6  N   UNL     1       4.917   4.139  16.949  0.00  0.00    +0.000 NA
ATOM      7  C   UNL     1       3.713   3.863  17.479  0.00  0.00    +0.000 A 
ATOM      8  C   UNL     1       3.317   2.534  17.552  0.00  0.00    +0.000 A 
ATOM      9  C   UNL     1       2.083   2.159  18.084  0.00  0.00    +0.000 A 
ATOM     10  C   UNL     1       1.214   3.130  18.559  0.00  0.00    +0.000 A 
ATOM     11  C   UNL     1       1.589   4.472  18.504  0.00  0.00    +0.000 A 
ATOM     12  C   UNL     1       2.843   4.862  17.968  0.00  0.00    +0.000 A 
ENDBRANCH   2   3
BRANCH   1  16
ATOM     13  C   UNL     1      -0.151  10.718  21.398  0.00  0.00    +0.000 A 
ATOM     14  C   UNL     1       0.482   9.735  22.190  0.00  0.00    +0.000 A 
ATOM     15  C   UNL     1       1.239   8.684  21.638  0.00  0.00    +0.000 A 
ATOM     16  C   UNL     1       1.390   8.560  20.257  0.00  0.00    +0.000 A 
ATOM     17  C   UNL     1       0.795   9.530  19.454  0.00  0.00    +0.000 A 
ATOM     18  C   UNL     1       0.026  10.577  20.003  0.00  0.00    +0.000 A 
ATOM     19 BR   UNL     1      -0.851  11.671  18.705  0.00  0.00    +0.000 Br
BRANCH  13  21
ATOM     20  C   UNL     1      -1.785  11.409  23.126  0.00  0.00    +0.000 C 
ATOM     21  N   UNL     1      -0.921  11.737  21.990  0.00  0.00    +0.000 N 
ATOM     22  C   UNL     1      -0.337  13.082  22.017  0.00  0.00    +0.000 C 
ENDBRANCH  13  21
ENDBRANCH   1  16
TORSDOF 3
ENDMDL
MODEL 6
REMARK VINA RESULT:      -7.5      2.930      8.236
REMARK  Name = 
REMARK  5 active torsions:
REMARK  status: ('A' for Active; 'I' for Inactive)
REMARK    1  A    between atoms: C_1  and  N_2
REMARK    2  A    between atoms: N_2  and  C_3
REMARK    3  A    between atoms: N_2  and  C_4
REMARK    4  A    between atoms: C_7  and  C_8
REMARK    5  A    between atoms: C_9  and  C_10
REMARK                            x       y       z     vdW  Elec       q    Type
REMARK                         _______ _______ _______ _____ _____    ______ ____
ROOT
ATOM      1  C   UNL     1       2.350   8.425  17.816  0.00  0.00    +0.000 C 
ATOM      2  C   UNL     1       2.583   7.293  18.504  0.00  0.00    +0.000 C 
ENDROOT
BRANCH   2   3
ATOM      3  C   UNL     1       3.225   6.121  17.894  0.00  0.00    +0.000 A 
ATOM      4  C   UNL     1       4.360   6.342  17.110  0.00  0.00    +0.000 A 
ATOM      5  C   UNL     1       4.996   5.245  16.569  0.00  0.00    +0.000 A 
ATOM      6  N   UNL     1       4.589   3.972  16.751  0.00  0.00    +0.000 NA
ATOM      7  C   UNL     1       3.495   3.756  17.500  0.00  0.00    +0.000 A 
ATOM      8  C   UNL     1       3.080   2.445  17.693  0.00  0.00    +0.000 A 
ATOM      9  C   UNL     1       1.953   2.131  18.453  0.00  0.00    +0.000 A 
ATOM     10  C   UNL     1       1.214   3.146  19.040  0.00  0.00    +0.000 A 
ATOM     11  C   UNL     1       1.611   4.472  18.869  0.00  0.00    +0.000 A 
ATOM     12  C   UNL     1       2.758   4.800  18.100  0.00  0.00    +0.000 A 
ENDBRANCH   2   3
BRANCH   1  16
ATOM     13  C   UNL     1       0.410  11.912  19.573  0.00  0.00    +0.000 A 
ATOM     14  C   UNL     1      -0.048  10.592  19.776  0.00  0.00    +0.000 A 
ATOM     15  C   UNL     1       0.588   9.469  19.211  0.00  0.00    +0.000 A 
ATOM     16  C   UNL     1       1.714   9.617  18.402  0.00  0.00    +0.000 A 
ATOM     17  C   UNL     1       2.201  10.907  18.205  0.00  0.00    +0.000 A 
ATOM     18  C   UNL     1       1.559  12.035  18.759  0.00  0.00    +0.000 A 
ATOM     19 BR   UNL     1       2.288  13.709  18.197  0.00  0.00    +0.000 Br
BRANCH  13  21
ATOM     20  C   UNL     1      -1.725  13.100  19.978  0.00  0.00    +0.000 C 
ATOM     21  N   UNL     1      -0.272  13.008  20.136  0.00  0.00    +0.000 N 
ATOM     22  C   UNL     1       0.256  13.545  21.394  0.00  0.00    +0.000 C 
ENDBRANCH  13  21
ENDBRANCH   1  16
TORSDOF 3
ENDMDL
MODEL 7
REMARK VINA RESULT:      -7.5      2.527      8.208
REMARK  Name = 
REMARK  5 active torsions:
REMARK  status: ('A' for Active; 'I' for Inactive)
REMARK    1  A    between atoms: C_1  and  N_2
REMARK    2  A    between atoms: N_2  and  C_3
REMARK    3  A    between atoms: N_2  and  C_4
REMARK    4  A    between atoms: C_7  and  C_8
REMARK    5  A    between atoms: C_9  and  C_10
REMARK                            x       y       z     vdW  Elec       q    Type
REMARK                         _______ _______ _______ _____ _____    ______ ____
ROOT
ATOM      1  C   UNL     1       1.854   8.595  17.698  0.00  0.00    +0.000 C 
ATOM      2  C   UNL     1       2.349   7.583  18.431  0.00  0.00    +0.000 C 
ENDROOT
BRANCH   2   3
ATOM      3  C   UNL     1       3.223   6.551  17.857  0.00  0.00    +0.000 A 
ATOM      4  C   UNL     1       4.440   6.966  17.312  0.00  0.00    +0.000 A 
ATOM      5  C   UNL     1       5.288   6.002  16.810  0.00  0.00    +0.000 A 
ATOM      6  N   UNL     1       5.013   4.681  16.814  0.00  0.00    +0.000 NA
ATOM      7  C   UNL     1       3.840   4.278  17.333  0.00  0.00    +0.000 A 
ATOM      8  C   UNL     1       3.561   2.918  17.343  0.00  0.00    +0.000 A 
ATOM      9  C   UNL     1       2.366   2.413  17.859  0.00  0.00    +0.000 A 
ATOM     10  C   UNL     1       1.420   3.282  18.381  0.00  0.00    +0.000 A 
ATOM     11  C   UNL     1       1.678   4.652  18.389  0.00  0.00    +0.000 A 
ATOM     12  C   UNL     1       2.891   5.174  17.870  0.00  0.00    +0.000 A 
ENDBRANCH   2   3
BRANCH   1  16
ATOM     13  C   UNL     1      -0.679  11.723  19.373  0.00  0.00    +0.000 A 
ATOM     14  C   UNL     1       0.667  11.536  19.755  0.00  0.00    +0.000 A 
ATOM     15  C   UNL     1       1.482  10.528  19.204  0.00  0.00    +0.000 A 
ATOM     16  C   UNL     1       0.981   9.647  18.247  0.00  0.00    +0.000 A 
ATOM     17  C   UNL     1      -0.338   9.825  17.835  0.00  0.00    +0.000 A 
ATOM     18  C   UNL     1      -1.160  10.826  18.393  0.00  0.00    +0.000 A 
ATOM     19 BR   UNL     1      -2.981  10.757  17.819  0.00  0.00    +0.000 Br
BRANCH  13  21
ATOM     20  C   UNL     1      -2.175  12.432  21.215  0.00  0.00    +0.000 C 
ATOM     21  N   UNL     1      -1.466  12.728  19.968  0.00  0.00    +0.000 N 
ATOM     22  C   UNL     1      -0.998  14.110  19.829  0.00  0.00    +0.000 C 
ENDBRANCH  13  21
ENDBRANCH   1  16
TORSDOF 3
ENDMDL
MODEL 8
REMARK VINA RESULT:      -7.5      2.697      8.474
REMARK  Name = 
REMARK  5 active torsions:
REMARK  status: ('A' for Active; 'I' for Inactive)
REMARK    1  A    between atoms: C_1  and  N_2
REMARK    2  A    between atoms: N_2  and  C_3
REMARK    3  A    between atoms: N_2  and  C_4
REMARK    4  A    between atoms: C_7  and  C_8
REMARK    5  A    between atoms: C_9  and  C_10
REMARK                            x       y       z     vdW  Elec       q    Type
REMARK                         _______ _______ _______ _____ _____    ______ ____
ROOT
ATOM      1  C   UNL     1       2.245   7.237  19.440  0.00  0.00    +0.000 C 
ATOM      2  C   UNL     1       2.413   6.833  18.169  0.00  0.00    +0.000 C 
ENDROOT
BRANCH   2   3
ATOM      3  C   UNL     1       3.149   5.610  17.824  0.00  0.00    +0.000 A 
ATOM      4  C   UNL     1       2.442   4.406  17.836  0.00  0.00    +0.000 A 
ATOM      5  C   UNL     1       3.112   3.258  17.471  0.00  0.00    +0.000 A 
ATOM      6  N   UNL     1       4.410   3.227  17.103  0.00  0.00    +0.000 NA
ATOM      7  C   UNL     1       5.095   4.383  17.096  0.00  0.00    +0.000 A 
ATOM      8  C   UNL     1       6.429   4.352  16.710  0.00  0.00    +0.000 A 
ATOM      9  C   UNL     1       7.215   5.504  16.677  0.00  0.00    +0.000 A 
ATOM     10  C   UNL     1       6.664   6.725  17.037  0.00  0.00    +0.000 A 
ATOM     11  C   UNL     1       5.325   6.786  17.422  0.00  0.00    +0.000 A 
ATOM     12  C   UNL     1       4.517   5.620  17.455  0.00  0.00    +0.000 A 
ENDBRANCH   2   3
BRANCH   1  16
ATOM     13  C   UNL     1       0.085  10.875  20.494  0.00  0.00    +0.000 A 
ATOM     14  C   UNL     1       0.716  10.689  19.244  0.00  0.00    +0.000 A 
ATOM     15  C   UNL     1       1.406   9.508  18.908  0.00  0.00    +0.000 A 
ATOM     16  C   UNL     1       1.507   8.455  19.817  0.00  0.00    +0.000 A 
ATOM     17  C   UNL     1       0.872   8.604  21.048  0.00  0.00    +0.000 A 
ATOM     18  C   UNL     1       0.191   9.790  21.393  0.00  0.00    +0.000 A 
ATOM     19 BR   UNL     1      -0.431   9.842  23.198  0.00  0.00    +0.000 Br
BRANCH  13  21
ATOM     20  C   UNL     1       0.225  13.251  21.178  0.00  0.00    +0.000 C 
ATOM     21  N   UNL     1      -0.572  12.083  20.798  0.00  0.00    +0.000 N 
ATOM     22  C   UNL     1      -1.800  12.378  20.053  0.00  0.00    +0.000 C 
ENDBRANCH  13  21
ENDBRANCH   1  16
TORSDOF 3
ENDMDL
MODEL 9
REMARK VINA RESULT:      -7.4      2.523      3.529
REMARK  Name = 
REMARK  5 active torsions:
REMARK  status: ('A' for Active; 'I' for Inactive)
REMARK    1  A    between atoms: C_1  and  N_2
REMARK    2  A    between atoms: N_2  and  C_3
REMARK    3  A    between atoms: N_2  and  C_4
REMARK    4  A    between atoms: C_7  and  C_8
REMARK    5  A    between atoms: C_9  and  C_10
REMARK                            x       y       z     vdW  Elec       q    Type
REMARK                         _______ _______ _______ _____ _____    ______ ____
ROOT
ATOM      1  C   UNL     1       2.067   8.153  18.910  0.00  0.00    +0.000 C 
ATOM      2  C   UNL     1       1.385   8.670  19.947  0.00  0.00    +0.000 C 
ENDROOT
BRANCH   2   3
ATOM      3  C   UNL     1       0.894  10.054  19.953  0.00  0.00    +0.000 A 
ATOM      4  C   UNL     1       1.190  10.849  18.843  0.00  0.00    +0.000 A 
ATOM      5  C   UNL     1       0.697  12.136  18.819  0.00  0.00    +0.000 A 
ATOM      6  N   UNL     1      -0.055  12.675  19.801  0.00  0.00    +0.000 NA
ATOM      7  C   UNL     1      -0.337  11.915  20.873  0.00  0.00    +0.000 A 
ATOM      8  C   UNL     1      -1.117  12.466  21.882  0.00  0.00    +0.000 A 
ATOM      9  C   UNL     1      -1.454  11.750  23.030  0.00  0.00    +0.000 A 
ATOM     10  C   UNL     1      -1.007  10.447  23.185  0.00  0.00    +0.000 A 
ATOM     11  C   UNL     1      -0.228   9.865  22.185  0.00  0.00    +0.000 A 
ATOM     12  C   UNL     1       0.118  10.585  21.013  0.00  0.00    +0.000 A 
ENDBRANCH   2   3
BRANCH   1  16
ATOM     13  C   UNL     1       3.520   4.043  18.871  0.00  0.00    +0.000 A 
ATOM     14  C   UNL     1       2.691   4.556  19.892  0.00  0.00    +0.000 A 
ATOM     15  C   UNL     1       2.219   5.884  19.894  0.00  0.00    +0.000 A 
ATOM     16  C   UNL     1       2.567   6.768  18.874  0.00  0.00    +0.000 A 
ATOM     17  C   UNL     1       3.365   6.279  17.842  0.00  0.00    +0.000 A 
ATOM     18  C   UNL     1       3.849   4.955  17.842  0.00  0.00    +0.000 A 
ATOM     19 BR   UNL     1       5.079   4.567  16.433  0.00  0.00    +0.000 Br
BRANCH  13  21
ATOM     20  C   UNL     1       4.520   2.196  20.183  0.00  0.00    +0.000 C 
ATOM     21  N   UNL     1       3.991   2.716  18.921  0.00  0.00    +0.000 N 
ATOM     22  C   UNL     1       3.301   1.733  18.080  0.00  0.00    +0.000 C 
ENDBRANCH  13  21
ENDBRANCH   1  16
TORSDOF 3
ENDMDL
