MODEL 1
REMARK VINA RESULT:      -8.0      0.000      0.000
REMARK  Name = 
REMARK  11 active torsions:
REMARK  status: ('A' for Active; 'I' for Inactive)
REMARK    1  A    between atoms: C_1  and  C_2
REMARK    2  A    between atoms: C_2  and  C_4
REMARK    3  A    between atoms: C_7  and  O_8
REMARK    4  A    between atoms: O_8  and  C_9
REMARK    5  A    between atoms: C_9  and  C_10
REMARK    6  A    between atoms: C_10  and  O_11
REMARK    7  A    between atoms: C_10  and  C_12
REMARK    8  A    between atoms: C_12  and  N_13
REMARK    9  A    between atoms: N_16  and  C_17
REMARK   10  A    between atoms: C_21  and  C_22
REMARK   11  A    between atoms: C_23  and  C_24
REMARK                            x       y       z     vdW  Elec       q    Type
REMARK                         _______ _______ _______ _____ _____    ______ ____
ROOT
ATOM      1  C   UNL     1       2.463   2.453  19.340  0.00  0.00    +0.000 C 
ENDROOT
BRANCH   1   2
ATOM      2  N   UNL     1       1.246   3.298  19.393  0.00  0.00    +0.000 NA
ATOM      3  C   UNL     1       1.113   4.078  20.652  0.00  0.00    +0.000 C 
ATOM      4  C   UNL     1       2.210   5.145  20.866  0.00  0.00    +0.000 C 
ATOM      5  N   UNL     1       2.230   6.100  19.735  0.00  0.00    +0.000 N 
ATOM      6  C   UNL     1       2.270   5.447  18.412  0.00  0.00    +0.000 C 
ATOM      7  C   UNL     1       1.255   4.282  18.286  0.00  0.00    +0.000 C 
BRANCH   5   8
ATOM      8  C   UNL     1       1.732   7.396  19.889  0.00  0.00    +0.000 A 
ATOM      9  C   UNL     1       1.059   7.755  21.077  0.00  0.00    +0.000 A 
ATOM     10  C   UNL     1       0.621   9.054  21.337  0.00  0.00    +0.000 A 
ATOM     11  C   UNL     1       0.823  10.047  20.397  0.00  0.00    +0.000 A 
ATOM     12  C   UNL     1       1.461   9.752  19.185  0.00  0.00    +0.000 A 
ATOM     13  C   UNL     1       1.645  10.880  18.203  0.00  0.00    +0.000 C 
ATOM     14  C   UNL     1       1.932   8.430  18.926  0.00  0.00    +0.000 A 
ATOM     15  C   UNL     1       2.689   8.171  17.641  0.00  0.00    +0.000 C 
ENDBRANCH   5   8
ENDBRANCH   1   2
BRANCH   1  16
ATOM     16  C   UNL     1       3.548   2.804  20.375  0.00  0.00    +0.000 C 
BRANCH  16  17
ATOM     17  O   UNL     1       3.395   1.986  21.546  0.00  0.00    +0.000 OA
ATOM     18  H   UNL     1       2.847   1.223  21.281  0.00  0.00    +0.000 HD
ENDBRANCH  16  17
BRANCH  16  19
ATOM     19  C   UNL     1       4.962   2.700  19.785  0.00  0.00    +0.000 C 
BRANCH  19  20
ATOM     20  O   UNL     1       5.335   4.018  19.375  0.00  0.00    +0.000 OA
BRANCH  20  24
ATOM     21  C   UNL     1       6.599   4.550  15.446  0.00  0.00    +0.000 A 
ATOM     22  C   UNL     1       7.413   4.861  16.539  0.00  0.00    +0.000 A 
ATOM     23  C   UNL     1       6.939   4.664  17.837  0.00  0.00    +0.000 A 
ATOM     24  C   UNL     1       5.654   4.179  18.058  0.00  0.00    +0.000 A 
ATOM     25  C   UNL     1       4.838   3.856  16.973  0.00  0.00    +0.000 A 
ATOM     26  C   UNL     1       5.312   4.041  15.669  0.00  0.00    +0.000 A 
BRANCH  21  28
ATOM     27  C   UNL     1       6.454   3.896  12.956  0.00  0.00    +0.000 C 
ATOM     28  C   UNL     1       7.067   4.741  14.042  0.00  0.00    +0.000 C 
ATOM     29  O   UNL     1       7.932   5.578  13.791  0.00  0.00    +0.000 OA
ENDBRANCH  21  28
ENDBRANCH  20  24
ENDBRANCH  19  20
ENDBRANCH  16  19
ENDBRANCH   1  16
TORSDOF 8
ENDMDL
MODEL 2
REMARK VINA RESULT:      -7.9      4.353      7.428
REMARK  Name = 
REMARK  11 active torsions:
REMARK  status: ('A' for Active; 'I' for Inactive)
REMARK    1  A    between atoms: C_1  and  C_2
REMARK    2  A    between atoms: C_2  and  C_4
REMARK    3  A    between atoms: C_7  and  O_8
REMARK    4  A    between atoms: O_8  and  C_9
REMARK    5  A    between atoms: C_9  and  C_10
REMARK    6  A    between atoms: C_10  and  O_11
REMARK    7  A    between atoms: C_10  and  C_12
REMARK    8  A    between atoms: C_12  and  N_13
REMARK    9  A    between atoms: N_16  and  C_17
REMARK   10  A    between atoms: C_21  and  C_22
REMARK   11  A    between atoms: C_23  and  C_24
REMARK                            x       y       z     vdW  Elec       q    Type
REMARK                         _______ _______ _______ _____ _____    ______ ____
ROOT
ATOM      1  C   UNL     1       1.065  10.392  19.522  0.00  0.00    +0.000 C 
ENDROOT
BRANCH   1   2
ATOM      2  N   UNL     1      -0.333  10.226  19.987  0.00  0.00    +0.000 NA
ATOM      3  C   UNL     1      -0.455  10.007  21.452  0.00  0.00    +0.000 C 
ATOM      4  C   UNL     1      -0.007  11.205  22.321  0.00  0.00    +0.000 C 
ATOM      5  N   UNL     1      -0.784  12.416  21.972  0.00  0.00    +0.000 N 
ATOM      6  C   UNL     1      -0.818  12.697  20.523  0.00  0.00    +0.000 C 
ATOM      7  C   UNL     1      -1.125  11.437  19.673  0.00  0.00    +0.000 C 
BRANCH   5   8
ATOM      8  C   UNL     1      -1.779  12.894  22.827  0.00  0.00    +0.000 A 
ATOM      9  C   UNL     1      -2.895  12.084  23.131  0.00  0.00    +0.000 A 
ATOM     10  C   UNL     1      -3.875  12.458  24.050  0.00  0.00    +0.000 A 
ATOM     11  C   UNL     1      -3.786  13.682  24.688  0.00  0.00    +0.000 A 
ATOM     12  C   UNL     1      -2.718  14.546  24.411  0.00  0.00    +0.000 A 
ATOM     13  C   UNL     1      -2.684  15.866  25.138  0.00  0.00    +0.000 C 
ATOM     14  C   UNL     1      -1.701  14.155  23.490  0.00  0.00    +0.000 A 
ATOM     15  C   UNL     1      -0.521  15.080  23.280  0.00  0.00    +0.000 C 
ENDBRANCH   5   8
ENDBRANCH   1   2
BRANCH   1  16
ATOM     16  C   UNL     1       1.275  10.215  18.006  0.00  0.00    +0.000 C 
BRANCH  16  17
ATOM     17  O   UNL     1       2.179  11.216  17.514  0.00  0.00    +0.000 OA
ATOM     18  H   UNL     1       2.143  11.167  16.540  0.00  0.00    +0.000 HD
ENDBRANCH  16  17
BRANCH  16  19
ATOM     19  C   UNL     1       1.743   8.796  17.651  0.00  0.00    +0.000 C 
BRANCH  19  20
ATOM     20  O   UNL     1       2.395   8.275  18.811  0.00  0.00    +0.000 OA
BRANCH  20  24
ATOM     21  C   UNL     1       1.830   4.274  19.803  0.00  0.00    +0.000 A 
ATOM     22  C   UNL     1       1.759   5.294  20.756  0.00  0.00    +0.000 A 
ATOM     23  C   UNL     1       1.957   6.621  20.370  0.00  0.00    +0.000 A 
ATOM     24  C   UNL     1       2.246   6.940  19.047  0.00  0.00    +0.000 A 
ATOM     25  C   UNL     1       2.309   5.928  18.086  0.00  0.00    +0.000 A 
ATOM     26  C   UNL     1       2.100   4.597  18.467  0.00  0.00    +0.000 A 
BRANCH  21  28
ATOM     27  C   UNL     1       1.735   1.796  19.095  0.00  0.00    +0.000 C 
ATOM     28  C   UNL     1       1.621   2.843  20.173  0.00  0.00    +0.000 C 
ATOM     29  O   UNL     1       1.366   2.539  21.336  0.00  0.00    +0.000 OA
ENDBRANCH  21  28
ENDBRANCH  20  24
ENDBRANCH  19  20
ENDBRANCH  16  19
ENDBRANCH   1  16
TORSDOF 8
ENDMDL
MODEL 3
REMARK VINA RESULT:      -7.8      5.730      7.969
REMARK  Name = 
REMARK  11 active torsions:
REMARK  status: ('A' for Active; 'I' for Inactive)
REMARK    1  A    between atoms: C_1  and  C_2
REMARK    2  A    between atoms: C_2  and  C_4
REMARK    3  A    between atoms: C_7  and  O_8
REMARK    4  A    between atoms: O_8  and  C_9
REMARK    5  A    between atoms: C_9  and  C_10
REMARK    6  A    between atoms: C_10  and  O_11
REMARK    7  A    between atoms: C_10  and  C_12
REMARK    8  A    between atoms: C_12  and  N_13
REMARK    9  A    between atoms: N_16  and  C_17
REMARK   10  A    between atoms: C_21  and  C_22
REMARK   11  A    between atoms: C_23  and  C_24
REMARK                            x       y       z     vdW  Elec       q    Type
REMARK                         _______ _______ _______ _____ _____    ______ ____
ROOT
ATOM      1  C   UNL     1       7.643   6.990  16.914  0.00  0.00    +0.000 C 
ENDROOT
BRANCH   1   2
ATOM      2  N   UNL     1       7.552   5.532  17.170  0.00  0.00    +0.000 NA
ATOM      3  C   UNL     1       6.946   5.192  18.484  0.00  0.00    +0.000 C 
ATOM      4  C   UNL     1       5.462   5.600  18.633  0.00  0.00    +0.000 C 
ATOM      5  N   UNL     1       4.643   4.969  17.574  0.00  0.00    +0.000 N 
ATOM      6  C   UNL     1       5.190   5.157  16.215  0.00  0.00    +0.000 C 
ATOM      7  C   UNL     1       6.714   4.881  16.137  0.00  0.00    +0.000 C 
BRANCH   5   8
ATOM      8  C   UNL     1       3.794   3.902  17.872  0.00  0.00    +0.000 A 
ATOM      9  C   UNL     1       4.276   2.577  17.805  0.00  0.00    +0.000 A 
ATOM     10  C   UNL     1       3.513   1.472  18.182  0.00  0.00    +0.000 A 
ATOM     11  C   UNL     1       2.215   1.653  18.622  0.00  0.00    +0.000 A 
ATOM     12  C   UNL     1       1.665   2.940  18.688  0.00  0.00    +0.000 A 
ATOM     13  C   UNL     1       0.244   3.065  19.173  0.00  0.00    +0.000 C 
ATOM     14  C   UNL     1       2.451   4.074  18.326  0.00  0.00    +0.000 A 
ATOM     15  C   UNL     1       1.849   5.453  18.489  0.00  0.00    +0.000 C 
ENDBRANCH   5   8
ENDBRANCH   1   2
BRANCH   1  16
ATOM     16  C   UNL     1       7.792   7.866  18.172  0.00  0.00    +0.000 C 
BRANCH  16  17
ATOM     17  O   UNL     1       8.754   7.285  19.066  0.00  0.00    +0.000 OA
ATOM     18  H   UNL     1       9.634   7.500  18.703  0.00  0.00    +0.000 HD
ENDBRANCH  16  17
BRANCH  16  19
ATOM     19  C   UNL     1       8.140   9.321  17.823  0.00  0.00    +0.000 C 
BRANCH  19  20
ATOM     20  O   UNL     1       8.986   9.804  18.868  0.00  0.00    +0.000 OA
BRANCH  20  24
ATOM     21  C   UNL     1      10.630  13.620  18.633  0.00  0.00    +0.000 A 
ATOM     22  C   UNL     1      11.143  12.639  19.488  0.00  0.00    +0.000 A 
ATOM     23  C   UNL     1      10.552  11.375  19.529  0.00  0.00    +0.000 A 
ATOM     24  C   UNL     1       9.444  11.083  18.741  0.00  0.00    +0.000 A 
ATOM     25  C   UNL     1       8.931  12.052  17.876  0.00  0.00    +0.000 A 
ATOM     26  C   UNL     1       9.527  13.318  17.823  0.00  0.00    +0.000 A 
BRANCH  21  28
ATOM     27  C   UNL     1      10.480  16.139  19.160  0.00  0.00    +0.000 C 
ATOM     28  C   UNL     1      11.233  14.982  18.556  0.00  0.00    +0.000 C 
ATOM     29  O   UNL     1      12.324  15.142  18.013  0.00  0.00    +0.000 OA
ENDBRANCH  21  28
ENDBRANCH  20  24
ENDBRANCH  19  20
ENDBRANCH  16  19
ENDBRANCH   1  16
TORSDOF 8
ENDMDL
MODEL 4
REMARK VINA RESULT:      -7.7      4.308      7.253
REMARK  Name = 
REMARK  11 active torsions:
REMARK  status: ('A' for Active; 'I' for Inactive)
REMARK    1  A    between atoms: C_1  and  C_2
REMARK    2  A    between atoms: C_2  and  C_4
REMARK    3  A    between atoms: C_7  and  O_8
REMARK    4  A    between atoms: O_8  and  C_9
REMARK    5  A    between atoms: C_9  and  C_10
REMARK    6  A    between atoms: C_10  and  O_11
REMARK    7  A    between atoms: C_10  and  C_12
REMARK    8  A    between atoms: C_12  and  N_13
REMARK    9  A    between atoms: N_16  and  C_17
REMARK   10  A    between atoms: C_21  and  C_22
REMARK   11  A    between atoms: C_23  and  C_24
REMARK                            x       y       z     vdW  Elec       q    Type
REMARK                         _______ _______ _______ _____ _____    ______ ____
ROOT
ATOM      1  C   UNL     1       0.999  10.086  19.676  0.00  0.00    +0.000 C 
ENDROOT
BRANCH   1   2
ATOM      2  N   UNL     1      -0.418  10.016  20.108  0.00  0.00    +0.000 NA
ATOM      3  C   UNL     1      -0.589   9.824  21.572  0.00  0.00    +0.000 C 
ATOM      4  C   UNL     1      -0.086  11.002  22.438  0.00  0.00    +0.000 C 
ATOM      5  N   UNL     1      -0.775  12.255  22.056  0.00  0.00    +0.000 N 
ATOM      6  C   UNL     1      -0.757  12.519  20.603  0.00  0.00    +0.000 C 
ATOM      7  C   UNL     1      -1.123  11.271  19.761  0.00  0.00    +0.000 C 
BRANCH   5   8
ATOM      8  C   UNL     1      -1.758  12.807  22.881  0.00  0.00    +0.000 A 
ATOM      9  C   UNL     1      -2.888  12.040  23.240  0.00  0.00    +0.000 A 
ATOM     10  C   UNL     1      -3.857  12.492  24.136  0.00  0.00    +0.000 A 
ATOM     11  C   UNL     1      -3.742  13.752  24.692  0.00  0.00    +0.000 A 
ATOM     12  C   UNL     1      -2.660  14.576  24.357  0.00  0.00    +0.000 A 
ATOM     13  C   UNL     1      -2.599  15.939  24.995  0.00  0.00    +0.000 C 
ATOM     14  C   UNL     1      -1.654  14.107  23.460  0.00  0.00    +0.000 A 
ATOM     15  C   UNL     1      -0.458  14.994  23.187  0.00  0.00    +0.000 C 
ENDBRANCH   5   8
ENDBRANCH   1   2
BRANCH   1  16
ATOM     16  C   UNL     1       1.219  10.052  18.151  0.00  0.00    +0.000 C 
BRANCH  16  17
ATOM     17  O   UNL     1       2.224  11.008  17.777  0.00  0.00    +0.000 OA
ATOM     18  H   UNL     1       1.749  11.810  17.488  0.00  0.00    +0.000 HD
ENDBRANCH  16  17
BRANCH  16  19
ATOM     19  C   UNL     1       1.556   8.640  17.650  0.00  0.00    +0.000 C 
BRANCH  19  20
ATOM     20  O   UNL     1       2.729   8.223  18.352  0.00  0.00    +0.000 OA
BRANCH  20  24
ATOM     21  C   UNL     1       2.813   4.418  20.035  0.00  0.00    +0.000 A 
ATOM     22  C   UNL     1       3.576   4.753  18.912  0.00  0.00    +0.000 A 
ATOM     23  C   UNL     1       3.510   6.044  18.387  0.00  0.00    +0.000 A 
ATOM     24  C   UNL     1       2.676   7.001  18.956  0.00  0.00    +0.000 A 
ATOM     25  C   UNL     1       1.918   6.679  20.084  0.00  0.00    +0.000 A 
ATOM     26  C   UNL     1       1.989   5.388  20.622  0.00  0.00    +0.000 A 
BRANCH  21  28
ATOM     27  C   UNL     1       1.755   2.639  21.573  0.00  0.00    +0.000 C 
ATOM     28  C   UNL     1       2.857   3.051  20.631  0.00  0.00    +0.000 C 
ATOM     29  O   UNL     1       3.776   2.285  20.347  0.00  0.00    +0.000 OA
ENDBRANCH  21  28
ENDBRANCH  20  24
ENDBRANCH  19  20
ENDBRANCH  16  19
ENDBRANCH   1  16
TORSDOF 8
ENDMDL
MODEL 5
REMARK VINA RESULT:      -7.6      4.344      7.195
REMARK  Name = 
REMARK  11 active torsions:
REMARK  status: ('A' for Active; 'I' for Inactive)
REMARK    1  A    between atoms: C_1  and  C_2
REMARK    2  A    between atoms: C_2  and  C_4
REMARK    3  A    between atoms: C_7  and  O_8
REMARK    4  A    between atoms: O_8  and  C_9
REMARK    5  A    between atoms: C_9  and  C_10
REMARK    6  A    between atoms: C_10  and  O_11
REMARK    7  A    between atoms: C_10  and  C_12
REMARK    8  A    between atoms: C_12  and  N_13
REMARK    9  A    between atoms: N_16  and  C_17
REMARK   10  A    between atoms: C_21  and  C_22
REMARK   11  A    between atoms: C_23  and  C_24
REMARK                            x       y       z     vdW  Elec       q    Type
REMARK                         _______ _______ _______ _____ _____    ______ ____
ROOT
ATOM      1  C   UNL     1       0.515  10.107  19.084  0.00  0.00    +0.000 C 
ENDROOT
BRANCH   1   2
ATOM      2  N   UNL     1       0.900  11.246  19.951  0.00  0.00    +0.000 NA
ATOM      3  C   UNL     1       0.106  12.478  19.708  0.00  0.00    +0.000 C 
ATOM      4  C   UNL     1      -1.396  12.355  20.052  0.00  0.00    +0.000 C 
ATOM      5  N   UNL     1      -1.572  11.968  21.471  0.00  0.00    +0.000 N 
ATOM      6  C   UNL     1      -0.760  10.801  21.869  0.00  0.00    +0.000 C 
ATOM      7  C   UNL     1       0.707  10.893  21.377  0.00  0.00    +0.000 C 
BRANCH   5   8
ATOM      8  C   UNL     1      -2.012  12.900  22.412  0.00  0.00    +0.000 A 
ATOM      9  C   UNL     1      -1.076  13.578  23.224  0.00  0.00    +0.000 A 
ATOM     10  C   UNL     1      -1.437  14.588  24.115  0.00  0.00    +0.000 A 
ATOM     11  C   UNL     1      -2.766  14.945  24.246  0.00  0.00    +0.000 A 
ATOM     12  C   UNL     1      -3.750  14.295  23.489  0.00  0.00    +0.000 A 
ATOM     13  C   UNL     1      -5.179  14.730  23.684  0.00  0.00    +0.000 C 
ATOM     14  C   UNL     1      -3.381  13.277  22.559  0.00  0.00    +0.000 A 
ATOM     15  C   UNL     1      -4.462  12.656  21.701  0.00  0.00    +0.000 C 
ENDBRANCH   5   8
ENDBRANCH   1   2
BRANCH   1  16
ATOM     16  C   UNL     1       1.400   9.906  17.839  0.00  0.00    +0.000 C 
BRANCH  16  17
ATOM     17  O   UNL     1       2.370  10.961  17.749  0.00  0.00    +0.000 OA
ATOM     18  H   UNL     1       3.105  10.616  17.208  0.00  0.00    +0.000 HD
ENDBRANCH  16  17
BRANCH  16  19
ATOM     19  C   UNL     1       2.058   8.519  17.817  0.00  0.00    +0.000 C 
BRANCH  19  20
ATOM     20  O   UNL     1       2.051   8.039  19.164  0.00  0.00    +0.000 OA
BRANCH  20  24
ATOM     21  C   UNL     1       3.220   4.058  19.480  0.00  0.00    +0.000 A 
ATOM     22  C   UNL     1       3.511   4.832  18.353  0.00  0.00    +0.000 A 
ATOM     23  C   UNL     1       3.094   6.163  18.298  0.00  0.00    +0.000 A 
ATOM     24  C   UNL     1       2.373   6.726  19.346  0.00  0.00    +0.000 A 
ATOM     25  C   UNL     1       2.086   5.964  20.480  0.00  0.00    +0.000 A 
ATOM     26  C   UNL     1       2.511   4.631  20.545  0.00  0.00    +0.000 A 
BRANCH  21  28
ATOM     27  C   UNL     1       3.484   1.742  18.378  0.00  0.00    +0.000 C 
ATOM     28  C   UNL     1       3.649   2.633  19.582  0.00  0.00    +0.000 C 
ATOM     29  O   UNL     1       4.132   2.209  20.630  0.00  0.00    +0.000 OA
ENDBRANCH  21  28
ENDBRANCH  20  24
ENDBRANCH  19  20
ENDBRANCH  16  19
ENDBRANCH   1  16
TORSDOF 8
ENDMDL
MODEL 6
REMARK VINA RESULT:      -7.6      5.741      7.872
REMARK  Name = 
REMARK  11 active torsions:
REMARK  status: ('A' for Active; 'I' for Inactive)
REMARK    1  A    between atoms: C_1  and  C_2
REMARK    2  A    between atoms: C_2  and  C_4
REMARK    3  A    between atoms: C_7  and  O_8
REMARK    4  A    between atoms: O_8  and  C_9
REMARK    5  A    between atoms: C_9  and  C_10
REMARK    6  A    between atoms: C_10  and  O_11
REMARK    7  A    between atoms: C_10  and  C_12
REMARK    8  A    between atoms: C_12  and  N_13
REMARK    9  A    between atoms: N_16  and  C_17
REMARK   10  A    between atoms: C_21  and  C_22
REMARK   11  A    between atoms: C_23  and  C_24
REMARK                            x       y       z     vdW  Elec       q    Type
REMARK                         _______ _______ _______ _____ _____    ______ ____
ROOT
ATOM      1  C   UNL     1       7.547   7.042  16.866  0.00  0.00    +0.000 C 
ENDROOT
BRANCH   1   2
ATOM      2  N   UNL     1       6.154   6.851  16.398  0.00  0.00    +0.000 NA
ATOM      3  C   UNL     1       5.872   5.480  15.898  0.00  0.00    +0.000 C 
ATOM      4  C   UNL     1       5.965   4.372  16.972  0.00  0.00    +0.000 C 
ATOM      5  N   UNL     1       5.034   4.654  18.088  0.00  0.00    +0.000 N 
ATOM      6  C   UNL     1       5.149   6.026  18.620  0.00  0.00    +0.000 C 
ATOM      7  C   UNL     1       5.202   7.101  17.505  0.00  0.00    +0.000 C 
BRANCH   5   8
ATOM      8  C   UNL     1       3.858   3.915  18.237  0.00  0.00    +0.000 A 
ATOM      9  C   UNL     1       3.625   2.789  17.418  0.00  0.00    +0.000 A 
ATOM     10  C   UNL     1       2.522   1.951  17.577  0.00  0.00    +0.000 A 
ATOM     11  C   UNL     1       1.587   2.227  18.558  0.00  0.00    +0.000 A 
ATOM     12  C   UNL     1       1.744   3.344  19.389  0.00  0.00    +0.000 A 
ATOM     13  C   UNL     1       0.686   3.588  20.434  0.00  0.00    +0.000 C 
ATOM     14  C   UNL     1       2.885   4.189  19.244  0.00  0.00    +0.000 A 
ATOM     15  C   UNL     1       3.060   5.338  20.213  0.00  0.00    +0.000 C 
ENDBRANCH   5   8
ENDBRANCH   1   2
BRANCH   1  16
ATOM     16  C   UNL     1       7.699   7.911  18.129  0.00  0.00    +0.000 C 
BRANCH  16  17
ATOM     17  O   UNL     1       8.588   7.275  19.061  0.00  0.00    +0.000 OA
ATOM     18  H   UNL     1       8.025   6.786  19.689  0.00  0.00    +0.000 HD
ENDBRANCH  16  17
BRANCH  16  19
ATOM     19  C   UNL     1       8.148   9.341  17.793  0.00  0.00    +0.000 C 
BRANCH  19  20
ATOM     20  O   UNL     1       9.040   9.748  18.834  0.00  0.00    +0.000 OA
BRANCH  20  24
ATOM     21  C   UNL     1      10.718  13.517  18.297  0.00  0.00    +0.000 A 
ATOM     22  C   UNL     1      11.106  12.413  17.532  0.00  0.00    +0.000 A 
ATOM     23  C   UNL     1      10.511  11.171  17.754  0.00  0.00    +0.000 A 
ATOM     24  C   UNL     1       9.547  11.010  18.744  0.00  0.00    +0.000 A 
ATOM     25  C   UNL     1       9.146  12.109  19.506  0.00  0.00    +0.000 A 
ATOM     26  C   UNL     1       9.731  13.361  19.280  0.00  0.00    +0.000 A 
BRANCH  21  28
ATOM     27  C   UNL     1      12.044  15.516  19.243  0.00  0.00    +0.000 C 
ATOM     28  C   UNL     1      11.325  14.864  18.090  0.00  0.00    +0.000 C 
ATOM     29  O   UNL     1      11.237  15.417  16.995  0.00  0.00    +0.000 OA
ENDBRANCH  21  28
ENDBRANCH  20  24
ENDBRANCH  19  20
ENDBRANCH  16  19
ENDBRANCH   1  16
TORSDOF 8
ENDMDL
MODEL 7
REMARK VINA RESULT:      -7.5      0.971      1.111
REMARK  Name = 
REMARK  11 active torsions:
REMARK  status: ('A' for Active; 'I' for Inactive)
REMARK    1  A    between atoms: C_1  and  C_2
REMARK    2  A    between atoms: C_2  and  C_4
REMARK    3  A    between atoms: C_7  and  O_8
REMARK    4  A    between atoms: O_8  and  C_9
REMARK    5  A    between atoms: C_9  and  C_10
REMARK    6  A    between atoms: C_10  and  O_11
REMARK    7  A    between atoms: C_10  and  C_12
REMARK    8  A    between atoms: C_12  and  N_13
REMARK    9  A    between atoms: N_16  and  C_17
REMARK   10  A    between atoms: C_21  and  C_22
REMARK   11  A    between atoms: C_23  and  C_24
REMARK                            x       y       z     vdW  Elec       q    Type
REMARK                         _______ _______ _______ _____ _____    ______ ____
ROOT
ATOM      1  C   UNL     1       2.612   2.072  19.941  0.00  0.00    +0.000 C 
ENDROOT
BRANCH   1   2
ATOM      2  N   UNL     1       1.687   2.957  20.688  0.00  0.00    +0.000 NA
ATOM      3  C   UNL     1       2.373   4.030  21.455  0.00  0.00    +0.000 C 
ATOM      4  C   UNL     1       3.118   5.068  20.584  0.00  0.00    +0.000 C 
ATOM      5  N   UNL     1       2.183   5.710  19.632  0.00  0.00    +0.000 N 
ATOM      6  C   UNL     1       1.369   4.747  18.865  0.00  0.00    +0.000 C 
ATOM      7  C   UNL     1       0.758   3.634  19.754  0.00  0.00    +0.000 C 
BRANCH   5   8
ATOM      8  C   UNL     1       1.755   7.024  19.834  0.00  0.00    +0.000 A 
ATOM      9  C   UNL     1       1.119   7.381  21.043  0.00  0.00    +0.000 A 
ATOM     10  C   UNL     1       0.754   8.691  21.349  0.00  0.00    +0.000 A 
ATOM     11  C   UNL     1       0.992   9.701  20.435  0.00  0.00    +0.000 A 
ATOM     12  C   UNL     1       1.596   9.412  19.204  0.00  0.00    +0.000 A 
ATOM     13  C   UNL     1       1.823  10.558  18.254  0.00  0.00    +0.000 C 
ATOM     14  C   UNL     1       1.994   8.076  18.898  0.00  0.00    +0.000 A 
ATOM     15  C   UNL     1       2.716   7.817  17.594  0.00  0.00    +0.000 C 
ENDBRANCH   5   8
ENDBRANCH   1   2
BRANCH   1  16
ATOM     16  C   UNL     1       4.004   2.670  19.661  0.00  0.00    +0.000 C 
BRANCH  16  17
ATOM     17  O   UNL     1       5.028   1.760  20.094  0.00  0.00    +0.000 OA
ATOM     18  H   UNL     1       5.872   2.245  20.034  0.00  0.00    +0.000 HD
ENDBRANCH  16  17
BRANCH  16  19
ATOM     19  C   UNL     1       4.175   3.064  18.186  0.00  0.00    +0.000 C 
BRANCH  19  20
ATOM     20  O   UNL     1       5.337   3.894  18.114  0.00  0.00    +0.000 OA
BRANCH  20  24
ATOM     21  C   UNL     1       7.068   4.792  14.438  0.00  0.00    +0.000 A 
ATOM     22  C   UNL     1       7.663   5.156  15.650  0.00  0.00    +0.000 A 
ATOM     23  C   UNL     1       7.038   4.831  16.855  0.00  0.00    +0.000 A 
ATOM     24  C   UNL     1       5.817   4.164  16.866  0.00  0.00    +0.000 A 
ATOM     25  C   UNL     1       5.221   3.788  15.661  0.00  0.00    +0.000 A 
ATOM     26  C   UNL     1       5.848   4.101  14.450  0.00  0.00    +0.000 A 
BRANCH  21  28
ATOM     27  C   UNL     1       7.211   4.405  11.893  0.00  0.00    +0.000 C 
ATOM     28  C   UNL     1       7.702   5.116  13.127  0.00  0.00    +0.000 C 
ATOM     29  O   UNL     1       8.602   5.952  13.069  0.00  0.00    +0.000 OA
ENDBRANCH  21  28
ENDBRANCH  20  24
ENDBRANCH  19  20
ENDBRANCH  16  19
ENDBRANCH   1  16
TORSDOF 8
ENDMDL
MODEL 8
REMARK VINA RESULT:      -7.5      4.561      7.127
REMARK  Name = 
REMARK  11 active torsions:
REMARK  status: ('A' for Active; 'I' for Inactive)
REMARK    1  A    between atoms: C_1  and  C_2
REMARK    2  A    between atoms: C_2  and  C_4
REMARK    3  A    between atoms: C_7  and  O_8
REMARK    4  A    between atoms: O_8  and  C_9
REMARK    5  A    between atoms: C_9  and  C_10
REMARK    6  A    between atoms: C_10  and  O_11
REMARK    7  A    between atoms: C_10  and  C_12
REMARK    8  A    between atoms: C_12  and  N_13
REMARK    9  A    between atoms: N_16  and  C_17
REMARK   10  A    between atoms: C_21  and  C_22
REMARK   11  A    between atoms: C_23  and  C_24
REMARK                            x       y       z     vdW  Elec       q    Type
REMARK                         _______ _______ _______ _____ _____    ______ ____
ROOT
ATOM      1  C   UNL     1       0.766  10.718  19.389  0.00  0.00    +0.000 C 
ENDROOT
BRANCH   1   2
ATOM      2  N   UNL     1      -0.589  10.431  19.917  0.00  0.00    +0.000 NA
ATOM      3  C   UNL     1      -0.663  10.420  21.402  0.00  0.00    +0.000 C 
ATOM      4  C   UNL     1      -0.382  11.786  22.070  0.00  0.00    +0.000 C 
ATOM      5  N   UNL     1      -1.327  12.810  21.570  0.00  0.00    +0.000 N 
ATOM      6  C   UNL     1      -1.417  12.862  20.098  0.00  0.00    +0.000 C 
ATOM      7  C   UNL     1      -1.550  11.458  19.454  0.00  0.00    +0.000 C 
BRANCH   5   8
ATOM      8  C   UNL     1      -2.372  13.267  22.377  0.00  0.00    +0.000 A 
ATOM      9  C   UNL     1      -3.615  12.598  22.368  0.00  0.00    +0.000 A 
ATOM     10  C   UNL     1      -4.666  12.941  23.217  0.00  0.00    +0.000 A 
ATOM     11  C   UNL     1      -4.520  13.994  24.100  0.00  0.00    +0.000 A 
ATOM     12  C   UNL     1      -3.321  14.719  24.142  0.00  0.00    +0.000 A 
ATOM     13  C   UNL     1      -3.230  15.857  25.124  0.00  0.00    +0.000 C 
ATOM     14  C   UNL     1      -2.234  14.355  23.292  0.00  0.00    +0.000 A 
ATOM     15  C   UNL     1      -0.929  15.109  23.424  0.00  0.00    +0.000 C 
ENDBRANCH   5   8
ENDBRANCH   1   2
BRANCH   1  16
ATOM     16  C   UNL     1       1.266   9.740  18.309  0.00  0.00    +0.000 C 
BRANCH  16  17
ATOM     17  O   UNL     1       2.066  10.440  17.343  0.00  0.00    +0.000 OA
ATOM     18  H   UNL     1       1.711  10.202  16.466  0.00  0.00    +0.000 HD
ENDBRANCH  16  17
BRANCH  16  19
ATOM     19  C   UNL     1       2.017   8.546  18.917  0.00  0.00    +0.000 C 
BRANCH  19  20
ATOM     20  O   UNL     1       2.495   7.760  17.823  0.00  0.00    +0.000 OA
BRANCH  20  24
ATOM     21  C   UNL     1       3.716   3.915  18.843  0.00  0.00    +0.000 A 
ATOM     22  C   UNL     1       2.476   4.430  19.233  0.00  0.00    +0.000 A 
ATOM     23  C   UNL     1       2.116   5.727  18.865  0.00  0.00    +0.000 A 
ATOM     24  C   UNL     1       2.987   6.524  18.129  0.00  0.00    +0.000 A 
ATOM     25  C   UNL     1       4.223   6.014  17.726  0.00  0.00    +0.000 A 
ATOM     26  C   UNL     1       4.584   4.710  18.083  0.00  0.00    +0.000 A 
BRANCH  21  28
ATOM     27  C   UNL     1       3.552   1.371  18.450  0.00  0.00    +0.000 C 
ATOM     28  C   UNL     1       4.138   2.532  19.212  0.00  0.00    +0.000 C 
ATOM     29  O   UNL     1       4.952   2.358  20.117  0.00  0.00    +0.000 OA
ENDBRANCH  21  28
ENDBRANCH  20  24
ENDBRANCH  19  20
ENDBRANCH  16  19
ENDBRANCH   1  16
TORSDOF 8
ENDMDL
MODEL 9
REMARK VINA RESULT:      -7.5      2.139      2.749
REMARK  Name = 
REMARK  11 active torsions:
REMARK  status: ('A' for Active; 'I' for Inactive)
REMARK    1  A    between atoms: C_1  and  C_2
REMARK    2  A    between atoms: C_2  and  C_4
REMARK    3  A    between atoms: C_7  and  O_8
REMARK    4  A    between atoms: O_8  and  C_9
REMARK    5  A    between atoms: C_9  and  C_10
REMARK    6  A    between atoms: C_10  and  O_11
REMARK    7  A    between atoms: C_10  and  C_12
REMARK    8  A    between atoms: C_12  and  N_13
REMARK    9  A    between atoms: N_16  and  C_17
REMARK   10  A    between atoms: C_21  and  C_22
REMARK   11  A    between atoms: C_23  and  C_24
REMARK                            x       y       z     vdW  Elec       q    Type
REMARK                         _______ _______ _______ _____ _____    ______ ____
ROOT
ATOM      1  C   UNL     1       3.243   3.639  19.005  0.00  0.00    +0.000 C 
ENDROOT
BRANCH   1   2
ATOM      2  N   UNL     1       1.887   4.235  18.948  0.00  0.00    +0.000 NA
ATOM      3  C   UNL     1       1.381   4.700  20.265  0.00  0.00    +0.000 C 
ATOM      4  C   UNL     1       2.179   5.871  20.884  0.00  0.00    +0.000 C 
ATOM      5  N   UNL     1       2.195   7.030  19.963  0.00  0.00    +0.000 N 
ATOM      6  C   UNL     1       2.596   6.683  18.585  0.00  0.00    +0.000 C 
ATOM      7  C   UNL     1       1.883   5.414  18.052  0.00  0.00    +0.000 C 
BRANCH   5   8
ATOM      8  C   UNL     1       1.420   8.161  20.229  0.00  0.00    +0.000 A 
ATOM      9  C   UNL     1       0.818   8.320  21.496  0.00  0.00    +0.000 A 
ATOM     10  C   UNL     1       0.113   9.467  21.862  0.00  0.00    +0.000 A 
ATOM     11  C   UNL     1      -0.038  10.498  20.953  0.00  0.00    +0.000 A 
ATOM     12  C   UNL     1       0.511  10.393  19.668  0.00  0.00    +0.000 A 
ATOM     13  C   UNL     1       0.305  11.551  18.726  0.00  0.00    +0.000 C 
ATOM     14  C   UNL     1       1.254   9.231  19.300  0.00  0.00    +0.000 A 
ATOM     15  C   UNL     1       1.900   9.191  17.932  0.00  0.00    +0.000 C 
ENDBRANCH   5   8
ENDBRANCH   1   2
BRANCH   1  16
ATOM     16  C   UNL     1       3.567   2.641  17.877  0.00  0.00    +0.000 C 
BRANCH  16  17
ATOM     17  O   UNL     1       2.458   1.751  17.672  0.00  0.00    +0.000 OA
ATOM     18  H   UNL     1       2.471   1.507  16.728  0.00  0.00    +0.000 HD
ENDBRANCH  16  17
BRANCH  16  19
ATOM     19  C   UNL     1       3.977   3.354  16.579  0.00  0.00    +0.000 C 
BRANCH  19  20
ATOM     20  O   UNL     1       5.405   3.413  16.575  0.00  0.00    +0.000 OA
BRANCH  20  24
ATOM     21  C   UNL     1       7.358   6.892  17.757  0.00  0.00    +0.000 A 
ATOM     22  C   UNL     1       7.784   5.624  18.164  0.00  0.00    +0.000 A 
ATOM     23  C   UNL     1       7.092   4.489  17.739  0.00  0.00    +0.000 A 
ATOM     24  C   UNL     1       5.967   4.605  16.929  0.00  0.00    +0.000 A 
ATOM     25  C   UNL     1       5.540   5.866  16.510  0.00  0.00    +0.000 A 
ATOM     26  C   UNL     1       6.238   7.007  16.924  0.00  0.00    +0.000 A 
BRANCH  21  28
ATOM     27  C   UNL     1       7.736   9.430  17.498  0.00  0.00    +0.000 C 
ATOM     28  C   UNL     1       8.072   8.131  18.185  0.00  0.00    +0.000 C 
ATOM     29  O   UNL     1       8.909   8.080  19.083  0.00  0.00    +0.000 OA
ENDBRANCH  21  28
ENDBRANCH  20  24
ENDBRANCH  19  20
ENDBRANCH  16  19
ENDBRANCH   1  16
TORSDOF 8
ENDMDL
