MODEL 1
REMARK VINA RESULT:      -7.8      0.000      0.000
REMARK  Name = 
REMARK  10 active torsions:
REMARK  status: ('A' for Active; 'I' for Inactive)
REMARK    1  A    between atoms: C_1  and  C_2
REMARK    2  A    between atoms: C_2  and  C_4
REMARK    3  A    between atoms: C_7  and  O_8
REMARK    4  A    between atoms: O_8  and  C_9
REMARK    5  A    between atoms: C_9  and  C_10
REMARK    6  A    between atoms: C_10  and  C_11
REMARK    7  A    between atoms: C_11  and  N_12
REMARK    8  A    between atoms: N_15  and  C_16
REMARK    9  A    between atoms: C_16  and  C_17
REMARK   10  A    between atoms: C_26  and  O_27
REMARK                            x       y       z     vdW  Elec       q    Type
REMARK                         _______ _______ _______ _____ _____    ______ ____
ROOT
ATOM      1  C   UNL     1       7.887   7.881  18.410  0.00  0.00    +0.000 C 
ENDROOT
BRANCH   1   2
ATOM      2  C   UNL     1       8.111   9.306  17.904  0.00  0.00    +0.000 C 
BRANCH   2   3
ATOM      3  O   UNL     1       9.211   9.796  18.689  0.00  0.00    +0.000 OA
BRANCH   3   7
ATOM      4  C   UNL     1      10.681  13.662  18.136  0.00  0.00    +0.000 A 
ATOM      5  C   UNL     1       9.569  13.471  18.973  0.00  0.00    +0.000 A 
ATOM      6  C   UNL     1       9.023  12.195  19.177  0.00  0.00    +0.000 A 
ATOM      7  C   UNL     1       9.604  11.093  18.562  0.00  0.00    +0.000 A 
ATOM      8  C   UNL     1      10.711  11.276  17.722  0.00  0.00    +0.000 A 
ATOM      9  C   UNL     1      11.244  12.551  17.503  0.00  0.00    +0.000 A 
BRANCH   4  11
ATOM     10  C   UNL     1      12.202  15.571  19.014  0.00  0.00    +0.000 C 
ATOM     11  C   UNL     1      11.207  15.051  18.009  0.00  0.00    +0.000 C 
ATOM     12  O   UNL     1      10.850  15.737  17.052  0.00  0.00    +0.000 OA
ENDBRANCH   4  11
BRANCH   9  13
ATOM     13  O   UNL     1      12.333  12.678  16.688  0.00  0.00    +0.000 OA
ATOM     14  H   UNL     1      13.037  13.159  17.155  0.00  0.00    +0.000 HD
ENDBRANCH   9  13
ENDBRANCH   3   7
ENDBRANCH   2   3
ENDBRANCH   1   2
BRANCH   1  15
ATOM     15  C   UNL     1       7.521   6.815  17.372  0.00  0.00    +0.000 C 
BRANCH  15  16
ATOM     16  N   UNL     1       7.319   5.444  17.872  0.00  0.00    +0.000 NA
ATOM     17  C   UNL     1       6.308   5.344  18.943  0.00  0.00    +0.000 C 
ATOM     18  C   UNL     1       4.844   5.534  18.471  0.00  0.00    +0.000 C 
ATOM     19  N   UNL     1       4.426   4.581  17.416  0.00  0.00    +0.000 NA
ATOM     20  C   UNL     1       5.423   4.628  16.325  0.00  0.00    +0.000 C 
ATOM     21  C   UNL     1       6.912   4.534  16.763  0.00  0.00    +0.000 C 
BRANCH  19  22
ATOM     22  C   UNL     1       4.249   3.244  18.013  0.00  0.00    +0.000 C 
BRANCH  22  23
ATOM     23  C   UNL     1       3.182   3.135  19.077  0.00  0.00    +0.000 A 
ATOM     24  C   UNL     1       1.829   3.173  18.706  0.00  0.00    +0.000 A 
ATOM     25  C   UNL     1       0.827   3.042  19.665  0.00  0.00    +0.000 A 
ATOM     26  C   UNL     1       1.168   2.868  21.005  0.00  0.00    +0.000 A 
ATOM     27  C   UNL     1       2.509   2.823  21.388  0.00  0.00    +0.000 A 
ATOM     28  C   UNL     1       3.514   2.954  20.426  0.00  0.00    +0.000 A 
ENDBRANCH  22  23
ENDBRANCH  19  22
ENDBRANCH  15  16
ENDBRANCH   1  15
TORSDOF 9
ENDMDL
MODEL 2
REMARK VINA RESULT:      -7.8      1.337      1.741
REMARK  Name = 
REMARK  10 active torsions:
REMARK  status: ('A' for Active; 'I' for Inactive)
REMARK    1  A    between atoms: C_1  and  C_2
REMARK    2  A    between atoms: C_2  and  C_4
REMARK    3  A    between atoms: C_7  and  O_8
REMARK    4  A    between atoms: O_8  and  C_9
REMARK    5  A    between atoms: C_9  and  C_10
REMARK    6  A    between atoms: C_10  and  C_11
REMARK    7  A    between atoms: C_11  and  N_12
REMARK    8  A    between atoms: N_15  and  C_16
REMARK    9  A    between atoms: C_16  and  C_17
REMARK   10  A    between atoms: C_26  and  O_27
REMARK                            x       y       z     vdW  Elec       q    Type
REMARK                         _______ _______ _______ _____ _____    ______ ____
ROOT
ATOM      1  C   UNL     1       8.035   7.410  18.115  0.00  0.00    +0.000 C 
ENDROOT
BRANCH   1   2
ATOM      2  C   UNL     1       7.949   8.916  17.867  0.00  0.00    +0.000 C 
BRANCH   2   3
ATOM      3  O   UNL     1       8.948   9.480  18.732  0.00  0.00    +0.000 OA
BRANCH   3   7
ATOM      4  C   UNL     1      10.304  13.419  18.498  0.00  0.00    +0.000 A 
ATOM      5  C   UNL     1       9.153  13.052  17.780  0.00  0.00    +0.000 A 
ATOM      6  C   UNL     1       8.667  11.737  17.809  0.00  0.00    +0.000 A 
ATOM      7  C   UNL     1       9.317  10.780  18.579  0.00  0.00    +0.000 A 
ATOM      8  C   UNL     1      10.468  11.138  19.294  0.00  0.00    +0.000 A 
ATOM      9  C   UNL     1      10.965  12.444  19.251  0.00  0.00    +0.000 A 
BRANCH   4  11
ATOM     10  C   UNL     1       9.679  15.932  18.346  0.00  0.00    +0.000 C 
ATOM     11  C   UNL     1      10.723  14.847  18.429  0.00  0.00    +0.000 C 
ATOM     12  O   UNL     1      11.921  15.120  18.489  0.00  0.00    +0.000 OA
ENDBRANCH   4  11
BRANCH   9  13
ATOM     13  O   UNL     1      12.082  12.749  19.977  0.00  0.00    +0.000 OA
ATOM     14  H   UNL     1      12.857  12.775  19.390  0.00  0.00    +0.000 HD
ENDBRANCH   9  13
ENDBRANCH   3   7
ENDBRANCH   2   3
ENDBRANCH   1   2
BRANCH   1  15
ATOM     15  C   UNL     1       7.265   6.493  17.159  0.00  0.00    +0.000 C 
BRANCH  15  16
ATOM     16  N   UNL     1       5.794   6.542  17.232  0.00  0.00    +0.000 NA
ATOM     17  C   UNL     1       5.121   5.966  16.052  0.00  0.00    +0.000 C 
ATOM     18  C   UNL     1       5.200   4.422  15.952  0.00  0.00    +0.000 C 
ATOM     19  N   UNL     1       4.648   3.714  17.130  0.00  0.00    +0.000 NA
ATOM     20  C   UNL     1       5.279   4.274  18.346  0.00  0.00    +0.000 C 
ATOM     21  C   UNL     1       5.304   5.825  18.443  0.00  0.00    +0.000 C 
BRANCH  19  22
ATOM     22  C   UNL     1       3.177   3.819  17.114  0.00  0.00    +0.000 C 
BRANCH  22  23
ATOM     23  C   UNL     1       2.488   3.605  18.441  0.00  0.00    +0.000 A 
ATOM     24  C   UNL     1       1.902   4.698  19.099  0.00  0.00    +0.000 A 
ATOM     25  C   UNL     1       1.233   4.521  20.309  0.00  0.00    +0.000 A 
ATOM     26  C   UNL     1       1.140   3.248  20.870  0.00  0.00    +0.000 A 
ATOM     27  C   UNL     1       1.712   2.153  20.224  0.00  0.00    +0.000 A 
ATOM     28  C   UNL     1       2.383   2.330  19.010  0.00  0.00    +0.000 A 
ENDBRANCH  22  23
ENDBRANCH  19  22
ENDBRANCH  15  16
ENDBRANCH   1  15
TORSDOF 9
ENDMDL
MODEL 3
REMARK VINA RESULT:      -7.6      1.658      2.203
REMARK  Name = 
REMARK  10 active torsions:
REMARK  status: ('A' for Active; 'I' for Inactive)
REMARK    1  A    between atoms: C_1  and  C_2
REMARK    2  A    between atoms: C_2  and  C_4
REMARK    3  A    between atoms: C_7  and  O_8
REMARK    4  A    between atoms: O_8  and  C_9
REMARK    5  A    between atoms: C_9  and  C_10
REMARK    6  A    between atoms: C_10  and  C_11
REMARK    7  A    between atoms: C_11  and  N_12
REMARK    8  A    between atoms: N_15  and  C_16
REMARK    9  A    between atoms: C_16  and  C_17
REMARK   10  A    between atoms: C_26  and  O_27
REMARK                            x       y       z     vdW  Elec       q    Type
REMARK                         _______ _______ _______ _____ _____    ______ ____
ROOT
ATOM      1  C   UNL     1       7.981   7.284  18.233  0.00  0.00    +0.000 C 
ENDROOT
BRANCH   1   2
ATOM      2  C   UNL     1       8.312   8.735  17.884  0.00  0.00    +0.000 C 
BRANCH   2   3
ATOM      3  O   UNL     1       9.040   9.220  19.024  0.00  0.00    +0.000 OA
BRANCH   3   7
ATOM      4  C   UNL     1       9.849  13.265  19.654  0.00  0.00    +0.000 A 
ATOM      5  C   UNL     1       9.842  12.770  18.339  0.00  0.00    +0.000 A 
ATOM      6  C   UNL     1       9.596  11.415  18.074  0.00  0.00    +0.000 A 
ATOM      7  C   UNL     1       9.329  10.546  19.124  0.00  0.00    +0.000 A 
ATOM      8  C   UNL     1       9.338  11.032  20.440  0.00  0.00    +0.000 A 
ATOM      9  C   UNL     1       9.603  12.379  20.706  0.00  0.00    +0.000 A 
BRANCH   4  11
ATOM     10  C   UNL     1      11.453  15.217  20.242  0.00  0.00    +0.000 C 
ATOM     11  C   UNL     1      10.089  14.725  19.830  0.00  0.00    +0.000 C 
ATOM     12  O   UNL     1       9.174  15.512  19.591  0.00  0.00    +0.000 OA
ENDBRANCH   4  11
BRANCH   9  13
ATOM     13  O   UNL     1       9.586  12.809  22.004  0.00  0.00    +0.000 OA
ATOM     14  H   UNL     1      10.465  12.683  22.401  0.00  0.00    +0.000 HD
ENDBRANCH   9  13
ENDBRANCH   3   7
ENDBRANCH   2   3
ENDBRANCH   1   2
BRANCH   1  15
ATOM     15  C   UNL     1       7.203   6.469  17.193  0.00  0.00    +0.000 C 
BRANCH  15  16
ATOM     16  N   UNL     1       5.733   6.512  17.280  0.00  0.00    +0.000 NA
ATOM     17  C   UNL     1       5.052   5.928  16.108  0.00  0.00    +0.000 C 
ATOM     18  C   UNL     1       5.138   4.384  16.012  0.00  0.00    +0.000 C 
ATOM     19  N   UNL     1       4.600   3.678  17.198  0.00  0.00    +0.000 NA
ATOM     20  C   UNL     1       5.240   4.244  18.406  0.00  0.00    +0.000 C 
ATOM     21  C   UNL     1       5.258   5.796  18.498  0.00  0.00    +0.000 C 
BRANCH  19  22
ATOM     22  C   UNL     1       3.129   3.775  17.195  0.00  0.00    +0.000 C 
BRANCH  22  23
ATOM     23  C   UNL     1       2.453   3.568  18.530  0.00  0.00    +0.000 A 
ATOM     24  C   UNL     1       1.841   4.656  19.171  0.00  0.00    +0.000 A 
ATOM     25  C   UNL     1       1.184   4.484  20.388  0.00  0.00    +0.000 A 
ATOM     26  C   UNL     1       1.130   3.220  20.974  0.00  0.00    +0.000 A 
ATOM     27  C   UNL     1       1.728   2.129  20.345  0.00  0.00    +0.000 A 
ATOM     28  C   UNL     1       2.387   2.301  19.124  0.00  0.00    +0.000 A 
ENDBRANCH  22  23
ENDBRANCH  19  22
ENDBRANCH  15  16
ENDBRANCH   1  15
TORSDOF 9
ENDMDL
MODEL 4
REMARK VINA RESULT:      -7.5      1.619      2.178
REMARK  Name = 
REMARK  10 active torsions:
REMARK  status: ('A' for Active; 'I' for Inactive)
REMARK    1  A    between atoms: C_1  and  C_2
REMARK    2  A    between atoms: C_2  and  C_4
REMARK    3  A    between atoms: C_7  and  O_8
REMARK    4  A    between atoms: O_8  and  C_9
REMARK    5  A    between atoms: C_9  and  C_10
REMARK    6  A    between atoms: C_10  and  C_11
REMARK    7  A    between atoms: C_11  and  N_12
REMARK    8  A    between atoms: N_15  and  C_16
REMARK    9  A    between atoms: C_16  and  C_17
REMARK   10  A    between atoms: C_26  and  O_27
REMARK                            x       y       z     vdW  Elec       q    Type
REMARK                         _______ _______ _______ _____ _____    ______ ____
ROOT
ATOM      1  C   UNL     1       7.204   8.057  17.754  0.00  0.00    +0.000 C 
ENDROOT
BRANCH   1   2
ATOM      2  C   UNL     1       8.501   8.555  18.392  0.00  0.00    +0.000 C 
BRANCH   2   3
ATOM      3  O   UNL     1       8.821   9.753  17.666  0.00  0.00    +0.000 OA
BRANCH   3   7
ATOM      4  C   UNL     1       9.847  13.036  20.028  0.00  0.00    +0.000 A 
ATOM      5  C   UNL     1       9.719  13.211  18.640  0.00  0.00    +0.000 A 
ATOM      6  C   UNL     1       9.396  12.136  17.799  0.00  0.00    +0.000 A 
ATOM      7  C   UNL     1       9.172  10.879  18.344  0.00  0.00    +0.000 A 
ATOM      8  C   UNL     1       9.302  10.695  19.728  0.00  0.00    +0.000 A 
ATOM      9  C   UNL     1       9.644  11.762  20.566  0.00  0.00    +0.000 A 
BRANCH   4  11
ATOM     10  C   UNL     1      11.188  15.233  20.350  0.00  0.00    +0.000 C 
ATOM     11  C   UNL     1      10.161  14.245  20.841  0.00  0.00    +0.000 C 
ATOM     12  O   UNL     1       9.537  14.440  21.884  0.00  0.00    +0.000 OA
ENDBRANCH   4  11
BRANCH   9  13
ATOM     13  O   UNL     1       9.744  11.538  21.910  0.00  0.00    +0.000 OA
ATOM     14  H   UNL     1      10.652  11.269  22.130  0.00  0.00    +0.000 HD
ENDBRANCH   9  13
ENDBRANCH   3   7
ENDBRANCH   2   3
ENDBRANCH   1   2
BRANCH   1  15
ATOM     15  C   UNL     1       7.278   6.779  16.912  0.00  0.00    +0.000 C 
BRANCH  15  16
ATOM     16  N   UNL     1       7.179   5.500  17.637  0.00  0.00    +0.000 NA
ATOM     17  C   UNL     1       6.151   5.495  18.696  0.00  0.00    +0.000 C 
ATOM     18  C   UNL     1       4.690   5.470  18.178  0.00  0.00    +0.000 C 
ATOM     19  N   UNL     1       4.385   4.319  17.297  0.00  0.00    +0.000 NA
ATOM     20  C   UNL     1       5.405   4.267  16.228  0.00  0.00    +0.000 C 
ATOM     21  C   UNL     1       6.884   4.383  16.696  0.00  0.00    +0.000 C 
BRANCH  19  22
ATOM     22  C   UNL     1       4.306   3.093  18.113  0.00  0.00    +0.000 C 
BRANCH  22  23
ATOM     23  C   UNL     1       3.173   3.038  19.111  0.00  0.00    +0.000 A 
ATOM     24  C   UNL     1       3.456   2.811  20.467  0.00  0.00    +0.000 A 
ATOM     25  C   UNL     1       2.431   2.788  21.411  0.00  0.00    +0.000 A 
ATOM     26  C   UNL     1       1.113   2.995  21.008  0.00  0.00    +0.000 A 
ATOM     27  C   UNL     1       0.817   3.227  19.665  0.00  0.00    +0.000 A 
ATOM     28  C   UNL     1       1.846   3.250  18.718  0.00  0.00    +0.000 A 
ENDBRANCH  22  23
ENDBRANCH  19  22
ENDBRANCH  15  16
ENDBRANCH   1  15
TORSDOF 9
ENDMDL
MODEL 5
REMARK VINA RESULT:      -7.5      1.362      1.644
REMARK  Name = 
REMARK  10 active torsions:
REMARK  status: ('A' for Active; 'I' for Inactive)
REMARK    1  A    between atoms: C_1  and  C_2
REMARK    2  A    between atoms: C_2  and  C_4
REMARK    3  A    between atoms: C_7  and  O_8
REMARK    4  A    between atoms: O_8  and  C_9
REMARK    5  A    between atoms: C_9  and  C_10
REMARK    6  A    between atoms: C_10  and  C_11
REMARK    7  A    between atoms: C_11  and  N_12
REMARK    8  A    between atoms: N_15  and  C_16
REMARK    9  A    between atoms: C_16  and  C_17
REMARK   10  A    between atoms: C_26  and  O_27
REMARK                            x       y       z     vdW  Elec       q    Type
REMARK                         _______ _______ _______ _____ _____    ______ ____
ROOT
ATOM      1  C   UNL     1       7.965   7.801  17.376  0.00  0.00    +0.000 C 
ENDROOT
BRANCH   1   2
ATOM      2  C   UNL     1       7.847   9.165  18.056  0.00  0.00    +0.000 C 
BRANCH   2   3
ATOM      3  O   UNL     1       9.200   9.524  18.377  0.00  0.00    +0.000 OA
BRANCH   3   7
ATOM      4  C   UNL     1      10.039  13.167  20.230  0.00  0.00    +0.000 A 
ATOM      5  C   UNL     1       9.774  12.043  21.030  0.00  0.00    +0.000 A 
ATOM      6  C   UNL     1       9.467  10.800  20.457  0.00  0.00    +0.000 A 
ATOM      7  C   UNL     1       9.447  10.666  19.075  0.00  0.00    +0.000 A 
ATOM      8  C   UNL     1       9.706  11.784  18.270  0.00  0.00    +0.000 A 
ATOM      9  C   UNL     1       9.993  13.029  18.840  0.00  0.00    +0.000 A 
BRANCH   4  11
ATOM     10  C   UNL     1       9.710  14.783  22.233  0.00  0.00    +0.000 C 
ATOM     11  C   UNL     1      10.387  14.435  20.932  0.00  0.00    +0.000 C 
ATOM     12  O   UNL     1      11.261  15.159  20.456  0.00  0.00    +0.000 OA
ENDBRANCH   4  11
BRANCH   9  13
ATOM     13  O   UNL     1      10.254  14.086  18.015  0.00  0.00    +0.000 OA
ATOM     14  H   UNL     1      10.914  13.827  17.349  0.00  0.00    +0.000 HD
ENDBRANCH   9  13
ENDBRANCH   3   7
ENDBRANCH   2   3
ENDBRANCH   1   2
BRANCH   1  15
ATOM     15  C   UNL     1       6.677   6.990  17.195  0.00  0.00    +0.000 C 
BRANCH  15  16
ATOM     16  N   UNL     1       6.622   5.674  17.855  0.00  0.00    +0.000 NA
ATOM     17  C   UNL     1       5.497   5.529  18.800  0.00  0.00    +0.000 C 
ATOM     18  C   UNL     1       4.104   5.405  18.132  0.00  0.00    +0.000 C 
ATOM     19  N   UNL     1       3.994   4.275  17.180  0.00  0.00    +0.000 NA
ATOM     20  C   UNL     1       5.117   4.364  16.221  0.00  0.00    +0.000 C 
ATOM     21  C   UNL     1       6.524   4.583  16.845  0.00  0.00    +0.000 C 
BRANCH  19  22
ATOM     22  C   UNL     1       3.945   3.009  17.934  0.00  0.00    +0.000 C 
BRANCH  22  23
ATOM     23  C   UNL     1       3.001   2.981  19.113  0.00  0.00    +0.000 A 
ATOM     24  C   UNL     1       1.628   3.186  18.903  0.00  0.00    +0.000 A 
ATOM     25  C   UNL     1       0.733   3.134  19.970  0.00  0.00    +0.000 A 
ATOM     26  C   UNL     1       1.201   2.872  21.256  0.00  0.00    +0.000 A 
ATOM     27  C   UNL     1       2.562   2.660  21.478  0.00  0.00    +0.000 A 
ATOM     28  C   UNL     1       3.460   2.713  20.408  0.00  0.00    +0.000 A 
ENDBRANCH  22  23
ENDBRANCH  19  22
ENDBRANCH  15  16
ENDBRANCH   1  15
TORSDOF 9
ENDMDL
MODEL 6
REMARK VINA RESULT:      -7.5      2.107      2.942
REMARK  Name = 
REMARK  10 active torsions:
REMARK  status: ('A' for Active; 'I' for Inactive)
REMARK    1  A    between atoms: C_1  and  C_2
REMARK    2  A    between atoms: C_2  and  C_4
REMARK    3  A    between atoms: C_7  and  O_8
REMARK    4  A    between atoms: O_8  and  C_9
REMARK    5  A    between atoms: C_9  and  C_10
REMARK    6  A    between atoms: C_10  and  C_11
REMARK    7  A    between atoms: C_11  and  N_12
REMARK    8  A    between atoms: N_15  and  C_16
REMARK    9  A    between atoms: C_16  and  C_17
REMARK   10  A    between atoms: C_26  and  O_27
REMARK                            x       y       z     vdW  Elec       q    Type
REMARK                         _______ _______ _______ _____ _____    ______ ____
ROOT
ATOM      1  C   UNL     1       7.925   8.897  17.574  0.00  0.00    +0.000 C 
ENDROOT
BRANCH   1   2
ATOM      2  C   UNL     1       8.729   9.446  18.753  0.00  0.00    +0.000 C 
BRANCH   2   3
ATOM      3  O   UNL     1       9.309  10.663  18.256  0.00  0.00    +0.000 OA
BRANCH   3   7
ATOM      4  C   UNL     1       9.761  13.698  21.084  0.00  0.00    +0.000 A 
ATOM      5  C   UNL     1       9.897  14.013  19.721  0.00  0.00    +0.000 A 
ATOM      6  C   UNL     1       9.774  13.026  18.732  0.00  0.00    +0.000 A 
ATOM      7  C   UNL     1       9.489  11.717  19.097  0.00  0.00    +0.000 A 
ATOM      8  C   UNL     1       9.356  11.394  20.455  0.00  0.00    +0.000 A 
ATOM      9  C   UNL     1       9.498  12.373  21.444  0.00  0.00    +0.000 A 
BRANCH   4  11
ATOM     10  C   UNL     1      10.834  15.953  21.786  0.00  0.00    +0.000 C 
ATOM     11  C   UNL     1       9.877  14.820  22.057  0.00  0.00    +0.000 C 
ATOM     12  O   UNL     1       9.149  14.825  23.049  0.00  0.00    +0.000 OA
ENDBRANCH   4  11
BRANCH   9  13
ATOM     13  O   UNL     1       9.345  12.013  22.753  0.00  0.00    +0.000 OA
ATOM     14  H   UNL     1       9.941  11.273  22.961  0.00  0.00    +0.000 HD
ENDBRANCH   9  13
ENDBRANCH   3   7
ENDBRANCH   2   3
ENDBRANCH   1   2
BRANCH   1  15
ATOM     15  C   UNL     1       7.698   7.382  17.521  0.00  0.00    +0.000 C 
BRANCH  15  16
ATOM     16  N   UNL     1       6.534   6.912  16.750  0.00  0.00    +0.000 NA
ATOM     17  C   UNL     1       6.775   5.650  16.022  0.00  0.00    +0.000 C 
ATOM     18  C   UNL     1       6.860   4.391  16.922  0.00  0.00    +0.000 C 
ATOM     19  N   UNL     1       5.655   4.166  17.755  0.00  0.00    +0.000 NA
ATOM     20  C   UNL     1       5.359   5.415  18.490  0.00  0.00    +0.000 C 
ATOM     21  C   UNL     1       5.356   6.717  17.641  0.00  0.00    +0.000 C 
BRANCH  19  22
ATOM     22  C   UNL     1       4.552   3.698  16.895  0.00  0.00    +0.000 C 
BRANCH  22  23
ATOM     23  C   UNL     1       3.285   3.295  17.613  0.00  0.00    +0.000 A 
ATOM     24  C   UNL     1       3.284   2.149  18.423  0.00  0.00    +0.000 A 
ATOM     25  C   UNL     1       2.136   1.775  19.119  0.00  0.00    +0.000 A 
ATOM     26  C   UNL     1       0.980   2.545  19.015  0.00  0.00    +0.000 A 
ATOM     27  C   UNL     1       0.968   3.690  18.219  0.00  0.00    +0.000 A 
ATOM     28  C   UNL     1       2.119   4.066  17.520  0.00  0.00    +0.000 A 
ENDBRANCH  22  23
ENDBRANCH  19  22
ENDBRANCH  15  16
ENDBRANCH   1  15
TORSDOF 9
ENDMDL
MODEL 7
REMARK VINA RESULT:      -7.3      0.940      1.336
REMARK  Name = 
REMARK  10 active torsions:
REMARK  status: ('A' for Active; 'I' for Inactive)
REMARK    1  A    between atoms: C_1  and  C_2
REMARK    2  A    between atoms: C_2  and  C_4
REMARK    3  A    between atoms: C_7  and  O_8
REMARK    4  A    between atoms: O_8  and  C_9
REMARK    5  A    between atoms: C_9  and  C_10
REMARK    6  A    between atoms: C_10  and  C_11
REMARK    7  A    between atoms: C_11  and  N_12
REMARK    8  A    between atoms: N_15  and  C_16
REMARK    9  A    between atoms: C_16  and  C_17
REMARK   10  A    between atoms: C_26  and  O_27
REMARK                            x       y       z     vdW  Elec       q    Type
REMARK                         _______ _______ _______ _____ _____    ______ ____
ROOT
ATOM      1  C   UNL     1       7.215   7.832  17.717  0.00  0.00    +0.000 C 
ENDROOT
BRANCH   1   2
ATOM      2  C   UNL     1       8.351   8.750  18.168  0.00  0.00    +0.000 C 
BRANCH   2   3
ATOM      3  O   UNL     1       7.871  10.077  17.894  0.00  0.00    +0.000 OA
BRANCH   3   7
ATOM      4  C   UNL     1      10.773  13.073  17.999  0.00  0.00    +0.000 A 
ATOM      5  C   UNL     1       9.455  13.415  17.651  0.00  0.00    +0.000 A 
ATOM      6  C   UNL     1       8.447  12.442  17.581  0.00  0.00    +0.000 A 
ATOM      7  C   UNL     1       8.744  11.120  17.885  0.00  0.00    +0.000 A 
ATOM      8  C   UNL     1      10.058  10.771  18.230  0.00  0.00    +0.000 A 
ATOM      9  C   UNL     1      11.068  11.736  18.280  0.00  0.00    +0.000 A 
BRANCH   4  11
ATOM     10  C   UNL     1      12.332  14.589  19.414  0.00  0.00    +0.000 C 
ATOM     11  C   UNL     1      11.766  14.181  18.077  0.00  0.00    +0.000 C 
ATOM     12  O   UNL     1      12.143  14.718  17.036  0.00  0.00    +0.000 OA
ENDBRANCH   4  11
BRANCH   9  13
ATOM     13  O   UNL     1      12.330  11.350  18.636  0.00  0.00    +0.000 OA
ATOM     14  H   UNL     1      12.976  11.998  18.305  0.00  0.00    +0.000 HD
ENDBRANCH   9  13
ENDBRANCH   3   7
ENDBRANCH   2   3
ENDBRANCH   1   2
BRANCH   1  15
ATOM     15  C   UNL     1       7.561   6.719  16.723  0.00  0.00    +0.000 C 
BRANCH  15  16
ATOM     16  N   UNL     1       7.383   5.333  17.189  0.00  0.00    +0.000 NA
ATOM     17  C   UNL     1       6.698   5.228  18.492  0.00  0.00    +0.000 C 
ATOM     18  C   UNL     1       5.183   5.554  18.455  0.00  0.00    +0.000 C 
ATOM     19  N   UNL     1       4.411   4.712  17.511  0.00  0.00    +0.000 NA
ATOM     20  C   UNL     1       5.074   4.767  16.190  0.00  0.00    +0.000 C 
ATOM     21  C   UNL     1       6.611   4.537  16.193  0.00  0.00    +0.000 C 
BRANCH  19  22
ATOM     22  C   UNL     1       4.288   3.351  18.066  0.00  0.00    +0.000 C 
BRANCH  22  23
ATOM     23  C   UNL     1       3.185   3.152  19.079  0.00  0.00    +0.000 A 
ATOM     24  C   UNL     1       3.514   2.803  20.399  0.00  0.00    +0.000 A 
ATOM     25  C   UNL     1       2.517   2.644  21.359  0.00  0.00    +0.000 A 
ATOM     26  C   UNL     1       1.182   2.836  21.011  0.00  0.00    +0.000 A 
ATOM     27  C   UNL     1       0.840   3.188  19.705  0.00  0.00    +0.000 A 
ATOM     28  C   UNL     1       1.841   3.348  18.741  0.00  0.00    +0.000 A 
ENDBRANCH  22  23
ENDBRANCH  19  22
ENDBRANCH  15  16
ENDBRANCH   1  15
TORSDOF 9
ENDMDL
MODEL 8
REMARK VINA RESULT:      -7.3      1.574      2.117
REMARK  Name = 
REMARK  10 active torsions:
REMARK  status: ('A' for Active; 'I' for Inactive)
REMARK    1  A    between atoms: C_1  and  C_2
REMARK    2  A    between atoms: C_2  and  C_4
REMARK    3  A    between atoms: C_7  and  O_8
REMARK    4  A    between atoms: O_8  and  C_9
REMARK    5  A    between atoms: C_9  and  C_10
REMARK    6  A    between atoms: C_10  and  C_11
REMARK    7  A    between atoms: C_11  and  N_12
REMARK    8  A    between atoms: N_15  and  C_16
REMARK    9  A    between atoms: C_16  and  C_17
REMARK   10  A    between atoms: C_26  and  O_27
REMARK                            x       y       z     vdW  Elec       q    Type
REMARK                         _______ _______ _______ _____ _____    ______ ____
ROOT
ATOM      1  C   UNL     1       7.797   7.579  18.030  0.00  0.00    +0.000 C 
ENDROOT
BRANCH   1   2
ATOM      2  C   UNL     1       7.942   9.091  17.852  0.00  0.00    +0.000 C 
BRANCH   2   3
ATOM      3  O   UNL     1       9.180   9.412  18.507  0.00  0.00    +0.000 OA
BRANCH   3   7
ATOM      4  C   UNL     1       9.766  13.323  19.838  0.00  0.00    +0.000 A 
ATOM      5  C   UNL     1       9.695  12.286  20.784  0.00  0.00    +0.000 A 
ATOM      6  C   UNL     1       9.479  10.958  20.391  0.00  0.00    +0.000 A 
ATOM      7  C   UNL     1       9.358  10.651  19.042  0.00  0.00    +0.000 A 
ATOM      8  C   UNL     1       9.423  11.680  18.092  0.00  0.00    +0.000 A 
ATOM      9  C   UNL     1       9.619  13.008  18.485  0.00  0.00    +0.000 A 
BRANCH   4  11
ATOM     10  C   UNL     1       9.302  15.194  21.575  0.00  0.00    +0.000 C 
ATOM     11  C   UNL     1      10.030  14.697  20.352  0.00  0.00    +0.000 C 
ATOM     12  O   UNL     1      10.879  15.389  19.791  0.00  0.00    +0.000 OA
ENDBRANCH   4  11
BRANCH   9  13
ATOM     13  O   UNL     1       9.691  13.976  17.522  0.00  0.00    +0.000 OA
ATOM     14  H   UNL     1      10.621  14.138  17.291  0.00  0.00    +0.000 HD
ENDBRANCH   9  13
ENDBRANCH   3   7
ENDBRANCH   2   3
ENDBRANCH   1   2
BRANCH   1  15
ATOM     15  C   UNL     1       7.465   6.752  16.784  0.00  0.00    +0.000 C 
BRANCH  15  16
ATOM     16  N   UNL     1       6.042   6.633  16.425  0.00  0.00    +0.000 NA
ATOM     17  C   UNL     1       5.738   5.464  15.577  0.00  0.00    +0.000 C 
ATOM     18  C   UNL     1       5.808   4.099  16.307  0.00  0.00    +0.000 C 
ATOM     19  N   UNL     1       4.913   4.001  17.484  0.00  0.00    +0.000 NA
ATOM     20  C   UNL     1       5.165   5.168  18.358  0.00  0.00    +0.000 C 
ATOM     21  C   UNL     1       5.195   6.551  17.649  0.00  0.00    +0.000 C 
BRANCH  19  22
ATOM     22  C   UNL     1       3.517   3.886  17.022  0.00  0.00    +0.000 C 
BRANCH  22  23
ATOM     23  C   UNL     1       2.494   3.585  18.092  0.00  0.00    +0.000 A 
ATOM     24  C   UNL     1       2.157   4.577  19.026  0.00  0.00    +0.000 A 
ATOM     25  C   UNL     1       1.194   4.333  20.003  0.00  0.00    +0.000 A 
ATOM     26  C   UNL     1       0.554   3.096  20.052  0.00  0.00    +0.000 A 
ATOM     27  C   UNL     1       0.874   2.103  19.127  0.00  0.00    +0.000 A 
ATOM     28  C   UNL     1       1.841   2.347  18.147  0.00  0.00    +0.000 A 
ENDBRANCH  22  23
ENDBRANCH  19  22
ENDBRANCH  15  16
ENDBRANCH   1  15
TORSDOF 9
ENDMDL
MODEL 9
REMARK VINA RESULT:      -7.3      1.713      1.914
REMARK  Name = 
REMARK  10 active torsions:
REMARK  status: ('A' for Active; 'I' for Inactive)
REMARK    1  A    between atoms: C_1  and  C_2
REMARK    2  A    between atoms: C_2  and  C_4
REMARK    3  A    between atoms: C_7  and  O_8
REMARK    4  A    between atoms: O_8  and  C_9
REMARK    5  A    between atoms: C_9  and  C_10
REMARK    6  A    between atoms: C_10  and  C_11
REMARK    7  A    between atoms: C_11  and  N_12
REMARK    8  A    between atoms: N_15  and  C_16
REMARK    9  A    between atoms: C_16  and  C_17
REMARK   10  A    between atoms: C_26  and  O_27
REMARK                            x       y       z     vdW  Elec       q    Type
REMARK                         _______ _______ _______ _____ _____    ______ ____
ROOT
ATOM      1  C   UNL     1       7.250   7.713  17.953  0.00  0.00    +0.000 C 
ENDROOT
BRANCH   1   2
ATOM      2  C   UNL     1       8.540   8.404  18.396  0.00  0.00    +0.000 C 
BRANCH   2   3
ATOM      3  O   UNL     1       8.579   9.618  17.629  0.00  0.00    +0.000 OA
BRANCH   3   7
ATOM      4  C   UNL     1       9.420  13.070  19.817  0.00  0.00    +0.000 A 
ATOM      5  C   UNL     1       9.010  13.196  18.479  0.00  0.00    +0.000 A 
ATOM      6  C   UNL     1       8.735  12.067  17.694  0.00  0.00    +0.000 A 
ATOM      7  C   UNL     1       8.843  10.799  18.251  0.00  0.00    +0.000 A 
ATOM      8  C   UNL     1       9.255  10.665  19.584  0.00  0.00    +0.000 A 
ATOM      9  C   UNL     1       9.549  11.789  20.362  0.00  0.00    +0.000 A 
BRANCH   4  11
ATOM     10  C   UNL     1      11.045  14.912  20.650  0.00  0.00    +0.000 C 
ATOM     11  C   UNL     1       9.657  14.329  20.579  0.00  0.00    +0.000 C 
ATOM     12  O   UNL     1       8.700  14.898  21.101  0.00  0.00    +0.000 OA
ENDBRANCH   4  11
BRANCH   9  13
ATOM     13  O   UNL     1       9.932  11.609  21.662  0.00  0.00    +0.000 OA
ATOM     14  H   UNL     1      10.111  12.472  22.073  0.00  0.00    +0.000 HD
ENDBRANCH   9  13
ENDBRANCH   3   7
ENDBRANCH   2   3
ENDBRANCH   1   2
BRANCH   1  15
ATOM     15  C   UNL     1       7.377   6.560  16.951  0.00  0.00    +0.000 C 
BRANCH  15  16
ATOM     16  N   UNL     1       7.138   5.202  17.468  0.00  0.00    +0.000 NA
ATOM     17  C   UNL     1       6.195   5.155  18.603  0.00  0.00    +0.000 C 
ATOM     18  C   UNL     1       4.715   5.420  18.226  0.00  0.00    +0.000 C 
ATOM     19  N   UNL     1       4.181   4.489  17.205  0.00  0.00    +0.000 NA
ATOM     20  C   UNL     1       5.106   4.483  16.051  0.00  0.00    +0.000 C 
ATOM     21  C   UNL     1       6.613   4.314  16.392  0.00  0.00    +0.000 C 
BRANCH  19  22
ATOM     22  C   UNL     1       3.975   3.164  17.818  0.00  0.00    +0.000 C 
BRANCH  22  23
ATOM     23  C   UNL     1       3.054   3.128  19.015  0.00  0.00    +0.000 A 
ATOM     24  C   UNL     1       1.705   3.486  18.860  0.00  0.00    +0.000 A 
ATOM     25  C   UNL     1       0.829   3.431  19.943  0.00  0.00    +0.000 A 
ATOM     26  C   UNL     1       1.292   3.014  21.189  0.00  0.00    +0.000 A 
ATOM     27  C   UNL     1       2.628   2.650  21.356  0.00  0.00    +0.000 A 
ATOM     28  C   UNL     1       3.508   2.705  20.270  0.00  0.00    +0.000 A 
ENDBRANCH  22  23
ENDBRANCH  19  22
ENDBRANCH  15  16
ENDBRANCH   1  15
TORSDOF 9
ENDMDL
