MODEL 1
REMARK VINA RESULT:      -7.4      0.000      0.000
REMARK  Name = 
REMARK  9 active torsions:
REMARK  status: ('A' for Active; 'I' for Inactive)
REMARK    1  A    between atoms: C_1  and  N_2
REMARK    2  A    between atoms: C_3  and  C_5
REMARK    3  A    between atoms: C_8  and  C_9
REMARK    4  A    between atoms: C_9  and  O_10
REMARK    5  A    between atoms: N_13  and  C_14
REMARK    6  A    between atoms: C_17  and  C_18
REMARK    7  A    between atoms: C_20  and  O_21
REMARK    8  A    between atoms: O_21  and  C_22
REMARK    9  A    between atoms: C_24  and  C_25
REMARK                            x       y       z     vdW  Elec       q    Type
REMARK                         _______ _______ _______ _____ _____    ______ ____
ROOT
ATOM      1  C   UNL     1       0.707  10.434  19.713  0.00  0.00    +0.000 C 
ATOM      2  C   UNL     1       1.879  10.741  18.767  0.00  0.00    +0.000 C 
ATOM      3  C   UNL     1       2.206   9.413  18.098  0.00  0.00    +0.000 C 
ATOM      4  N   UNL     1       1.882   8.408  19.108  0.00  0.00    +0.000 N 
ATOM      5  C   UNL     1       0.990   8.948  20.158  0.00  0.00    +0.000 C 
ATOM      6  C   UNL     1       1.672   8.833  21.527  0.00  0.00    +0.000 C 
ENDROOT
BRANCH   1  10
ATOM      7  C   UNL     1      -3.031  11.159  17.739  0.00  0.00    +0.000 A 
ATOM      8  C   UNL     1      -2.201  10.176  17.229  0.00  0.00    +0.000 A 
ATOM      9  C   UNL     1      -1.000   9.925  17.888  0.00  0.00    +0.000 A 
ATOM     10  C   UNL     1      -0.643  10.657  19.034  0.00  0.00    +0.000 A 
ATOM     11  C   UNL     1      -1.579  11.591  19.485  0.00  0.00    +0.000 A 
ATOM     12  N   UNL     1      -2.755  11.869  18.868  0.00  0.00    +0.000 NA
BRANCH   7  15
ATOM     13  C   UNL     1      -6.387  12.809  17.160  0.00  0.00    +0.000 C 
ATOM     14  N   UNL     1      -5.121  12.387  17.693  0.00  0.00    +0.000 N 
ATOM     15  C   UNL     1      -4.308  11.495  17.024  0.00  0.00    +0.000 C 
ATOM     16  O   UNL     1      -4.580  11.011  15.933  0.00  0.00    +0.000 OA
ATOM     17  H   UNL     1      -4.784  12.731  18.588  0.00  0.00    +0.000 HD
ENDBRANCH   7  15
ENDBRANCH   1  10
BRANCH   4  18
ATOM     18  C   UNL     1       2.258   7.088  19.008  0.00  0.00    +0.000 A 
ATOM     19  C   UNL     1       3.127   6.640  18.010  0.00  0.00    +0.000 A 
ATOM     20  C   UNL     1       3.443   5.284  17.863  0.00  0.00    +0.000 A 
ATOM     21  C   UNL     1       2.890   4.313  18.711  0.00  0.00    +0.000 A 
ATOM     22  C   UNL     1       2.031   4.722  19.733  0.00  0.00    +0.000 A 
ATOM     23  C   UNL     1       1.749   6.102  19.869  0.00  0.00    +0.000 A 
BRANCH  21  24
ATOM     24  C   UNL     1       3.253   2.956  18.440  0.00  0.00    +0.000 C 
ATOM     25  N   UNL     1       3.547   1.849  18.248  0.00  0.00    +0.000 NA
ENDBRANCH  21  24
BRANCH  22  26
ATOM     26  O   UNL     1       1.368   3.981  20.673  0.00  0.00    +0.000 OA
ATOM     27  C   UNL     1       2.079   3.310  21.701  0.00  0.00    +0.000 C 
ENDBRANCH  22  26
ENDBRANCH   4  18
BRANCH   1  28
ATOM     28  O   UNL     1       0.775  11.343  20.824  0.00  0.00    +0.000 OA
ATOM     29  H   UNL     1       1.353  12.086  20.582  0.00  0.00    +0.000 HD
ENDBRANCH   1  28
TORSDOF 6
ENDMDL
MODEL 2
REMARK VINA RESULT:      -7.4      1.108      1.871
REMARK  Name = 
REMARK  9 active torsions:
REMARK  status: ('A' for Active; 'I' for Inactive)
REMARK    1  A    between atoms: C_1  and  N_2
REMARK    2  A    between atoms: C_3  and  C_5
REMARK    3  A    between atoms: C_8  and  C_9
REMARK    4  A    between atoms: C_9  and  O_10
REMARK    5  A    between atoms: N_13  and  C_14
REMARK    6  A    between atoms: C_17  and  C_18
REMARK    7  A    between atoms: C_20  and  O_21
REMARK    8  A    between atoms: O_21  and  C_22
REMARK    9  A    between atoms: C_24  and  C_25
REMARK                            x       y       z     vdW  Elec       q    Type
REMARK                         _______ _______ _______ _____ _____    ______ ____
ROOT
ATOM      1  C   UNL     1       0.568  10.635  19.810  0.00  0.00    +0.000 C 
ATOM      2  C   UNL     1       1.743  10.925  18.862  0.00  0.00    +0.000 C 
ATOM      3  C   UNL     1       2.093   9.579  18.243  0.00  0.00    +0.000 C 
ATOM      4  N   UNL     1       1.774   8.605  19.285  0.00  0.00    +0.000 N 
ATOM      5  C   UNL     1       0.867   9.170  20.309  0.00  0.00    +0.000 C 
ATOM      6  C   UNL     1       1.540   9.112  21.686  0.00  0.00    +0.000 C 
ENDROOT
BRANCH   1  10
ATOM      7  C   UNL     1      -3.166  11.244  17.789  0.00  0.00    +0.000 A 
ATOM      8  C   UNL     1      -2.299  10.286  17.290  0.00  0.00    +0.000 A 
ATOM      9  C   UNL     1      -1.100  10.073  17.965  0.00  0.00    +0.000 A 
ATOM     10  C   UNL     1      -0.780  10.817  19.114  0.00  0.00    +0.000 A 
ATOM     11  C   UNL     1      -1.750  11.722  19.552  0.00  0.00    +0.000 A 
ATOM     12  N   UNL     1      -2.925  11.963  18.920  0.00  0.00    +0.000 NA
BRANCH   7  15
ATOM     13  C   UNL     1      -6.530  12.847  17.130  0.00  0.00    +0.000 C 
ATOM     14  N   UNL     1      -5.263  12.457  17.684  0.00  0.00    +0.000 N 
ATOM     15  C   UNL     1      -4.443  11.540  17.057  0.00  0.00    +0.000 C 
ATOM     16  O   UNL     1      -4.711  11.005  15.989  0.00  0.00    +0.000 OA
ATOM     17  H   UNL     1      -4.929  12.843  18.562  0.00  0.00    +0.000 HD
ENDBRANCH   7  15
ENDBRANCH   1  10
BRANCH   4  18
ATOM     18  C   UNL     1       2.168   7.288  19.234  0.00  0.00    +0.000 A 
ATOM     19  C   UNL     1       1.889   6.391  20.267  0.00  0.00    +0.000 A 
ATOM     20  C   UNL     1       2.361   5.073  20.247  0.00  0.00    +0.000 A 
ATOM     21  C   UNL     1       3.146   4.599  19.185  0.00  0.00    +0.000 A 
ATOM     22  C   UNL     1       3.431   5.459  18.123  0.00  0.00    +0.000 A 
ATOM     23  C   UNL     1       2.921   6.778  18.163  0.00  0.00    +0.000 A 
BRANCH  21  24
ATOM     24  C   UNL     1       3.605   3.249  19.292  0.00  0.00    +0.000 C 
ATOM     25  N   UNL     1       3.988   2.154  19.352  0.00  0.00    +0.000 NA
ENDBRANCH  21  24
BRANCH  22  26
ATOM     26  O   UNL     1       4.169   5.244  16.990  0.00  0.00    +0.000 OA
ATOM     27  C   UNL     1       5.084   6.224  16.523  0.00  0.00    +0.000 C 
ENDBRANCH  22  26
ENDBRANCH   4  18
BRANCH   1  28
ATOM     28  O   UNL     1       0.615  11.584  20.889  0.00  0.00    +0.000 OA
ATOM     29  H   UNL     1      -0.191  12.127  20.860  0.00  0.00    +0.000 HD
ENDBRANCH   1  28
TORSDOF 6
ENDMDL
MODEL 3
REMARK VINA RESULT:      -7.2      1.278      1.632
REMARK  Name = 
REMARK  9 active torsions:
REMARK  status: ('A' for Active; 'I' for Inactive)
REMARK    1  A    between atoms: C_1  and  N_2
REMARK    2  A    between atoms: C_3  and  C_5
REMARK    3  A    between atoms: C_8  and  C_9
REMARK    4  A    between atoms: C_9  and  O_10
REMARK    5  A    between atoms: N_13  and  C_14
REMARK    6  A    between atoms: C_17  and  C_18
REMARK    7  A    between atoms: C_20  and  O_21
REMARK    8  A    between atoms: O_21  and  C_22
REMARK    9  A    between atoms: C_24  and  C_25
REMARK                            x       y       z     vdW  Elec       q    Type
REMARK                         _______ _______ _______ _____ _____    ______ ____
ROOT
ATOM      1  C   UNL     1       0.833  10.112  19.505  0.00  0.00    +0.000 C 
ATOM      2  C   UNL     1       2.010  10.500  18.594  0.00  0.00    +0.000 C 
ATOM      3  C   UNL     1       2.342   9.234  17.817  0.00  0.00    +0.000 C 
ATOM      4  N   UNL     1       2.013   8.145  18.735  0.00  0.00    +0.000 N 
ATOM      5  C   UNL     1       1.115   8.594  19.823  0.00  0.00    +0.000 C 
ATOM      6  C   UNL     1       1.790   8.363  21.180  0.00  0.00    +0.000 C 
ENDROOT
BRANCH   1  10
ATOM      7  C   UNL     1      -2.894  10.999  17.576  0.00  0.00    +0.000 A 
ATOM      8  C   UNL     1      -2.080  10.030  17.014  0.00  0.00    +0.000 A 
ATOM      9  C   UNL     1      -0.883   9.726  17.658  0.00  0.00    +0.000 A 
ATOM     10  C   UNL     1      -0.513  10.392  18.840  0.00  0.00    +0.000 A 
ATOM     11  C   UNL     1      -1.434  11.316  19.340  0.00  0.00    +0.000 A 
ATOM     12  N   UNL     1      -2.605  11.645  18.740  0.00  0.00    +0.000 NA
BRANCH   7  15
ATOM     13  C   UNL     1      -6.231  12.716  17.095  0.00  0.00    +0.000 C 
ATOM     14  N   UNL     1      -4.972  12.249  17.603  0.00  0.00    +0.000 N 
ATOM     15  C   UNL     1      -4.166  11.392  16.881  0.00  0.00    +0.000 C 
ATOM     16  O   UNL     1      -4.440  10.980  15.761  0.00  0.00    +0.000 OA
ATOM     17  H   UNL     1      -4.633  12.533  18.518  0.00  0.00    +0.000 HD
ENDBRANCH   7  15
ENDBRANCH   1  10
BRANCH   4  18
ATOM     18  C   UNL     1       2.390   6.839  18.524  0.00  0.00    +0.000 A 
ATOM     19  C   UNL     1       1.499   5.881  18.036  0.00  0.00    +0.000 A 
ATOM     20  C   UNL     1       1.865   4.536  17.900  0.00  0.00    +0.000 A 
ATOM     21  C   UNL     1       3.147   4.093  18.257  0.00  0.00    +0.000 A 
ATOM     22  C   UNL     1       4.073   5.023  18.731  0.00  0.00    +0.000 A 
ATOM     23  C   UNL     1       3.680   6.377  18.837  0.00  0.00    +0.000 A 
BRANCH  21  24
ATOM     24  C   UNL     1       3.393   2.691  18.112  0.00  0.00    +0.000 C 
ATOM     25  N   UNL     1       3.569   1.547  18.007  0.00  0.00    +0.000 NA
ENDBRANCH  21  24
BRANCH  22  26
ATOM     26  O   UNL     1       5.366   4.844  19.146  0.00  0.00    +0.000 OA
ATOM     27  C   UNL     1       6.426   4.778  18.205  0.00  0.00    +0.000 C 
ENDBRANCH  22  26
ENDBRANCH   4  18
BRANCH   1  28
ATOM     28  O   UNL     1       0.894  10.924  20.689  0.00  0.00    +0.000 OA
ATOM     29  H   UNL     1       1.536  10.530  21.303  0.00  0.00    +0.000 HD
ENDBRANCH   1  28
TORSDOF 6
ENDMDL
MODEL 4
REMARK VINA RESULT:      -7.0      0.926      1.006
REMARK  Name = 
REMARK  9 active torsions:
REMARK  status: ('A' for Active; 'I' for Inactive)
REMARK    1  A    between atoms: C_1  and  N_2
REMARK    2  A    between atoms: C_3  and  C_5
REMARK    3  A    between atoms: C_8  and  C_9
REMARK    4  A    between atoms: C_9  and  O_10
REMARK    5  A    between atoms: N_13  and  C_14
REMARK    6  A    between atoms: C_17  and  C_18
REMARK    7  A    between atoms: C_20  and  O_21
REMARK    8  A    between atoms: O_21  and  C_22
REMARK    9  A    between atoms: C_24  and  C_25
REMARK                            x       y       z     vdW  Elec       q    Type
REMARK                         _______ _______ _______ _____ _____    ______ ____
ROOT
ATOM      1  C   UNL     1       0.381  10.675  19.905  0.00  0.00    +0.000 C 
ATOM      2  C   UNL     1       1.535  11.347  19.143  0.00  0.00    +0.000 C 
ATOM      3  C   UNL     1       2.085  10.264  18.225  0.00  0.00    +0.000 C 
ATOM      4  N   UNL     1       1.869   9.019  18.961  0.00  0.00    +0.000 N 
ATOM      5  C   UNL     1       0.861   9.179  20.032  0.00  0.00    +0.000 C 
ATOM      6  C   UNL     1       1.491   8.846  21.389  0.00  0.00    +0.000 C 
ENDROOT
BRANCH   1  10
ATOM      7  C   UNL     1      -3.318  11.301  17.826  0.00  0.00    +0.000 A 
ATOM      8  C   UNL     1      -2.485  10.284  17.390  0.00  0.00    +0.000 A 
ATOM      9  C   UNL     1      -1.298  10.067  18.084  0.00  0.00    +0.000 A 
ATOM     10  C   UNL     1      -0.956  10.865  19.190  0.00  0.00    +0.000 A 
ATOM     11  C   UNL     1      -1.894  11.830  19.567  0.00  0.00    +0.000 A 
ATOM     12  N   UNL     1      -3.056  12.076  18.914  0.00  0.00    +0.000 NA
BRANCH   7  15
ATOM     13  C   UNL     1      -6.654  12.929  17.091  0.00  0.00    +0.000 C 
ATOM     14  N   UNL     1      -5.401  12.534  17.671  0.00  0.00    +0.000 N 
ATOM     15  C   UNL     1      -4.580  11.601  17.069  0.00  0.00    +0.000 C 
ATOM     16  O   UNL     1      -4.835  11.056  16.003  0.00  0.00    +0.000 OA
ATOM     17  H   UNL     1      -5.078  12.927  18.550  0.00  0.00    +0.000 HD
ENDBRANCH   7  15
ENDBRANCH   1  10
BRANCH   4  18
ATOM     18  C   UNL     1       2.441   7.820  18.600  0.00  0.00    +0.000 A 
ATOM     19  C   UNL     1       3.508   7.749  17.702  0.00  0.00    +0.000 A 
ATOM     20  C   UNL     1       4.033   6.523  17.277  0.00  0.00    +0.000 A 
ATOM     21  C   UNL     1       3.501   5.308  17.733  0.00  0.00    +0.000 A 
ATOM     22  C   UNL     1       2.447   5.336  18.647  0.00  0.00    +0.000 A 
ATOM     23  C   UNL     1       1.953   6.591  19.073  0.00  0.00    +0.000 A 
BRANCH  21  24
ATOM     24  C   UNL     1       4.092   4.120  17.199  0.00  0.00    +0.000 C 
ATOM     25  N   UNL     1       4.590   3.154  16.788  0.00  0.00    +0.000 NA
ENDBRANCH  21  24
BRANCH  22  26
ATOM     26  O   UNL     1       1.759   4.305  19.228  0.00  0.00    +0.000 OA
ATOM     27  C   UNL     1       1.218   4.439  20.533  0.00  0.00    +0.000 C 
ENDBRANCH  22  26
ENDBRANCH   4  18
BRANCH   1  28
ATOM     28  O   UNL     1       0.263  11.307  21.191  0.00  0.00    +0.000 OA
ATOM     29  H   UNL     1      -0.619  11.115  21.551  0.00  0.00    +0.000 HD
ENDBRANCH   1  28
TORSDOF 6
ENDMDL
MODEL 5
REMARK VINA RESULT:      -7.0      3.484      5.239
REMARK  Name = 
REMARK  9 active torsions:
REMARK  status: ('A' for Active; 'I' for Inactive)
REMARK    1  A    between atoms: C_1  and  N_2
REMARK    2  A    between atoms: C_3  and  C_5
REMARK    3  A    between atoms: C_8  and  C_9
REMARK    4  A    between atoms: C_9  and  O_10
REMARK    5  A    between atoms: N_13  and  C_14
REMARK    6  A    between atoms: C_17  and  C_18
REMARK    7  A    between atoms: C_20  and  O_21
REMARK    8  A    between atoms: O_21  and  C_22
REMARK    9  A    between atoms: C_24  and  C_25
REMARK                            x       y       z     vdW  Elec       q    Type
REMARK                         _______ _______ _______ _____ _____    ______ ____
ROOT
ATOM      1  C   UNL     1      -0.008  11.829  19.329  0.00  0.00    +0.000 C 
ATOM      2  C   UNL     1      -0.056  11.311  20.775  0.00  0.00    +0.000 C 
ATOM      3  C   UNL     1       1.050  10.268  20.858  0.00  0.00    +0.000 C 
ATOM      4  N   UNL     1       1.108   9.692  19.516  0.00  0.00    +0.000 N 
ATOM      5  C   UNL     1       0.459  10.564  18.512  0.00  0.00    +0.000 C 
ATOM      6  C   UNL     1      -0.691   9.808  17.836  0.00  0.00    +0.000 C 
ENDROOT
BRANCH   1  10
ATOM      7  C   UNL     1       2.598  15.225  19.061  0.00  0.00    +0.000 A 
ATOM      8  C   UNL     1       2.905  14.103  18.311  0.00  0.00    +0.000 A 
ATOM      9  C   UNL     1       2.042  13.013  18.381  0.00  0.00    +0.000 A 
ATOM     10  C   UNL     1       0.898  13.052  19.196  0.00  0.00    +0.000 A 
ATOM     11  C   UNL     1       0.664  14.253  19.870  0.00  0.00    +0.000 A 
ATOM     12  N   UNL     1       1.482  15.334  19.835  0.00  0.00    +0.000 NA
BRANCH   7  15
ATOM     13  C   UNL     1       5.899  17.069  18.891  0.00  0.00    +0.000 C 
ATOM     14  N   UNL     1       4.866  16.071  18.906  0.00  0.00    +0.000 N 
ATOM     15  C   UNL     1       3.534  16.400  19.055  0.00  0.00    +0.000 C 
ATOM     16  O   UNL     1       3.124  17.548  19.165  0.00  0.00    +0.000 OA
ATOM     17  H   UNL     1       5.085  15.083  18.811  0.00  0.00    +0.000 HD
ENDBRANCH   7  15
ENDBRANCH   1  10
BRANCH   4  18
ATOM     18  C   UNL     1       1.805   8.543  19.217  0.00  0.00    +0.000 A 
ATOM     19  C   UNL     1       2.525   8.402  18.029  0.00  0.00    +0.000 A 
ATOM     20  C   UNL     1       3.165   7.203  17.693  0.00  0.00    +0.000 A 
ATOM     21  C   UNL     1       3.102   6.085  18.538  0.00  0.00    +0.000 A 
ATOM     22  C   UNL     1       2.408   6.191  19.744  0.00  0.00    +0.000 A 
ATOM     23  C   UNL     1       1.790   7.423  20.065  0.00  0.00    +0.000 A 
BRANCH  21  24
ATOM     24  C   UNL     1       3.759   4.903  18.072  0.00  0.00    +0.000 C 
ATOM     25  N   UNL     1       4.317   3.959  17.688  0.00  0.00    +0.000 NA
ENDBRANCH  21  24
BRANCH  22  26
ATOM     26  O   UNL     1       2.197   5.257  20.723  0.00  0.00    +0.000 OA
ATOM     27  C   UNL     1       1.182   4.275  20.582  0.00  0.00    +0.000 C 
ENDBRANCH  22  26
ENDBRANCH   4  18
BRANCH   1  28
ATOM     28  O   UNL     1      -1.332  12.245  18.955  0.00  0.00    +0.000 OA
ATOM     29  H   UNL     1      -1.915  11.467  18.959  0.00  0.00    +0.000 HD
ENDBRANCH   1  28
TORSDOF 6
ENDMDL
MODEL 6
REMARK VINA RESULT:      -7.0      0.703      1.047
REMARK  Name = 
REMARK  9 active torsions:
REMARK  status: ('A' for Active; 'I' for Inactive)
REMARK    1  A    between atoms: C_1  and  N_2
REMARK    2  A    between atoms: C_3  and  C_5
REMARK    3  A    between atoms: C_8  and  C_9
REMARK    4  A    between atoms: C_9  and  O_10
REMARK    5  A    between atoms: N_13  and  C_14
REMARK    6  A    between atoms: C_17  and  C_18
REMARK    7  A    between atoms: C_20  and  O_21
REMARK    8  A    between atoms: O_21  and  C_22
REMARK    9  A    between atoms: C_24  and  C_25
REMARK                            x       y       z     vdW  Elec       q    Type
REMARK                         _______ _______ _______ _____ _____    ______ ____
ROOT
ATOM      1  C   UNL     1       0.742  10.484  19.745  0.00  0.00    +0.000 C 
ATOM      2  C   UNL     1       1.876  10.773  18.748  0.00  0.00    +0.000 C 
ATOM      3  C   UNL     1       2.149   9.442  18.063  0.00  0.00    +0.000 C 
ATOM      4  N   UNL     1       1.851   8.439  19.085  0.00  0.00    +0.000 N 
ATOM      5  C   UNL     1       1.017   8.992  20.174  0.00  0.00    +0.000 C 
ATOM      6  C   UNL     1       1.756   8.861  21.511  0.00  0.00    +0.000 C 
ENDROOT
BRANCH   1  10
ATOM      7  C   UNL     1      -3.167  11.097  18.088  0.00  0.00    +0.000 A 
ATOM      8  C   UNL     1      -2.740  11.950  19.092  0.00  0.00    +0.000 A 
ATOM      9  C   UNL     1      -1.460  11.764  19.608  0.00  0.00    +0.000 A 
ATOM     10  C   UNL     1      -0.633  10.735  19.126  0.00  0.00    +0.000 A 
ATOM     11  C   UNL     1      -1.151   9.967  18.080  0.00  0.00    +0.000 A 
ATOM     12  N   UNL     1      -2.393  10.111  17.555  0.00  0.00    +0.000 NA
BRANCH   7  15
ATOM     13  C   UNL     1      -6.938  11.399  18.163  0.00  0.00    +0.000 C 
ATOM     14  N   UNL     1      -5.548  11.284  18.507  0.00  0.00    +0.000 N 
ATOM     15  C   UNL     1      -4.560  11.232  17.544  0.00  0.00    +0.000 C 
ATOM     16  O   UNL     1      -4.777  11.298  16.341  0.00  0.00    +0.000 OA
ATOM     17  H   UNL     1      -5.245  11.233  19.475  0.00  0.00    +0.000 HD
ENDBRANCH   7  15
ENDBRANCH   1  10
BRANCH   4  18
ATOM     18  C   UNL     1       2.198   7.113  18.965  0.00  0.00    +0.000 A 
ATOM     19  C   UNL     1       3.008   6.651  17.925  0.00  0.00    +0.000 A 
ATOM     20  C   UNL     1       3.292   5.289  17.762  0.00  0.00    +0.000 A 
ATOM     21  C   UNL     1       2.765   4.328  18.636  0.00  0.00    +0.000 A 
ATOM     22  C   UNL     1       1.966   4.751  19.700  0.00  0.00    +0.000 A 
ATOM     23  C   UNL     1       1.715   6.135  19.850  0.00  0.00    +0.000 A 
BRANCH  21  24
ATOM     24  C   UNL     1       3.090   2.965  18.347  0.00  0.00    +0.000 C 
ATOM     25  N   UNL     1       3.360   1.854  18.140  0.00  0.00    +0.000 NA
ENDBRANCH  21  24
BRANCH  22  26
ATOM     26  O   UNL     1       1.337   4.021  20.672  0.00  0.00    +0.000 OA
ATOM     27  C   UNL     1       2.082   3.391  21.702  0.00  0.00    +0.000 C 
ENDBRANCH  22  26
ENDBRANCH   4  18
BRANCH   1  28
ATOM     28  O   UNL     1       0.875  11.390  20.853  0.00  0.00    +0.000 OA
ATOM     29  H   UNL     1       0.624  10.923  21.668  0.00  0.00    +0.000 HD
ENDBRANCH   1  28
TORSDOF 6
ENDMDL
MODEL 7
REMARK VINA RESULT:      -6.9      3.103      4.169
REMARK  Name = 
REMARK  9 active torsions:
REMARK  status: ('A' for Active; 'I' for Inactive)
REMARK    1  A    between atoms: C_1  and  N_2
REMARK    2  A    between atoms: C_3  and  C_5
REMARK    3  A    between atoms: C_8  and  C_9
REMARK    4  A    between atoms: C_9  and  O_10
REMARK    5  A    between atoms: N_13  and  C_14
REMARK    6  A    between atoms: C_17  and  C_18
REMARK    7  A    between atoms: C_20  and  O_21
REMARK    8  A    between atoms: O_21  and  C_22
REMARK    9  A    between atoms: C_24  and  C_25
REMARK                            x       y       z     vdW  Elec       q    Type
REMARK                         _______ _______ _______ _____ _____    ______ ____
ROOT
ATOM      1  C   UNL     1      -0.997  12.580  19.055  0.00  0.00    +0.000 C 
ATOM      2  C   UNL     1      -1.571  11.878  17.814  0.00  0.00    +0.000 C 
ATOM      3  C   UNL     1      -1.082  10.440  17.912  0.00  0.00    +0.000 C 
ATOM      4  N   UNL     1       0.214  10.541  18.581  0.00  0.00    +0.000 N 
ATOM      5  C   UNL     1       0.372  11.832  19.286  0.00  0.00    +0.000 C 
ATOM      6  C   UNL     1       1.587  12.582  18.728  0.00  0.00    +0.000 C 
ENDROOT
BRANCH   1  10
ATOM      7  C   UNL     1      -3.701  12.561  22.385  0.00  0.00    +0.000 A 
ATOM      8  C   UNL     1      -4.229  12.706  21.113  0.00  0.00    +0.000 A 
ATOM      9  C   UNL     1      -3.350  12.685  20.033  0.00  0.00    +0.000 A 
ATOM     10  C   UNL     1      -1.967  12.528  20.234  0.00  0.00    +0.000 A 
ATOM     11  C   UNL     1      -1.555  12.344  21.556  0.00  0.00    +0.000 A 
ATOM     12  N   UNL     1      -2.377  12.364  22.634  0.00  0.00    +0.000 NA
BRANCH   7  15
ATOM     13  C   UNL     1      -6.965  12.771  24.287  0.00  0.00    +0.000 C 
ATOM     14  N   UNL     1      -5.955  12.685  23.269  0.00  0.00    +0.000 N 
ATOM     15  C   UNL     1      -4.611  12.633  23.577  0.00  0.00    +0.000 C 
ATOM     16  O   UNL     1      -4.173  12.634  24.720  0.00  0.00    +0.000 OA
ATOM     17  H   UNL     1      -6.200  12.666  22.283  0.00  0.00    +0.000 HD
ENDBRANCH   7  15
ENDBRANCH   1  10
BRANCH   4  18
ATOM     18  C   UNL     1       1.111   9.500  18.651  0.00  0.00    +0.000 A 
ATOM     19  C   UNL     1       2.030   9.245  17.630  0.00  0.00    +0.000 A 
ATOM     20  C   UNL     1       2.886   8.137  17.669  0.00  0.00    +0.000 A 
ATOM     21  C   UNL     1       2.849   7.229  18.737  0.00  0.00    +0.000 A 
ATOM     22  C   UNL     1       1.958   7.459  19.786  0.00  0.00    +0.000 A 
ATOM     23  C   UNL     1       1.122   8.598  19.728  0.00  0.00    +0.000 A 
BRANCH  21  24
ATOM     24  C   UNL     1       3.741   6.114  18.648  0.00  0.00    +0.000 C 
ATOM     25  N   UNL     1       4.460   5.202  18.604  0.00  0.00    +0.000 NA
ENDBRANCH  21  24
BRANCH  22  26
ATOM     26  O   UNL     1       1.729   6.729  20.922  0.00  0.00    +0.000 OA
ATOM     27  C   UNL     1       1.476   5.334  20.848  0.00  0.00    +0.000 C 
ENDBRANCH  22  26
ENDBRANCH   4  18
BRANCH   1  28
ATOM     28  O   UNL     1      -0.798  13.968  18.736  0.00  0.00    +0.000 OA
ATOM     29  H   UNL     1      -1.031  14.108  17.803  0.00  0.00    +0.000 HD
ENDBRANCH   1  28
TORSDOF 6
ENDMDL
MODEL 8
REMARK VINA RESULT:      -6.8      3.681      5.561
REMARK  Name = 
REMARK  9 active torsions:
REMARK  status: ('A' for Active; 'I' for Inactive)
REMARK    1  A    between atoms: C_1  and  N_2
REMARK    2  A    between atoms: C_3  and  C_5
REMARK    3  A    between atoms: C_8  and  C_9
REMARK    4  A    between atoms: C_9  and  O_10
REMARK    5  A    between atoms: N_13  and  C_14
REMARK    6  A    between atoms: C_17  and  C_18
REMARK    7  A    between atoms: C_20  and  O_21
REMARK    8  A    between atoms: O_21  and  C_22
REMARK    9  A    between atoms: C_24  and  C_25
REMARK                            x       y       z     vdW  Elec       q    Type
REMARK                         _______ _______ _______ _____ _____    ______ ____
ROOT
ATOM      1  C   UNL     1      -0.107  11.993  19.108  0.00  0.00    +0.000 C 
ATOM      2  C   UNL     1      -0.218  11.702  20.613  0.00  0.00    +0.000 C 
ATOM      3  C   UNL     1       0.809  10.610  20.881  0.00  0.00    +0.000 C 
ATOM      4  N   UNL     1       0.850   9.837  19.641  0.00  0.00    +0.000 N 
ATOM      5  C   UNL     1       0.283  10.591  18.501  0.00  0.00    +0.000 C 
ATOM      6  C   UNL     1      -0.905   9.822  17.911  0.00  0.00    +0.000 C 
ENDROOT
BRANCH   1  10
ATOM      7  C   UNL     1       2.716  15.150  18.427  0.00  0.00    +0.000 A 
ATOM      8  C   UNL     1       3.107  13.851  18.152  0.00  0.00    +0.000 A 
ATOM      9  C   UNL     1       2.179  12.832  18.349  0.00  0.00    +0.000 A 
ATOM     10  C   UNL     1       0.886  13.118  18.821  0.00  0.00    +0.000 A 
ATOM     11  C   UNL     1       0.588  14.469  19.019  0.00  0.00    +0.000 A 
ATOM     12  N   UNL     1       1.465  15.489  18.846  0.00  0.00    +0.000 NA
BRANCH   7  15
ATOM     13  C   UNL     1       5.951  17.049  18.927  0.00  0.00    +0.000 C 
ATOM     14  N   UNL     1       4.896  16.074  18.949  0.00  0.00    +0.000 N 
ATOM     15  C   UNL     1       3.706  16.269  18.279  0.00  0.00    +0.000 C 
ATOM     16  O   UNL     1       3.459  17.261  17.605  0.00  0.00    +0.000 OA
ATOM     17  H   UNL     1       4.992  15.204  19.467  0.00  0.00    +0.000 HD
ENDBRANCH   7  15
ENDBRANCH   1  10
BRANCH   4  18
ATOM     18  C   UNL     1       1.468   8.612  19.535  0.00  0.00    +0.000 A 
ATOM     19  C   UNL     1       1.371   7.645  20.538  0.00  0.00    +0.000 A 
ATOM     20  C   UNL     1       2.066   6.432  20.462  0.00  0.00    +0.000 A 
ATOM     21  C   UNL     1       2.901   6.141  19.373  0.00  0.00    +0.000 A 
ATOM     22  C   UNL     1       3.011   7.074  18.340  0.00  0.00    +0.000 A 
ATOM     23  C   UNL     1       2.278   8.280  18.436  0.00  0.00    +0.000 A 
BRANCH  21  24
ATOM     24  C   UNL     1       3.592   4.889  19.424  0.00  0.00    +0.000 C 
ATOM     25  N   UNL     1       4.168   3.883  19.487  0.00  0.00    +0.000 NA
ENDBRANCH  21  24
BRANCH  22  26
ATOM     26  O   UNL     1       3.753   7.030  17.191  0.00  0.00    +0.000 OA
ATOM     27  C   UNL     1       5.170   6.978  17.245  0.00  0.00    +0.000 C 
ENDBRANCH  22  26
ENDBRANCH   4  18
BRANCH   1  28
ATOM     28  O   UNL     1      -1.391  12.437  18.639  0.00  0.00    +0.000 OA
ATOM     29  H   UNL     1      -1.575  12.010  17.785  0.00  0.00    +0.000 HD
ENDBRANCH   1  28
TORSDOF 6
ENDMDL
MODEL 9
REMARK VINA RESULT:      -6.8      1.465      2.239
REMARK  Name = 
REMARK  9 active torsions:
REMARK  status: ('A' for Active; 'I' for Inactive)
REMARK    1  A    between atoms: C_1  and  N_2
REMARK    2  A    between atoms: C_3  and  C_5
REMARK    3  A    between atoms: C_8  and  C_9
REMARK    4  A    between atoms: C_9  and  O_10
REMARK    5  A    between atoms: N_13  and  C_14
REMARK    6  A    between atoms: C_17  and  C_18
REMARK    7  A    between atoms: C_20  and  O_21
REMARK    8  A    between atoms: O_21  and  C_22
REMARK    9  A    between atoms: C_24  and  C_25
REMARK                            x       y       z     vdW  Elec       q    Type
REMARK                         _______ _______ _______ _____ _____    ______ ____
ROOT
ATOM      1  C   UNL     1       0.289  11.104  20.083  0.00  0.00    +0.000 C 
ATOM      2  C   UNL     1       1.367  11.357  19.016  0.00  0.00    +0.000 C 
ATOM      3  C   UNL     1       1.648   9.991  18.407  0.00  0.00    +0.000 C 
ATOM      4  N   UNL     1       1.429   9.051  19.505  0.00  0.00    +0.000 N 
ATOM      5  C   UNL     1       0.629   9.652  20.595  0.00  0.00    +0.000 C 
ATOM      6  C   UNL     1       1.434   9.630  21.900  0.00  0.00    +0.000 C 
ENDROOT
BRANCH   1  10
ATOM      7  C   UNL     1      -3.706  11.488  18.571  0.00  0.00    +0.000 A 
ATOM      8  C   UNL     1      -3.308  12.333  19.593  0.00  0.00    +0.000 A 
ATOM      9  C   UNL     1      -2.002  12.223  20.063  0.00  0.00    +0.000 A 
ATOM     10  C   UNL     1      -1.119  11.275  19.517  0.00  0.00    +0.000 A 
ATOM     11  C   UNL     1      -1.615  10.509  18.459  0.00  0.00    +0.000 A 
ATOM     12  N   UNL     1      -2.881  10.581  17.978  0.00  0.00    +0.000 NA
BRANCH   7  15
ATOM     13  C   UNL     1      -6.802  12.965  16.972  0.00  0.00    +0.000 C 
ATOM     14  N   UNL     1      -5.481  12.737  17.489  0.00  0.00    +0.000 N 
ATOM     15  C   UNL     1      -5.123  11.540  18.075  0.00  0.00    +0.000 C 
ATOM     16  O   UNL     1      -5.877  10.582  18.185  0.00  0.00    +0.000 OA
ATOM     17  H   UNL     1      -4.765  13.457  17.444  0.00  0.00    +0.000 HD
ENDBRANCH   7  15
ENDBRANCH   1  10
BRANCH   4  18
ATOM     18  C   UNL     1       1.810   7.729  19.455  0.00  0.00    +0.000 A 
ATOM     19  C   UNL     1       1.497   6.830  20.476  0.00  0.00    +0.000 A 
ATOM     20  C   UNL     1       1.956   5.507  20.459  0.00  0.00    +0.000 A 
ATOM     21  C   UNL     1       2.760   5.031  19.414  0.00  0.00    +0.000 A 
ATOM     22  C   UNL     1       3.080   5.894  18.364  0.00  0.00    +0.000 A 
ATOM     23  C   UNL     1       2.583   7.218  18.399  0.00  0.00    +0.000 A 
BRANCH  21  24
ATOM     24  C   UNL     1       3.203   3.675  19.523  0.00  0.00    +0.000 C 
ATOM     25  N   UNL     1       3.548   2.572  19.637  0.00  0.00    +0.000 NA
ENDBRANCH  21  24
BRANCH  22  26
ATOM     26  O   UNL     1       3.842   5.677  17.247  0.00  0.00    +0.000 OA
ATOM     27  C   UNL     1       5.158   6.199  17.155  0.00  0.00    +0.000 C 
ENDBRANCH  22  26
ENDBRANCH   4  18
BRANCH   1  28
ATOM     28  O   UNL     1       0.446  12.085  21.123  0.00  0.00    +0.000 OA
ATOM     29  H   UNL     1      -0.269  12.739  21.043  0.00  0.00    +0.000 HD
ENDBRANCH   1  28
TORSDOF 6
ENDMDL
