MODEL 1
REMARK VINA RESULT:      -8.1      0.000      0.000
REMARK  Name = 
REMARK  0 active torsions:
REMARK  status: ('A' for Active; 'I' for Inactive)
REMARK                            x       y       z     vdW  Elec       q    Type
REMARK                         _______ _______ _______ _____ _____    ______ ____
ROOT
ATOM      1  O   UNL     1       7.788   7.694  17.076  0.00  0.00    +0.000 OA
ATOM      2  C   UNL     1       6.990   6.835  17.403  0.00  0.00    +0.000 C 
ATOM      3  N   UNL     1       7.101   5.994  18.453  0.00  0.00    +0.000 N 
ATOM      4  C   UNL     1       6.016   5.177  18.541  0.00  0.00    +0.000 C 
ATOM      5  O   UNL     1       5.900   4.280  19.361  0.00  0.00    +0.000 OA
ATOM      6  C   UNL     1       4.987   5.600  17.465  0.00  0.00    +0.000 C 
ATOM      7  C   UNL     1       4.590   4.435  16.564  0.00  0.00    +0.000 C 
ATOM      8  C   UNL     1       3.427   3.574  17.076  0.00  0.00    +0.000 C 
ATOM      9  C   UNL     1       2.730   4.042  18.326  0.00  0.00    +0.000 A 
ATOM     10  C   UNL     1       1.893   3.154  19.017  0.00  0.00    +0.000 A 
ATOM     11  C   UNL     1       1.219   3.560  20.169  0.00  0.00    +0.000 A 
ATOM     12  C   UNL     1       1.357   4.865  20.632  0.00  0.00    +0.000 A 
ATOM     13  C   UNL     1       2.179   5.760  19.949  0.00  0.00    +0.000 A 
ATOM     14  C   UNL     1       2.880   5.351  18.806  0.00  0.00    +0.000 A 
ATOM     15  C   UNL     1       3.789   6.313  18.096  0.00  0.00    +0.000 C 
ATOM     16  N   UNL     1       5.814   6.565  16.752  0.00  0.00    +0.000 N 
ATOM     17  H   UNL     1       7.903   5.946  19.057  0.00  0.00    +0.000 HD
ATOM     18  H   UNL     1       5.511   7.149  15.980  0.00  0.00    +0.000 HD
ENDROOT
TORSDOF 0
ENDMDL
MODEL 2
REMARK VINA RESULT:      -7.8      1.111      1.466
REMARK  Name = 
REMARK  0 active torsions:
REMARK  status: ('A' for Active; 'I' for Inactive)
REMARK                            x       y       z     vdW  Elec       q    Type
REMARK                         _______ _______ _______ _____ _____    ______ ____
ROOT
ATOM      1  O   UNL     1       8.353   8.571  17.760  0.00  0.00    +0.000 OA
ATOM      2  C   UNL     1       7.656   7.574  17.724  0.00  0.00    +0.000 C 
ATOM      3  N   UNL     1       7.626   6.581  18.637  0.00  0.00    +0.000 N 
ATOM      4  C   UNL     1       6.711   5.631  18.296  0.00  0.00    +0.000 C 
ATOM      5  O   UNL     1       6.537   4.596  18.919  0.00  0.00    +0.000 OA
ATOM      6  C   UNL     1       5.948   6.107  17.037  0.00  0.00    +0.000 C 
ATOM      7  C   UNL     1       6.008   5.080  15.910  0.00  0.00    +0.000 C 
ATOM      8  C   UNL     1       4.915   4.003  15.943  0.00  0.00    +0.000 C 
ATOM      9  C   UNL     1       3.842   4.151  16.990  0.00  0.00    +0.000 A 
ATOM     10  C   UNL     1       3.015   3.056  17.283  0.00  0.00    +0.000 A 
ATOM     11  C   UNL     1       2.002   3.164  18.235  0.00  0.00    +0.000 A 
ATOM     12  C   UNL     1       1.788   4.373  18.890  0.00  0.00    +0.000 A 
ATOM     13  C   UNL     1       2.597   5.471  18.601  0.00  0.00    +0.000 A 
ATOM     14  C   UNL     1       3.635   5.361  17.666  0.00  0.00    +0.000 A 
ATOM     15  C   UNL     1       4.522   6.541  17.385  0.00  0.00    +0.000 C 
ATOM     16  N   UNL     1       6.757   7.278  16.731  0.00  0.00    +0.000 N 
ATOM     17  H   UNL     1       8.235   6.526  19.435  0.00  0.00    +0.000 HD
ATOM     18  H   UNL     1       6.575   7.948  15.991  0.00  0.00    +0.000 HD
ENDROOT
TORSDOF 0
ENDMDL
MODEL 3
REMARK VINA RESULT:      -7.8      1.174      1.281
REMARK  Name = 
REMARK  0 active torsions:
REMARK  status: ('A' for Active; 'I' for Inactive)
REMARK                            x       y       z     vdW  Elec       q    Type
REMARK                         _______ _______ _______ _____ _____    ______ ____
ROOT
ATOM      1  O   UNL     1       7.700   5.804  15.371  0.00  0.00    +0.000 OA
ATOM      2  C   UNL     1       6.848   5.330  16.101  0.00  0.00    +0.000 C 
ATOM      3  N   UNL     1       7.031   4.871  17.357  0.00  0.00    +0.000 N 
ATOM      4  C   UNL     1       5.858   4.433  17.892  0.00  0.00    +0.000 C 
ATOM      5  O   UNL     1       5.762   3.908  18.990  0.00  0.00    +0.000 OA
ATOM      6  C   UNL     1       4.713   4.739  16.896  0.00  0.00    +0.000 C 
ATOM      7  C   UNL     1       3.909   3.490  16.549  0.00  0.00    +0.000 C 
ATOM      8  C   UNL     1       2.750   3.167  17.502  0.00  0.00    +0.000 C 
ATOM      9  C   UNL     1       2.454   4.174  18.582  0.00  0.00    +0.000 A 
ATOM     10  C   UNL     1       1.640   3.801  19.662  0.00  0.00    +0.000 A 
ATOM     11  C   UNL     1       1.334   4.713  20.671  0.00  0.00    +0.000 A 
ATOM     12  C   UNL     1       1.818   6.016  20.602  0.00  0.00    +0.000 A 
ATOM     13  C   UNL     1       2.619   6.403  19.529  0.00  0.00    +0.000 A 
ATOM     14  C   UNL     1       2.954   5.482  18.526  0.00  0.00    +0.000 A 
ATOM     15  C   UNL     1       3.846   5.899  17.391  0.00  0.00    +0.000 C 
ATOM     16  N   UNL     1       5.526   5.177  15.770  0.00  0.00    +0.000 N 
ATOM     17  H   UNL     1       7.924   4.814  17.815  0.00  0.00    +0.000 HD
ATOM     18  H   UNL     1       5.173   5.540  14.891  0.00  0.00    +0.000 HD
ENDROOT
TORSDOF 0
ENDMDL
MODEL 4
REMARK VINA RESULT:      -7.7      1.879      2.470
REMARK  Name = 
REMARK  0 active torsions:
REMARK  status: ('A' for Active; 'I' for Inactive)
REMARK                            x       y       z     vdW  Elec       q    Type
REMARK                         _______ _______ _______ _____ _____    ______ ____
ROOT
ATOM      1  O   UNL     1       7.858   4.545  16.142  0.00  0.00    +0.000 OA
ATOM      2  C   UNL     1       6.714   4.525  16.559  0.00  0.00    +0.000 C 
ATOM      3  N   UNL     1       5.732   3.687  16.167  0.00  0.00    +0.000 N 
ATOM      4  C   UNL     1       4.583   3.925  16.858  0.00  0.00    +0.000 C 
ATOM      5  O   UNL     1       3.527   3.350  16.647  0.00  0.00    +0.000 OA
ATOM      6  C   UNL     1       4.865   4.999  17.936  0.00  0.00    +0.000 C 
ATOM      7  C   UNL     1       3.910   6.183  17.827  0.00  0.00    +0.000 C 
ATOM      8  C   UNL     1       2.585   6.031  18.586  0.00  0.00    +0.000 C 
ATOM      9  C   UNL     1       2.429   4.806  19.449  0.00  0.00    +0.000 A 
ATOM     10  C   UNL     1       1.151   4.446  19.903  0.00  0.00    +0.000 A 
ATOM     11  C   UNL     1       0.974   3.328  20.717  0.00  0.00    +0.000 A 
ATOM     12  C   UNL     1       2.074   2.568  21.105  0.00  0.00    +0.000 A 
ATOM     13  C   UNL     1       3.350   2.920  20.668  0.00  0.00    +0.000 A 
ATOM     14  C   UNL     1       3.531   4.028  19.828  0.00  0.00    +0.000 A 
ATOM     15  C   UNL     1       4.906   4.381  19.335  0.00  0.00    +0.000 C 
ATOM     16  N   UNL     1       6.213   5.364  17.520  0.00  0.00    +0.000 N 
ATOM     17  H   UNL     1       5.824   3.012  15.427  0.00  0.00    +0.000 HD
ATOM     18  H   UNL     1       6.824   6.016  18.000  0.00  0.00    +0.000 HD
ENDROOT
TORSDOF 0
ENDMDL
MODEL 5
REMARK VINA RESULT:      -7.6      2.771      5.126
REMARK  Name = 
REMARK  0 active torsions:
REMARK  status: ('A' for Active; 'I' for Inactive)
REMARK                            x       y       z     vdW  Elec       q    Type
REMARK                         _______ _______ _______ _____ _____    ______ ____
ROOT
ATOM      1  O   UNL     1       1.785   2.797  22.132  0.00  0.00    +0.000 OA
ATOM      2  C   UNL     1       2.283   3.460  21.241  0.00  0.00    +0.000 C 
ATOM      3  N   UNL     1       2.305   4.807  21.158  0.00  0.00    +0.000 N 
ATOM      4  C   UNL     1       2.965   5.217  20.040  0.00  0.00    +0.000 C 
ATOM      5  O   UNL     1       3.068   6.384  19.696  0.00  0.00    +0.000 OA
ATOM      6  C   UNL     1       3.560   3.976  19.332  0.00  0.00    +0.000 C 
ATOM      7  C   UNL     1       3.122   3.885  17.874  0.00  0.00    +0.000 C 
ATOM      8  C   UNL     1       4.001   4.651  16.875  0.00  0.00    +0.000 C 
ATOM      9  C   UNL     1       5.254   5.289  17.416  0.00  0.00    +0.000 A 
ATOM     10  C   UNL     1       5.918   6.254  16.646  0.00  0.00    +0.000 A 
ATOM     11  C   UNL     1       7.089   6.852  17.110  0.00  0.00    +0.000 A 
ATOM     12  C   UNL     1       7.622   6.476  18.340  0.00  0.00    +0.000 A 
ATOM     13  C   UNL     1       6.977   5.511  19.110  0.00  0.00    +0.000 A 
ATOM     14  C   UNL     1       5.784   4.926  18.661  0.00  0.00    +0.000 A 
ATOM     15  C   UNL     1       5.078   3.910  19.513  0.00  0.00    +0.000 C 
ATOM     16  N   UNL     1       2.923   2.947  20.142  0.00  0.00    +0.000 N 
ATOM     17  H   UNL     1       1.848   5.422  21.810  0.00  0.00    +0.000 HD
ATOM     18  H   UNL     1       3.082   1.948  20.063  0.00  0.00    +0.000 HD
ENDROOT
TORSDOF 0
ENDMDL
MODEL 6
REMARK VINA RESULT:      -7.5      1.921      2.737
REMARK  Name = 
REMARK  0 active torsions:
REMARK  status: ('A' for Active; 'I' for Inactive)
REMARK                            x       y       z     vdW  Elec       q    Type
REMARK                         _______ _______ _______ _____ _____    ______ ____
ROOT
ATOM      1  O   UNL     1       7.273   5.182  13.867  0.00  0.00    +0.000 OA
ATOM      2  C   UNL     1       6.611   5.300  14.881  0.00  0.00    +0.000 C 
ATOM      3  N   UNL     1       5.701   6.263  15.139  0.00  0.00    +0.000 N 
ATOM      4  C   UNL     1       5.127   6.079  16.360  0.00  0.00    +0.000 C 
ATOM      5  O   UNL     1       4.322   6.849  16.860  0.00  0.00    +0.000 OA
ATOM      6  C   UNL     1       5.648   4.750  16.958  0.00  0.00    +0.000 C 
ATOM      7  C   UNL     1       6.259   4.946  18.342  0.00  0.00    +0.000 C 
ATOM      8  C   UNL     1       5.269   4.874  19.513  0.00  0.00    +0.000 C 
ATOM      9  C   UNL     1       3.849   4.494  19.185  0.00  0.00    +0.000 A 
ATOM     10  C   UNL     1       2.843   4.721  20.136  0.00  0.00    +0.000 A 
ATOM     11  C   UNL     1       1.521   4.366  19.871  0.00  0.00    +0.000 A 
ATOM     12  C   UNL     1       1.192   3.759  18.661  0.00  0.00    +0.000 A 
ATOM     13  C   UNL     1       2.184   3.519  17.713  0.00  0.00    +0.000 A 
ATOM     14  C   UNL     1       3.511   3.899  17.962  0.00  0.00    +0.000 A 
ATOM     15  C   UNL     1       4.568   3.667  16.920  0.00  0.00    +0.000 C 
ATOM     16  N   UNL     1       6.671   4.459  15.962  0.00  0.00    +0.000 N 
ATOM     17  H   UNL     1       5.511   7.041  14.530  0.00  0.00    +0.000 HD
ATOM     18  H   UNL     1       7.242   3.621  15.927  0.00  0.00    +0.000 HD
ENDROOT
TORSDOF 0
ENDMDL
MODEL 7
REMARK VINA RESULT:      -7.4      1.527      1.954
REMARK  Name = 
REMARK  0 active torsions:
REMARK  status: ('A' for Active; 'I' for Inactive)
REMARK                            x       y       z     vdW  Elec       q    Type
REMARK                         _______ _______ _______ _____ _____    ______ ____
ROOT
ATOM      1  O   UNL     1       7.788   4.652  15.524  0.00  0.00    +0.000 OA
ATOM      2  C   UNL     1       6.962   4.609  16.417  0.00  0.00    +0.000 C 
ATOM      3  N   UNL     1       7.175   4.878  17.722  0.00  0.00    +0.000 N 
ATOM      4  C   UNL     1       6.024   4.756  18.440  0.00  0.00    +0.000 C 
ATOM      5  O   UNL     1       5.959   4.880  19.653  0.00  0.00    +0.000 OA
ATOM      6  C   UNL     1       4.858   4.470  17.464  0.00  0.00    +0.000 C 
ATOM      7  C   UNL     1       4.094   3.205  17.841  0.00  0.00    +0.000 C 
ATOM      8  C   UNL     1       2.957   3.400  18.855  0.00  0.00    +0.000 C 
ATOM      9  C   UNL     1       2.639   4.816  19.259  0.00  0.00    +0.000 A 
ATOM     10  C   UNL     1       1.852   5.042  20.398  0.00  0.00    +0.000 A 
ATOM     11  C   UNL     1       1.526   6.340  20.791  0.00  0.00    +0.000 A 
ATOM     12  C   UNL     1       1.964   7.426  20.038  0.00  0.00    +0.000 A 
ATOM     13  C   UNL     1       2.738   7.214  18.900  0.00  0.00    +0.000 A 
ATOM     14  C   UNL     1       3.093   5.913  18.515  0.00  0.00    +0.000 A 
ATOM     15  C   UNL     1       3.956   5.696  17.305  0.00  0.00    +0.000 C 
ATOM     16  N   UNL     1       5.642   4.275  16.252  0.00  0.00    +0.000 N 
ATOM     17  H   UNL     1       8.075   5.089  18.117  0.00  0.00    +0.000 HD
ATOM     18  H   UNL     1       5.267   4.117  15.323  0.00  0.00    +0.000 HD
ENDROOT
TORSDOF 0
ENDMDL
MODEL 8
REMARK VINA RESULT:      -7.3      2.775      5.282
REMARK  Name = 
REMARK  0 active torsions:
REMARK  status: ('A' for Active; 'I' for Inactive)
REMARK                            x       y       z     vdW  Elec       q    Type
REMARK                         _______ _______ _______ _____ _____    ______ ____
ROOT
ATOM      1  O   UNL     1       0.250   1.929  18.877  0.00  0.00    +0.000 OA
ATOM      2  C   UNL     1       1.168   2.728  18.827  0.00  0.00    +0.000 C 
ATOM      3  N   UNL     1       2.232   2.781  19.655  0.00  0.00    +0.000 N 
ATOM      4  C   UNL     1       3.080   3.785  19.296  0.00  0.00    +0.000 C 
ATOM      5  O   UNL     1       4.083   4.089  19.923  0.00  0.00    +0.000 OA
ATOM      6  C   UNL     1       2.566   4.424  17.984  0.00  0.00    +0.000 C 
ATOM      7  C   UNL     1       2.376   5.932  18.118  0.00  0.00    +0.000 C 
ATOM      8  C   UNL     1       3.622   6.780  17.830  0.00  0.00    +0.000 C 
ATOM      9  C   UNL     1       4.841   6.053  17.325  0.00  0.00    +0.000 A 
ATOM     10  C   UNL     1       6.084   6.702  17.350  0.00  0.00    +0.000 A 
ATOM     11  C   UNL     1       7.230   6.063  16.876  0.00  0.00    +0.000 A 
ATOM     12  C   UNL     1       7.143   4.777  16.351  0.00  0.00    +0.000 A 
ATOM     13  C   UNL     1       5.912   4.126  16.311  0.00  0.00    +0.000 A 
ATOM     14  C   UNL     1       4.761   4.751  16.812  0.00  0.00    +0.000 A 
ATOM     15  C   UNL     1       3.444   4.028  16.795  0.00  0.00    +0.000 C 
ATOM     16  N   UNL     1       1.286   3.733  17.901  0.00  0.00    +0.000 N 
ATOM     17  H   UNL     1       2.355   2.190  20.459  0.00  0.00    +0.000 HD
ATOM     18  H   UNL     1       0.621   3.807  17.139  0.00  0.00    +0.000 HD
ENDROOT
TORSDOF 0
ENDMDL
MODEL 9
REMARK VINA RESULT:      -7.3      3.030      5.417
REMARK  Name = 
REMARK  0 active torsions:
REMARK  status: ('A' for Active; 'I' for Inactive)
REMARK                            x       y       z     vdW  Elec       q    Type
REMARK                         _______ _______ _______ _____ _____    ______ ____
ROOT
ATOM      1  O   UNL     1      -0.105   2.160  18.876  0.00  0.00    +0.000 OA
ATOM      2  C   UNL     1       1.062   2.509  18.886  0.00  0.00    +0.000 C 
ATOM      3  N   UNL     1       2.139   1.706  19.009  0.00  0.00    +0.000 N 
ATOM      4  C   UNL     1       3.294   2.427  18.956  0.00  0.00    +0.000 C 
ATOM      5  O   UNL     1       4.406   1.947  19.111  0.00  0.00    +0.000 OA
ATOM      6  C   UNL     1       2.944   3.902  18.649  0.00  0.00    +0.000 C 
ATOM      7  C   UNL     1       3.526   4.856  19.687  0.00  0.00    +0.000 C 
ATOM      8  C   UNL     1       4.961   5.329  19.415  0.00  0.00    +0.000 C 
ATOM      9  C   UNL     1       5.581   4.912  18.107  0.00  0.00    +0.000 A 
ATOM     10  C   UNL     1       6.968   5.030  17.937  0.00  0.00    +0.000 A 
ATOM     11  C   UNL     1       7.571   4.669  16.733  0.00  0.00    +0.000 A 
ATOM     12  C   UNL     1       6.793   4.205  15.676  0.00  0.00    +0.000 A 
ATOM     13  C   UNL     1       5.413   4.092  15.829  0.00  0.00    +0.000 A 
ATOM     14  C   UNL     1       4.803   4.428  17.046  0.00  0.00    +0.000 A 
ATOM     15  C   UNL     1       3.318   4.271  17.212  0.00  0.00    +0.000 C 
ATOM     16  N   UNL     1       1.496   3.805  18.771  0.00  0.00    +0.000 N 
ATOM     17  H   UNL     1       2.091   0.715  19.170  0.00  0.00    +0.000 HD
ATOM     18  H   UNL     1       0.834   4.552  18.587  0.00  0.00    +0.000 HD
ENDROOT
TORSDOF 0
ENDMDL
