MODEL 1
REMARK VINA RESULT:      -9.2      0.000      0.000
REMARK  Name = 
REMARK  4 active torsions:
REMARK  status: ('A' for Active; 'I' for Inactive)
REMARK    1  A    between atoms: N_3  and  C_4
REMARK    2  A    between atoms: C_7  and  C_8
REMARK    3  A    between atoms: N_15  and  C_16
REMARK    4  A    between atoms: C_20  and  C_22
REMARK                            x       y       z     vdW  Elec       q    Type
REMARK                         _______ _______ _______ _____ _____    ______ ____
ROOT
ATOM      1  O   UNL     1       7.976   8.943  17.019  0.00  0.00    +0.000 OA
ATOM      2  C   UNL     1       8.195   8.358  18.070  0.00  0.00    +0.000 C 
ATOM      3  N   UNL     1       8.842   8.872  19.175  0.00  0.00    +0.000 N 
ATOM      4  N   UNL     1       7.811   7.046  18.278  0.00  0.00    +0.000 N 
ATOM      5  H   UNL     1       9.077   8.216  19.903  0.00  0.00    +0.000 HD
ATOM      6  H   UNL     1       8.174   6.569  19.086  0.00  0.00    +0.000 HD
ENDROOT
BRANCH   4   7
ATOM      7  C   UNL     1       7.218   6.243  17.206  0.00  0.00    +0.000 C 
ATOM      8  C   UNL     1       5.853   6.785  16.790  0.00  0.00    +0.000 C 
ATOM      9  C   UNL     1       4.769   6.488  17.825  0.00  0.00    +0.000 C 
ATOM     10  N   UNL     1       4.731   5.065  18.167  0.00  0.00    +0.000 N 
ATOM     11  C   UNL     1       3.489   4.432  18.216  0.00  0.00    +0.000 C 
ATOM     12  O   UNL     1       2.454   5.042  17.943  0.00  0.00    +0.000 OA
ATOM     13  C   UNL     1       6.008   4.501  18.609  0.00  0.00    +0.000 C 
ATOM     14  C   UNL     1       7.123   4.763  17.600  0.00  0.00    +0.000 C 
BRANCH  11  15
ATOM     15  C   UNL     1       3.439   2.939  18.543  0.00  0.00    +0.000 C 
ATOM     16  C   UNL     1       2.326   2.212  17.805  0.00  0.00    +0.000 C 
ATOM     17  C   UNL     1       1.162   2.274  18.768  0.00  0.00    +0.000 C 
ATOM     18  O   UNL     1       1.717   2.291  20.085  0.00  0.00    +0.000 OA
ATOM     19  C   UNL     1       3.099   2.663  19.996  0.00  0.00    +0.000 C 
ENDBRANCH  11  15
ENDBRANCH   4   7
BRANCH   3  20
ATOM     20  C   UNL     1       9.363  10.177  19.317  0.00  0.00    +0.000 A 
ATOM     21  C   UNL     1       9.464  10.844  20.540  0.00  0.00    +0.000 A 
ATOM     22  C   UNL     1       9.948  12.158  20.601  0.00  0.00    +0.000 A 
ATOM     23  C   UNL     1      10.334  12.828  19.434  0.00  0.00    +0.000 A 
ATOM     24  C   UNL     1      10.257  12.143  18.226  0.00  0.00    +0.000 A 
ATOM     25  F   UNL     1      10.623  12.753  17.089  0.00  0.00    +0.000 F 
ATOM     26  C   UNL     1       9.792  10.831  18.158  0.00  0.00    +0.000 A 
BRANCH  23  27
ATOM     27  C   UNL     1      10.810  14.249  19.449  0.00  0.00    +0.000 C 
ATOM     28  F   UNL     1      12.062  14.398  18.923  0.00  0.00    +0.000 F 
ATOM     29  F   UNL     1      10.013  15.086  18.731  0.00  0.00    +0.000 F 
ATOM     30  F   UNL     1      10.881  14.770  20.705  0.00  0.00    +0.000 F 
ENDBRANCH  23  27
ENDBRANCH   3  20
TORSDOF 4
ENDMDL
MODEL 2
REMARK VINA RESULT:      -9.1      0.617      1.324
REMARK  Name = 
REMARK  4 active torsions:
REMARK  status: ('A' for Active; 'I' for Inactive)
REMARK    1  A    between atoms: N_3  and  C_4
REMARK    2  A    between atoms: C_7  and  C_8
REMARK    3  A    between atoms: N_15  and  C_16
REMARK    4  A    between atoms: C_20  and  C_22
REMARK                            x       y       z     vdW  Elec       q    Type
REMARK                         _______ _______ _______ _____ _____    ______ ____
ROOT
ATOM      1  O   UNL     1       7.816   8.796  16.968  0.00  0.00    +0.000 OA
ATOM      2  C   UNL     1       8.111   8.246  18.020  0.00  0.00    +0.000 C 
ATOM      3  N   UNL     1       8.792   8.814  19.078  0.00  0.00    +0.000 N 
ATOM      4  N   UNL     1       7.793   6.926  18.277  0.00  0.00    +0.000 N 
ATOM      5  H   UNL     1       9.089   8.186  19.808  0.00  0.00    +0.000 HD
ATOM      6  H   UNL     1       8.215   6.484  19.077  0.00  0.00    +0.000 HD
ENDROOT
BRANCH   4   7
ATOM      7  C   UNL     1       7.180   6.073  17.255  0.00  0.00    +0.000 C 
ATOM      8  C   UNL     1       5.842   6.637  16.784  0.00  0.00    +0.000 C 
ATOM      9  C   UNL     1       4.736   6.455  17.822  0.00  0.00    +0.000 C 
ATOM     10  N   UNL     1       4.638   5.063  18.262  0.00  0.00    +0.000 N 
ATOM     11  C   UNL     1       3.372   4.483  18.338  0.00  0.00    +0.000 C 
ATOM     12  O   UNL     1       2.364   5.113  18.008  0.00  0.00    +0.000 OA
ATOM     13  C   UNL     1       5.887   4.482  18.760  0.00  0.00    +0.000 C 
ATOM     14  C   UNL     1       7.022   4.629  17.750  0.00  0.00    +0.000 C 
BRANCH  11  15
ATOM     15  C   UNL     1       3.259   3.020  18.767  0.00  0.00    +0.000 C 
ATOM     16  C   UNL     1       2.179   2.265  18.008  0.00  0.00    +0.000 C 
ATOM     17  C   UNL     1       0.954   2.424  18.880  0.00  0.00    +0.000 C 
ATOM     18  O   UNL     1       1.419   2.526  20.228  0.00  0.00    +0.000 OA
ATOM     19  C   UNL     1       2.813   2.860  20.210  0.00  0.00    +0.000 C 
ENDBRANCH  11  15
ENDBRANCH   4   7
BRANCH   3  20
ATOM     20  C   UNL     1       9.265  10.141  19.163  0.00  0.00    +0.000 A 
ATOM     21  C   UNL     1       9.575  10.927  18.050  0.00  0.00    +0.000 A 
ATOM     22  C   UNL     1      10.086  12.223  18.209  0.00  0.00    +0.000 A 
ATOM     23  C   UNL     1      10.300  12.750  19.488  0.00  0.00    +0.000 A 
ATOM     24  C   UNL     1       9.959  11.970  20.588  0.00  0.00    +0.000 A 
ATOM     25  F   UNL     1      10.147  12.445  21.828  0.00  0.00    +0.000 F 
ATOM     26  C   UNL     1       9.436  10.686  20.439  0.00  0.00    +0.000 A 
BRANCH  23  27
ATOM     27  C   UNL     1      10.889  14.111  19.703  0.00  0.00    +0.000 C 
ATOM     28  F   UNL     1      12.221  14.076  20.003  0.00  0.00    +0.000 F 
ATOM     29  F   UNL     1      10.784  14.916  18.611  0.00  0.00    +0.000 F 
ATOM     30  F   UNL     1      10.304  14.784  20.733  0.00  0.00    +0.000 F 
ENDBRANCH  23  27
ENDBRANCH   3  20
TORSDOF 4
ENDMDL
MODEL 3
REMARK VINA RESULT:      -8.5      1.362      1.621
REMARK  Name = 
REMARK  4 active torsions:
REMARK  status: ('A' for Active; 'I' for Inactive)
REMARK    1  A    between atoms: N_3  and  C_4
REMARK    2  A    between atoms: C_7  and  C_8
REMARK    3  A    between atoms: N_15  and  C_16
REMARK    4  A    between atoms: C_20  and  C_22
REMARK                            x       y       z     vdW  Elec       q    Type
REMARK                         _______ _______ _______ _____ _____    ______ ____
ROOT
ATOM      1  O   UNL     1       8.534   7.306  18.891  0.00  0.00    +0.000 OA
ATOM      2  C   UNL     1       7.944   7.783  17.933  0.00  0.00    +0.000 C 
ATOM      3  N   UNL     1       7.904   9.116  17.576  0.00  0.00    +0.000 N 
ATOM      4  N   UNL     1       7.201   7.008  17.063  0.00  0.00    +0.000 N 
ATOM      5  H   UNL     1       7.251   9.367  16.851  0.00  0.00    +0.000 HD
ATOM      6  H   UNL     1       6.599   7.477  16.407  0.00  0.00    +0.000 HD
ENDROOT
BRANCH   4   7
ATOM      7  C   UNL     1       6.985   5.579  17.304  0.00  0.00    +0.000 C 
ATOM      8  C   UNL     1       5.973   4.993  16.322  0.00  0.00    +0.000 C 
ATOM      9  C   UNL     1       4.541   5.422  16.638  0.00  0.00    +0.000 C 
ATOM     10  N   UNL     1       4.196   5.150  18.034  0.00  0.00    +0.000 N 
ATOM     11  C   UNL     1       2.968   4.547  18.305  0.00  0.00    +0.000 C 
ATOM     12  O   UNL     1       2.208   4.217  17.392  0.00  0.00    +0.000 OA
ATOM     13  C   UNL     1       5.115   5.723  19.021  0.00  0.00    +0.000 C 
ATOM     14  C   UNL     1       6.561   5.311  18.754  0.00  0.00    +0.000 C 
BRANCH  11  15
ATOM     15  C   UNL     1       2.610   4.231  19.758  0.00  0.00    +0.000 C 
ATOM     16  C   UNL     1       3.038   2.834  20.179  0.00  0.00    +0.000 C 
ATOM     17  C   UNL     1       1.820   1.986  19.887  0.00  0.00    +0.000 C 
ATOM     18  O   UNL     1       0.680   2.833  20.050  0.00  0.00    +0.000 OA
ATOM     19  C   UNL     1       1.112   4.199  20.003  0.00  0.00    +0.000 C 
ENDBRANCH  11  15
ENDBRANCH   4   7
BRANCH   3  20
ATOM     20  C   UNL     1       8.550  10.185  18.234  0.00  0.00    +0.000 A 
ATOM     21  C   UNL     1       9.223  10.055  19.452  0.00  0.00    +0.000 A 
ATOM     22  C   UNL     1       9.802  11.170  20.072  0.00  0.00    +0.000 A 
ATOM     23  C   UNL     1       9.712  12.438  19.485  0.00  0.00    +0.000 A 
ATOM     24  C   UNL     1       9.066  12.550  18.258  0.00  0.00    +0.000 A 
ATOM     25  F   UNL     1       8.964  13.747  17.664  0.00  0.00    +0.000 F 
ATOM     26  C   UNL     1       8.500  11.443  17.626  0.00  0.00    +0.000 A 
BRANCH  23  27
ATOM     27  C   UNL     1      10.274  13.664  20.138  0.00  0.00    +0.000 C 
ATOM     28  F   UNL     1      10.745  13.429  21.398  0.00  0.00    +0.000 F 
ATOM     29  F   UNL     1      11.321  14.200  19.453  0.00  0.00    +0.000 F 
ATOM     30  F   UNL     1       9.355  14.659  20.274  0.00  0.00    +0.000 F 
ENDBRANCH  23  27
ENDBRANCH   3  20
TORSDOF 4
ENDMDL
MODEL 4
REMARK VINA RESULT:      -8.4      1.508      1.936
REMARK  Name = 
REMARK  4 active torsions:
REMARK  status: ('A' for Active; 'I' for Inactive)
REMARK    1  A    between atoms: N_3  and  C_4
REMARK    2  A    between atoms: C_7  and  C_8
REMARK    3  A    between atoms: N_15  and  C_16
REMARK    4  A    between atoms: C_20  and  C_22
REMARK                            x       y       z     vdW  Elec       q    Type
REMARK                         _______ _______ _______ _____ _____    ______ ____
ROOT
ATOM      1  O   UNL     1       8.732   7.625  18.804  0.00  0.00    +0.000 OA
ATOM      2  C   UNL     1       7.990   8.016  17.916  0.00  0.00    +0.000 C 
ATOM      3  N   UNL     1       7.774   9.329  17.547  0.00  0.00    +0.000 N 
ATOM      4  N   UNL     1       7.235   7.148  17.149  0.00  0.00    +0.000 N 
ATOM      5  H   UNL     1       7.020   9.494  16.899  0.00  0.00    +0.000 HD
ATOM      6  H   UNL     1       6.516   7.538  16.562  0.00  0.00    +0.000 HD
ENDROOT
BRANCH   4   7
ATOM      7  C   UNL     1       7.194   5.712  17.434  0.00  0.00    +0.000 C 
ATOM      8  C   UNL     1       6.321   4.966  16.428  0.00  0.00    +0.000 C 
ATOM      9  C   UNL     1       4.830   5.212  16.658  0.00  0.00    +0.000 C 
ATOM     10  N   UNL     1       4.450   4.942  18.045  0.00  0.00    +0.000 N 
ATOM     11  C   UNL     1       3.298   4.191  18.279  0.00  0.00    +0.000 C 
ATOM     12  O   UNL     1       2.638   3.734  17.343  0.00  0.00    +0.000 OA
ATOM     13  C   UNL     1       5.233   5.662  19.052  0.00  0.00    +0.000 C 
ATOM     14  C   UNL     1       6.732   5.437  18.871  0.00  0.00    +0.000 C 
BRANCH  11  15
ATOM     15  C   UNL     1       2.907   3.876  19.723  0.00  0.00    +0.000 C 
ATOM     16  C   UNL     1       2.309   2.487  19.882  0.00  0.00    +0.000 C 
ATOM     17  C   UNL     1       0.823   2.721  19.724  0.00  0.00    +0.000 C 
ATOM     18  O   UNL     1       0.561   4.042  20.202  0.00  0.00    +0.000 OA
ATOM     19  C   UNL     1       1.795   4.770  20.242  0.00  0.00    +0.000 C 
ENDBRANCH  11  15
ENDBRANCH   4   7
BRANCH   3  20
ATOM     20  C   UNL     1       8.380  10.474  18.109  0.00  0.00    +0.000 A 
ATOM     21  C   UNL     1       8.176  11.772  17.634  0.00  0.00    +0.000 A 
ATOM     22  C   UNL     1       8.847  12.858  18.211  0.00  0.00    +0.000 A 
ATOM     23  C   UNL     1       9.740  12.661  19.271  0.00  0.00    +0.000 A 
ATOM     24  C   UNL     1       9.912  11.368  19.754  0.00  0.00    +0.000 A 
ATOM     25  F   UNL     1      10.756  11.142  20.771  0.00  0.00    +0.000 F 
ATOM     26  C   UNL     1       9.236  10.283  19.197  0.00  0.00    +0.000 A 
BRANCH  23  27
ATOM     27  C   UNL     1      10.515  13.787  19.884  0.00  0.00    +0.000 C 
ATOM     28  F   UNL     1      10.166  14.031  21.182  0.00  0.00    +0.000 F 
ATOM     29  F   UNL     1      11.857  13.562  19.905  0.00  0.00    +0.000 F 
ATOM     30  F   UNL     1      10.334  14.969  19.233  0.00  0.00    +0.000 F 
ENDBRANCH  23  27
ENDBRANCH   3  20
TORSDOF 4
ENDMDL
MODEL 5
REMARK VINA RESULT:      -8.2      1.038      1.256
REMARK  Name = 
REMARK  4 active torsions:
REMARK  status: ('A' for Active; 'I' for Inactive)
REMARK    1  A    between atoms: N_3  and  C_4
REMARK    2  A    between atoms: C_7  and  C_8
REMARK    3  A    between atoms: N_15  and  C_16
REMARK    4  A    between atoms: C_20  and  C_22
REMARK                            x       y       z     vdW  Elec       q    Type
REMARK                         _______ _______ _______ _____ _____    ______ ____
ROOT
ATOM      1  O   UNL     1       7.819   8.630  16.972  0.00  0.00    +0.000 OA
ATOM      2  C   UNL     1       8.167   8.248  18.080  0.00  0.00    +0.000 C 
ATOM      3  N   UNL     1       8.853   8.986  19.023  0.00  0.00    +0.000 N 
ATOM      4  N   UNL     1       7.913   6.967  18.532  0.00  0.00    +0.000 N 
ATOM      5  H   UNL     1       9.197   8.481  19.824  0.00  0.00    +0.000 HD
ATOM      6  H   UNL     1       8.377   6.660  19.371  0.00  0.00    +0.000 HD
ENDROOT
BRANCH   4   7
ATOM      7  C   UNL     1       7.309   5.954  17.663  0.00  0.00    +0.000 C 
ATOM      8  C   UNL     1       6.126   6.521  16.882  0.00  0.00    +0.000 C 
ATOM      9  C   UNL     1       4.893   6.726  17.761  0.00  0.00    +0.000 C 
ATOM     10  N   UNL     1       4.551   5.509  18.498  0.00  0.00    +0.000 N 
ATOM     11  C   UNL     1       3.216   5.106  18.524  0.00  0.00    +0.000 C 
ATOM     12  O   UNL     1       2.351   5.736  17.912  0.00  0.00    +0.000 OA
ATOM     13  C   UNL     1       5.641   4.943  19.296  0.00  0.00    +0.000 C 
ATOM     14  C   UNL     1       6.895   4.707  18.457  0.00  0.00    +0.000 C 
BRANCH  11  15
ATOM     15  C   UNL     1       2.852   3.820  19.266  0.00  0.00    +0.000 C 
ATOM     16  C   UNL     1       3.411   2.575  18.595  0.00  0.00    +0.000 C 
ATOM     17  C   UNL     1       2.297   2.139  17.670  0.00  0.00    +0.000 C 
ATOM     18  O   UNL     1       1.071   2.546  18.282  0.00  0.00    +0.000 OA
ATOM     19  C   UNL     1       1.359   3.543  19.271  0.00  0.00    +0.000 C 
ENDBRANCH  11  15
ENDBRANCH   4   7
BRANCH   3  20
ATOM     20  C   UNL     1       9.271  10.329  18.903  0.00  0.00    +0.000 A 
ATOM     21  C   UNL     1      10.341  10.876  19.615  0.00  0.00    +0.000 A 
ATOM     22  C   UNL     1      10.672  12.232  19.482  0.00  0.00    +0.000 A 
ATOM     23  C   UNL     1       9.930  13.064  18.636  0.00  0.00    +0.000 A 
ATOM     24  C   UNL     1       8.886  12.502  17.909  0.00  0.00    +0.000 A 
ATOM     25  F   UNL     1       8.156  13.269  17.086  0.00  0.00    +0.000 F 
ATOM     26  C   UNL     1       8.560  11.151  18.024  0.00  0.00    +0.000 A 
BRANCH  23  27
ATOM     27  C   UNL     1      10.219  14.529  18.501  0.00  0.00    +0.000 C 
ATOM     28  F   UNL     1      11.260  14.942  19.282  0.00  0.00    +0.000 F 
ATOM     29  F   UNL     1      10.550  14.892  17.232  0.00  0.00    +0.000 F 
ATOM     30  F   UNL     1       9.164  15.311  18.860  0.00  0.00    +0.000 F 
ENDBRANCH  23  27
ENDBRANCH   3  20
TORSDOF 4
ENDMDL
MODEL 6
REMARK VINA RESULT:      -8.2      7.665      9.981
REMARK  Name = 
REMARK  4 active torsions:
REMARK  status: ('A' for Active; 'I' for Inactive)
REMARK    1  A    between atoms: N_3  and  C_4
REMARK    2  A    between atoms: C_7  and  C_8
REMARK    3  A    between atoms: N_15  and  C_16
REMARK    4  A    between atoms: C_20  and  C_22
REMARK                            x       y       z     vdW  Elec       q    Type
REMARK                         _______ _______ _______ _____ _____    ______ ____
ROOT
ATOM      1  O   UNL     1       2.009   9.213  17.202  0.00  0.00    +0.000 OA
ATOM      2  C   UNL     1       1.895   8.749  18.327  0.00  0.00    +0.000 C 
ATOM      3  N   UNL     1       2.487   7.596  18.802  0.00  0.00    +0.000 N 
ATOM      4  N   UNL     1       1.111   9.347  19.296  0.00  0.00    +0.000 N 
ATOM      5  H   UNL     1       2.173   7.269  19.701  0.00  0.00    +0.000 HD
ATOM      6  H   UNL     1       0.916   8.826  20.135  0.00  0.00    +0.000 HD
ENDROOT
BRANCH   4   7
ATOM      7  C   UNL     1       0.279  10.514  18.994  0.00  0.00    +0.000 C 
ATOM      8  C   UNL     1       1.072  11.813  19.119  0.00  0.00    +0.000 C 
ATOM      9  C   UNL     1       1.346  12.189  20.575  0.00  0.00    +0.000 C 
ATOM     10  N   UNL     1       0.116  12.201  21.367  0.00  0.00    +0.000 N 
ATOM     11  C   UNL     1      -0.110  13.281  22.219  0.00  0.00    +0.000 C 
ATOM     12  O   UNL     1       0.687  14.220  22.278  0.00  0.00    +0.000 OA
ATOM     13  C   UNL     1      -0.666  10.963  21.313  0.00  0.00    +0.000 C 
ATOM     14  C   UNL     1      -0.977  10.552  19.876  0.00  0.00    +0.000 C 
BRANCH  11  15
ATOM     15  C   UNL     1      -1.406  13.319  23.030  0.00  0.00    +0.000 C 
ATOM     16  C   UNL     1      -2.621  13.656  22.180  0.00  0.00    +0.000 C 
ATOM     17  C   UNL     1      -2.725  15.161  22.290  0.00  0.00    +0.000 C 
ATOM     18  O   UNL     1      -2.204  15.517  23.573  0.00  0.00    +0.000 OA
ATOM     19  C   UNL     1      -1.421  14.424  24.070  0.00  0.00    +0.000 C 
ENDBRANCH  11  15
ENDBRANCH   4   7
BRANCH   3  20
ATOM     20  C   UNL     1       3.354   6.738  18.090  0.00  0.00    +0.000 A 
ATOM     21  C   UNL     1       3.059   5.403  17.803  0.00  0.00    +0.000 A 
ATOM     22  C   UNL     1       3.988   4.594  17.132  0.00  0.00    +0.000 A 
ATOM     23  C   UNL     1       5.230   5.109  16.745  0.00  0.00    +0.000 A 
ATOM     24  C   UNL     1       5.500   6.448  17.010  0.00  0.00    +0.000 A 
ATOM     25  F   UNL     1       6.678   6.976  16.649  0.00  0.00    +0.000 F 
ATOM     26  C   UNL     1       4.576   7.264  17.662  0.00  0.00    +0.000 A 
BRANCH  23  27
ATOM     27  C   UNL     1       6.270   4.267  16.070  0.00  0.00    +0.000 C 
ATOM     28  F   UNL     1       5.835   3.002  15.792  0.00  0.00    +0.000 F 
ATOM     29  F   UNL     1       6.680   4.780  14.878  0.00  0.00    +0.000 F 
ATOM     30  F   UNL     1       7.392   4.106  16.825  0.00  0.00    +0.000 F 
ENDBRANCH  23  27
ENDBRANCH   3  20
TORSDOF 4
ENDMDL
MODEL 7
REMARK VINA RESULT:      -8.0      7.909     10.202
REMARK  Name = 
REMARK  4 active torsions:
REMARK  status: ('A' for Active; 'I' for Inactive)
REMARK    1  A    between atoms: N_3  and  C_4
REMARK    2  A    between atoms: C_7  and  C_8
REMARK    3  A    between atoms: N_15  and  C_16
REMARK    4  A    between atoms: C_20  and  C_22
REMARK                            x       y       z     vdW  Elec       q    Type
REMARK                         _______ _______ _______ _____ _____    ______ ____
ROOT
ATOM      1  O   UNL     1       2.000   9.284  17.078  0.00  0.00    +0.000 OA
ATOM      2  C   UNL     1       1.954   8.816  18.206  0.00  0.00    +0.000 C 
ATOM      3  N   UNL     1       2.607   7.685  18.652  0.00  0.00    +0.000 N 
ATOM      4  N   UNL     1       1.195   9.387  19.210  0.00  0.00    +0.000 N 
ATOM      5  H   UNL     1       2.346   7.347  19.565  0.00  0.00    +0.000 HD
ATOM      6  H   UNL     1       1.057   8.861  20.057  0.00  0.00    +0.000 HD
ENDROOT
BRANCH   4   7
ATOM      7  C   UNL     1       0.311  10.525  18.949  0.00  0.00    +0.000 C 
ATOM      8  C   UNL     1       1.052  11.853  19.087  0.00  0.00    +0.000 C 
ATOM      9  C   UNL     1       1.339  12.210  20.545  0.00  0.00    +0.000 C 
ATOM     10  N   UNL     1       0.124  12.155  21.359  0.00  0.00    +0.000 N 
ATOM     11  C   UNL     1      -0.129  13.207  22.238  0.00  0.00    +0.000 C 
ATOM     12  O   UNL     1       0.629  14.177  22.303  0.00  0.00    +0.000 OA
ATOM     13  C   UNL     1      -0.608  10.888  21.293  0.00  0.00    +0.000 C 
ATOM     14  C   UNL     1      -0.929  10.493  19.853  0.00  0.00    +0.000 C 
BRANCH  11  15
ATOM     15  C   UNL     1      -1.411  13.175  23.073  0.00  0.00    +0.000 C 
ATOM     16  C   UNL     1      -2.664  13.370  22.233  0.00  0.00    +0.000 C 
ATOM     17  C   UNL     1      -2.892  14.864  22.277  0.00  0.00    +0.000 C 
ATOM     18  O   UNL     1      -2.382  15.322  23.531  0.00  0.00    +0.000 OA
ATOM     19  C   UNL     1      -1.501  14.323  24.062  0.00  0.00    +0.000 C 
ENDBRANCH  11  15
ENDBRANCH   4   7
BRANCH   3  20
ATOM     20  C   UNL     1       3.469   6.856  17.901  0.00  0.00    +0.000 A 
ATOM     21  C   UNL     1       4.639   7.309  17.286  0.00  0.00    +0.000 A 
ATOM     22  C   UNL     1       5.424   6.440  16.515  0.00  0.00    +0.000 A 
ATOM     23  C   UNL     1       5.044   5.104  16.342  0.00  0.00    +0.000 A 
ATOM     24  C   UNL     1       3.894   4.658  16.983  0.00  0.00    +0.000 A 
ATOM     25  F   UNL     1       3.503   3.383  16.843  0.00  0.00    +0.000 F 
ATOM     26  C   UNL     1       3.116   5.511  17.765  0.00  0.00    +0.000 A 
BRANCH  23  27
ATOM     27  C   UNL     1       5.828   4.155  15.486  0.00  0.00    +0.000 C 
ATOM     28  F   UNL     1       5.318   4.026  14.226  0.00  0.00    +0.000 F 
ATOM     29  F   UNL     1       7.123   4.535  15.317  0.00  0.00    +0.000 F 
ATOM     30  F   UNL     1       5.862   2.891  15.994  0.00  0.00    +0.000 F 
ENDBRANCH  23  27
ENDBRANCH   3  20
TORSDOF 4
ENDMDL
MODEL 8
REMARK VINA RESULT:      -7.9      8.669     10.890
REMARK  Name = 
REMARK  4 active torsions:
REMARK  status: ('A' for Active; 'I' for Inactive)
REMARK    1  A    between atoms: N_3  and  C_4
REMARK    2  A    between atoms: C_7  and  C_8
REMARK    3  A    between atoms: N_15  and  C_16
REMARK    4  A    between atoms: C_20  and  C_22
REMARK                            x       y       z     vdW  Elec       q    Type
REMARK                         _______ _______ _______ _____ _____    ______ ____
ROOT
ATOM      1  O   UNL     1       1.467   8.548  17.881  0.00  0.00    +0.000 OA
ATOM      2  C   UNL     1       1.308   8.813  19.063  0.00  0.00    +0.000 C 
ATOM      3  N   UNL     1       1.622   8.001  20.135  0.00  0.00    +0.000 N 
ATOM      4  N   UNL     1       0.757  10.009  19.484  0.00  0.00    +0.000 N 
ATOM      5  H   UNL     1       1.290   8.302  21.037  0.00  0.00    +0.000 HD
ATOM      6  H   UNL     1       0.489  10.093  20.451  0.00  0.00    +0.000 HD
ENDROOT
BRANCH   4   7
ATOM      7  C   UNL     1       0.226  10.985  18.529  0.00  0.00    +0.000 C 
ATOM      8  C   UNL     1      -0.358  12.203  19.241  0.00  0.00    +0.000 C 
ATOM      9  C   UNL     1      -1.696  11.898  19.913  0.00  0.00    +0.000 C 
ATOM     10  N   UNL     1      -2.639  11.287  18.975  0.00  0.00    +0.000 N 
ATOM     11  C   UNL     1      -3.947  11.768  18.947  0.00  0.00    +0.000 C 
ATOM     12  O   UNL     1      -4.293  12.709  19.665  0.00  0.00    +0.000 OA
ATOM     13  C   UNL     1      -2.143  10.090  18.291  0.00  0.00    +0.000 C 
ATOM     14  C   UNL     1      -0.810  10.349  17.593  0.00  0.00    +0.000 C 
BRANCH  11  15
ATOM     15  C   UNL     1      -4.933  11.157  17.950  0.00  0.00    +0.000 C 
ATOM     16  C   UNL     1      -5.269  12.098  16.803  0.00  0.00    +0.000 C 
ATOM     17  C   UNL     1      -6.500  12.828  17.292  0.00  0.00    +0.000 C 
ATOM     18  O   UNL     1      -7.198  11.928  18.155  0.00  0.00    +0.000 OA
ATOM     19  C   UNL     1      -6.298  10.888  18.558  0.00  0.00    +0.000 C 
ENDBRANCH  11  15
ENDBRANCH   4   7
BRANCH   3  20
ATOM     20  C   UNL     1       2.203   6.715  20.078  0.00  0.00    +0.000 A 
ATOM     21  C   UNL     1       3.335   6.409  19.319  0.00  0.00    +0.000 A 
ATOM     22  C   UNL     1       3.831   5.098  19.271  0.00  0.00    +0.000 A 
ATOM     23  C   UNL     1       3.195   4.071  19.979  0.00  0.00    +0.000 A 
ATOM     24  C   UNL     1       2.087   4.395  20.755  0.00  0.00    +0.000 A 
ATOM     25  F   UNL     1       1.455   3.438  21.450  0.00  0.00    +0.000 F 
ATOM     26  C   UNL     1       1.596   5.699  20.820  0.00  0.00    +0.000 A 
BRANCH  23  27
ATOM     27  C   UNL     1       3.663   2.649  19.918  0.00  0.00    +0.000 C 
ATOM     28  F   UNL     1       2.737   1.806  19.374  0.00  0.00    +0.000 F 
ATOM     29  F   UNL     1       4.785   2.490  19.165  0.00  0.00    +0.000 F 
ATOM     30  F   UNL     1       3.947   2.132  21.145  0.00  0.00    +0.000 F 
ENDBRANCH  23  27
ENDBRANCH   3  20
TORSDOF 4
ENDMDL
MODEL 9
REMARK VINA RESULT:      -7.7      8.018     10.226
REMARK  Name = 
REMARK  4 active torsions:
REMARK  status: ('A' for Active; 'I' for Inactive)
REMARK    1  A    between atoms: N_3  and  C_4
REMARK    2  A    between atoms: C_7  and  C_8
REMARK    3  A    between atoms: N_15  and  C_16
REMARK    4  A    between atoms: C_20  and  C_22
REMARK                            x       y       z     vdW  Elec       q    Type
REMARK                         _______ _______ _______ _____ _____    ______ ____
ROOT
ATOM      1  O   UNL     1       2.174   9.595  17.369  0.00  0.00    +0.000 OA
ATOM      2  C   UNL     1       1.834   9.097  18.432  0.00  0.00    +0.000 C 
ATOM      3  N   UNL     1       2.133   7.824  18.874  0.00  0.00    +0.000 N 
ATOM      4  N   UNL     1       1.060   9.779  19.352  0.00  0.00    +0.000 N 
ATOM      5  H   UNL     1       1.652   7.513  19.702  0.00  0.00    +0.000 HD
ATOM      6  H   UNL     1       0.666   9.259  20.118  0.00  0.00    +0.000 HD
ENDROOT
BRANCH   4   7
ATOM      7  C   UNL     1       0.508  11.104  19.056  0.00  0.00    +0.000 C 
ATOM      8  C   UNL     1       1.169  12.188  19.905  0.00  0.00    +0.000 C 
ATOM      9  C   UNL     1       0.707  12.148  21.361  0.00  0.00    +0.000 C 
ATOM     10  N   UNL     1      -0.753  12.165  21.461  0.00  0.00    +0.000 N 
ATOM     11  C   UNL     1      -1.341  13.027  22.386  0.00  0.00    +0.000 C 
ATOM     12  O   UNL     1      -0.653  13.782  23.076  0.00  0.00    +0.000 OA
ATOM     13  C   UNL     1      -1.437  11.120  20.695  0.00  0.00    +0.000 C 
ATOM     14  C   UNL     1      -1.017  11.128  19.227  0.00  0.00    +0.000 C 
BRANCH  11  15
ATOM     15  C   UNL     1      -2.867  13.074  22.479  0.00  0.00    +0.000 C 
ATOM     16  C   UNL     1      -3.394  14.467  22.788  0.00  0.00    +0.000 C 
ATOM     17  C   UNL     1      -3.485  14.485  24.298  0.00  0.00    +0.000 C 
ATOM     18  O   UNL     1      -3.750  13.142  24.710  0.00  0.00    +0.000 OA
ATOM     19  C   UNL     1      -3.415  12.256  23.634  0.00  0.00    +0.000 C 
ENDBRANCH  11  15
ENDBRANCH   4   7
BRANCH   3  20
ATOM     20  C   UNL     1       2.906   6.855  18.197  0.00  0.00    +0.000 A 
ATOM     21  C   UNL     1       2.585   5.496  18.158  0.00  0.00    +0.000 A 
ATOM     22  C   UNL     1       3.424   4.582  17.505  0.00  0.00    +0.000 A 
ATOM     23  C   UNL     1       4.602   5.015  16.885  0.00  0.00    +0.000 A 
ATOM     24  C   UNL     1       4.895   6.375  16.905  0.00  0.00    +0.000 A 
ATOM     25  F   UNL     1       6.012   6.826  16.317  0.00  0.00    +0.000 F 
ATOM     26  C   UNL     1       4.058   7.293  17.538  0.00  0.00    +0.000 A 
BRANCH  23  27
ATOM     27  C   UNL     1       5.551   4.065  16.219  0.00  0.00    +0.000 C 
ATOM     28  F   UNL     1       5.685   4.296  14.880  0.00  0.00    +0.000 F 
ATOM     29  F   UNL     1       6.812   4.128  16.726  0.00  0.00    +0.000 F 
ATOM     30  F   UNL     1       5.159   2.766  16.325  0.00  0.00    +0.000 F 
ENDBRANCH  23  27
ENDBRANCH   3  20
TORSDOF 4
ENDMDL
