MODEL 1
REMARK VINA RESULT:      -6.7      0.000      0.000
REMARK  Name = 
REMARK  13 active torsions:
REMARK  status: ('A' for Active; 'I' for Inactive)
REMARK    1  A    between atoms: C_1  and  O_2
REMARK    2  A    between atoms: O_2  and  C_3
REMARK    3  A    between atoms: C_3  and  C_5
REMARK    4  A    between atoms: C_5  and  C_6
REMARK    5  A    between atoms: C_6  and  N_7
REMARK    6  A    between atoms: N_7  and  C_8
REMARK    7  A    between atoms: N_7  and  C_9
REMARK    8  A    between atoms: C_9  and  C_10
REMARK    9  A    between atoms: C_10  and  C_11
REMARK   10  A    between atoms: C_11  and  O_12
REMARK   11  A    between atoms: O_12  and  C_13
REMARK   12  A    between atoms: C_16  and  C_17
REMARK   13  A    between atoms: C_17  and  C_18
REMARK                            x       y       z     vdW  Elec       q    Type
REMARK                         _______ _______ _______ _____ _____    ______ ____
ROOT
ATOM      1  C   UNL     1       2.115   7.294  19.865  0.00  0.00    +0.000 A 
ATOM      2  C   UNL     1       1.381   8.068  20.763  0.00  0.00    +0.000 A 
ATOM      3  C   UNL     1       0.808   9.271  20.358  0.00  0.00    +0.000 A 
ATOM      4  C   UNL     1       0.968   9.730  19.047  0.00  0.00    +0.000 A 
ATOM      5  C   UNL     1       1.743   8.975  18.156  0.00  0.00    +0.000 A 
ATOM      6  C   UNL     1       2.316   7.765  18.565  0.00  0.00    +0.000 A 
ENDROOT
BRANCH   1   7
ATOM      7  O   UNL     1       2.696   6.094  20.177  0.00  0.00    +0.000 OA
BRANCH   7   8
ATOM      8  C   UNL     1       1.795   4.981  20.163  0.00  0.00    +0.000 C 
BRANCH   8   9
ATOM      9  C   UNL     1       2.177   4.014  21.275  0.00  0.00    +0.000 C 
BRANCH   9  10
ATOM     10  C   UNL     1       2.906   2.796  20.694  0.00  0.00    +0.000 C 
BRANCH  10  11
ATOM     11  N   UNL     1       3.378   2.972  19.304  0.00  0.00    +0.000 NA
ATOM     12  C   UNL     1       3.095   1.783  18.494  0.00  0.00    +0.000 C 
BRANCH  11  13
ATOM     13  C   UNL     1       4.829   3.289  19.320  0.00  0.00    +0.000 C 
BRANCH  13  14
ATOM     14  C   UNL     1       5.245   4.330  18.280  0.00  0.00    +0.000 C 
BRANCH  14  15
ATOM     15  C   UNL     1       6.663   4.794  18.498  0.00  0.00    +0.000 C 
ATOM     16  O   UNL     1       7.085   5.362  19.494  0.00  0.00    +0.000 OA
BRANCH  15  18
ATOM     17  C   UNL     1       6.934   4.968  16.174  0.00  0.00    +0.000 C 
ATOM     18  O   UNL     1       7.414   4.447  17.412  0.00  0.00    +0.000 OA
ENDBRANCH  15  18
ENDBRANCH  14  15
ENDBRANCH  13  14
ENDBRANCH  11  13
ENDBRANCH  10  11
ENDBRANCH   9  10
ENDBRANCH   8   9
ENDBRANCH   7   8
ENDBRANCH   1   7
BRANCH   4  19
ATOM     19  C   UNL     1       0.339  11.040  18.634  0.00  0.00    +0.000 C 
BRANCH  19  20
ATOM     20  C   UNL     1      -1.133  10.927  18.350  0.00  0.00    +0.000 A 
ATOM     21  C   UNL     1      -1.628   9.986  17.444  0.00  0.00    +0.000 A 
ATOM     22  C   UNL     1      -2.992   9.939  17.174  0.00  0.00    +0.000 A 
ATOM     23  C   UNL     1      -3.820  10.840  17.822  0.00  0.00    +0.000 A 
ATOM     24  N   UNL     1      -3.384  11.758  18.709  0.00  0.00    +0.000 NA
ATOM     25  C   UNL     1      -2.053  11.784  18.947  0.00  0.00    +0.000 A 
ENDBRANCH  19  20
ENDBRANCH   4  19
TORSDOF 11
ENDMDL
MODEL 2
REMARK VINA RESULT:      -6.4      5.744      8.815
REMARK  Name = 
REMARK  13 active torsions:
REMARK  status: ('A' for Active; 'I' for Inactive)
REMARK    1  A    between atoms: C_1  and  O_2
REMARK    2  A    between atoms: O_2  and  C_3
REMARK    3  A    between atoms: C_3  and  C_5
REMARK    4  A    between atoms: C_5  and  C_6
REMARK    5  A    between atoms: C_6  and  N_7
REMARK    6  A    between atoms: N_7  and  C_8
REMARK    7  A    between atoms: N_7  and  C_9
REMARK    8  A    between atoms: C_9  and  C_10
REMARK    9  A    between atoms: C_10  and  C_11
REMARK   10  A    between atoms: C_11  and  O_12
REMARK   11  A    between atoms: O_12  and  C_13
REMARK   12  A    between atoms: C_16  and  C_17
REMARK   13  A    between atoms: C_17  and  C_18
REMARK                            x       y       z     vdW  Elec       q    Type
REMARK                         _______ _______ _______ _____ _____    ______ ____
ROOT
ATOM      1  C   UNL     1       6.122   6.602  16.962  0.00  0.00    +0.000 A 
ATOM      2  C   UNL     1       6.644   5.313  16.863  0.00  0.00    +0.000 A 
ATOM      3  C   UNL     1       5.818   4.200  17.004  0.00  0.00    +0.000 A 
ATOM      4  C   UNL     1       4.452   4.356  17.258  0.00  0.00    +0.000 A 
ATOM      5  C   UNL     1       3.935   5.651  17.402  0.00  0.00    +0.000 A 
ATOM      6  C   UNL     1       4.767   6.767  17.258  0.00  0.00    +0.000 A 
ENDROOT
BRANCH   1   7
ATOM      7  O   UNL     1       6.861   7.746  16.820  0.00  0.00    +0.000 OA
BRANCH   7   8
ATOM      8  C   UNL     1       7.849   7.940  17.840  0.00  0.00    +0.000 C 
BRANCH   8   9
ATOM      9  C   UNL     1       8.277   9.401  17.849  0.00  0.00    +0.000 C 
BRANCH   9  10
ATOM     10  C   UNL     1       9.001   9.735  19.160  0.00  0.00    +0.000 C 
BRANCH  10  11
ATOM     11  N   UNL     1       9.864  10.933  19.093  0.00  0.00    +0.000 NA
ATOM     12  C   UNL     1      10.148  11.457  20.433  0.00  0.00    +0.000 C 
BRANCH  11  13
ATOM     13  C   UNL     1       9.211  11.954  18.235  0.00  0.00    +0.000 C 
BRANCH  13  14
ATOM     14  C   UNL     1       8.880  13.256  18.967  0.00  0.00    +0.000 C 
BRANCH  14  15
ATOM     15  C   UNL     1       9.209  14.463  18.127  0.00  0.00    +0.000 C 
ATOM     16  O   UNL     1       8.431  15.353  17.817  0.00  0.00    +0.000 OA
BRANCH  15  18
ATOM     17  C   UNL     1      11.409  14.948  18.786  0.00  0.00    +0.000 C 
ATOM     18  O   UNL     1      10.532  14.422  17.791  0.00  0.00    +0.000 OA
ENDBRANCH  15  18
ENDBRANCH  14  15
ENDBRANCH  13  14
ENDBRANCH  11  13
ENDBRANCH  10  11
ENDBRANCH   9  10
ENDBRANCH   8   9
ENDBRANCH   7   8
ENDBRANCH   1   7
BRANCH   4  19
ATOM     19  C   UNL     1       3.578   3.134  17.410  0.00  0.00    +0.000 C 
BRANCH  19  20
ATOM     20  C   UNL     1       2.815   3.108  18.705  0.00  0.00    +0.000 A 
ATOM     21  C   UNL     1       3.457   2.866  19.922  0.00  0.00    +0.000 A 
ATOM     22  C   UNL     1       2.713   2.807  21.096  0.00  0.00    +0.000 A 
ATOM     23  C   UNL     1       1.343   2.993  21.013  0.00  0.00    +0.000 A 
ATOM     24  N   UNL     1       0.685   3.237  19.861  0.00  0.00    +0.000 NA
ATOM     25  C   UNL     1       1.434   3.283  18.736  0.00  0.00    +0.000 A 
ENDBRANCH  19  20
ENDBRANCH   4  19
TORSDOF 11
ENDMDL
MODEL 3
REMARK VINA RESULT:      -6.4      5.838      8.974
REMARK  Name = 
REMARK  13 active torsions:
REMARK  status: ('A' for Active; 'I' for Inactive)
REMARK    1  A    between atoms: C_1  and  O_2
REMARK    2  A    between atoms: O_2  and  C_3
REMARK    3  A    between atoms: C_3  and  C_5
REMARK    4  A    between atoms: C_5  and  C_6
REMARK    5  A    between atoms: C_6  and  N_7
REMARK    6  A    between atoms: N_7  and  C_8
REMARK    7  A    between atoms: N_7  and  C_9
REMARK    8  A    between atoms: C_9  and  C_10
REMARK    9  A    between atoms: C_10  and  C_11
REMARK   10  A    between atoms: C_11  and  O_12
REMARK   11  A    between atoms: O_12  and  C_13
REMARK   12  A    between atoms: C_16  and  C_17
REMARK   13  A    between atoms: C_17  and  C_18
REMARK                            x       y       z     vdW  Elec       q    Type
REMARK                         _______ _______ _______ _____ _____    ______ ____
ROOT
ATOM      1  C   UNL     1       6.682   5.971  16.938  0.00  0.00    +0.000 A 
ATOM      2  C   UNL     1       6.525   4.928  16.026  0.00  0.00    +0.000 A 
ATOM      3  C   UNL     1       5.461   4.036  16.146  0.00  0.00    +0.000 A 
ATOM      4  C   UNL     1       4.539   4.164  17.190  0.00  0.00    +0.000 A 
ATOM      5  C   UNL     1       4.723   5.185  18.132  0.00  0.00    +0.000 A 
ATOM      6  C   UNL     1       5.791   6.080  18.007  0.00  0.00    +0.000 A 
ENDROOT
BRANCH   1   7
ATOM      7  O   UNL     1       7.688   6.898  16.882  0.00  0.00    +0.000 OA
BRANCH   7   8
ATOM      8  C   UNL     1       7.339   8.180  17.419  0.00  0.00    +0.000 C 
BRANCH   8   9
ATOM      9  C   UNL     1       8.432   8.634  18.376  0.00  0.00    +0.000 C 
BRANCH   9  10
ATOM     10  C   UNL     1       8.798  10.100  18.108  0.00  0.00    +0.000 C 
BRANCH  10  11
ATOM     11  N   UNL     1       9.828  10.648  19.017  0.00  0.00    +0.000 NA
ATOM     12  C   UNL     1       9.360  10.648  20.407  0.00  0.00    +0.000 C 
BRANCH  11  13
ATOM     13  C   UNL     1      10.197  12.014  18.565  0.00  0.00    +0.000 C 
BRANCH  13  14
ATOM     14  C   UNL     1      11.669  12.158  18.175  0.00  0.00    +0.000 C 
BRANCH  14  15
ATOM     15  C   UNL     1      12.028  13.594  17.893  0.00  0.00    +0.000 C 
ATOM     16  O   UNL     1      12.112  14.108  16.787  0.00  0.00    +0.000 OA
BRANCH  15  18
ATOM     17  C   UNL     1      12.308  15.665  18.963  0.00  0.00    +0.000 C 
ATOM     18  O   UNL     1      12.216  14.245  19.079  0.00  0.00    +0.000 OA
ENDBRANCH  15  18
ENDBRANCH  14  15
ENDBRANCH  13  14
ENDBRANCH  11  13
ENDBRANCH  10  11
ENDBRANCH   9  10
ENDBRANCH   8   9
ENDBRANCH   7   8
ENDBRANCH   1   7
BRANCH   4  19
ATOM     19  C   UNL     1       3.398   3.182  17.300  0.00  0.00    +0.000 C 
BRANCH  19  20
ATOM     20  C   UNL     1       2.747   3.178  18.655  0.00  0.00    +0.000 A 
ATOM     21  C   UNL     1       1.539   3.842  18.884  0.00  0.00    +0.000 A 
ATOM     22  C   UNL     1       0.989   3.853  20.161  0.00  0.00    +0.000 A 
ATOM     23  C   UNL     1       1.669   3.198  21.174  0.00  0.00    +0.000 A 
ATOM     24  N   UNL     1       2.832   2.539  20.994  0.00  0.00    +0.000 NA
ATOM     25  C   UNL     1       3.346   2.549  19.744  0.00  0.00    +0.000 A 
ENDBRANCH  19  20
ENDBRANCH   4  19
TORSDOF 11
ENDMDL
MODEL 4
REMARK VINA RESULT:      -6.4      6.503      9.507
REMARK  Name = 
REMARK  13 active torsions:
REMARK  status: ('A' for Active; 'I' for Inactive)
REMARK    1  A    between atoms: C_1  and  O_2
REMARK    2  A    between atoms: O_2  and  C_3
REMARK    3  A    between atoms: C_3  and  C_5
REMARK    4  A    between atoms: C_5  and  C_6
REMARK    5  A    between atoms: C_6  and  N_7
REMARK    6  A    between atoms: N_7  and  C_8
REMARK    7  A    between atoms: N_7  and  C_9
REMARK    8  A    between atoms: C_9  and  C_10
REMARK    9  A    between atoms: C_10  and  C_11
REMARK   10  A    between atoms: C_11  and  O_12
REMARK   11  A    between atoms: O_12  and  C_13
REMARK   12  A    between atoms: C_16  and  C_17
REMARK   13  A    between atoms: C_17  and  C_18
REMARK                            x       y       z     vdW  Elec       q    Type
REMARK                         _______ _______ _______ _____ _____    ______ ____
ROOT
ATOM      1  C   UNL     1       7.524   6.800  18.123  0.00  0.00    +0.000 A 
ATOM      2  C   UNL     1       7.577   5.471  18.541  0.00  0.00    +0.000 A 
ATOM      3  C   UNL     1       6.690   4.530  18.023  0.00  0.00    +0.000 A 
ATOM      4  C   UNL     1       5.725   4.903  17.083  0.00  0.00    +0.000 A 
ATOM      5  C   UNL     1       5.643   6.248  16.696  0.00  0.00    +0.000 A 
ATOM      6  C   UNL     1       6.536   7.191  17.217  0.00  0.00    +0.000 A 
ENDROOT
BRANCH   1   7
ATOM      7  O   UNL     1       8.368   7.783  18.570  0.00  0.00    +0.000 OA
BRANCH   7   8
ATOM      8  C   UNL     1       8.173   9.056  17.944  0.00  0.00    +0.000 C 
BRANCH   8   9
ATOM      9  C   UNL     1       9.160  10.056  18.530  0.00  0.00    +0.000 C 
BRANCH   9  10
ATOM     10  C   UNL     1       8.864  11.467  18.002  0.00  0.00    +0.000 C 
BRANCH  10  11
ATOM     11  N   UNL     1       9.964  12.436  18.198  0.00  0.00    +0.000 NA
ATOM     12  C   UNL     1      11.244  11.749  18.395  0.00  0.00    +0.000 C 
BRANCH  11  13
ATOM     13  C   UNL     1       9.635  13.318  19.346  0.00  0.00    +0.000 C 
BRANCH  13  14
ATOM     14  C   UNL     1      10.329  14.680  19.296  0.00  0.00    +0.000 C 
BRANCH  14  15
ATOM     15  C   UNL     1       9.938  15.455  18.064  0.00  0.00    +0.000 C 
ATOM     16  O   UNL     1       8.795  15.688  17.697  0.00  0.00    +0.000 OA
BRANCH  15  18
ATOM     17  C   UNL     1      11.119  17.299  17.220  0.00  0.00    +0.000 C 
ATOM     18  O   UNL     1      11.069  15.889  17.435  0.00  0.00    +0.000 OA
ENDBRANCH  15  18
ENDBRANCH  14  15
ENDBRANCH  13  14
ENDBRANCH  11  13
ENDBRANCH  10  11
ENDBRANCH   9  10
ENDBRANCH   8   9
ENDBRANCH   7   8
ENDBRANCH   1   7
BRANCH   4  19
ATOM     19  C   UNL     1       4.773   3.864  16.539  0.00  0.00    +0.000 C 
BRANCH  19  20
ATOM     20  C   UNL     1       3.619   3.579  17.460  0.00  0.00    +0.000 A 
ATOM     21  C   UNL     1       2.716   4.580  17.826  0.00  0.00    +0.000 A 
ATOM     22  C   UNL     1       1.685   4.289  18.713  0.00  0.00    +0.000 A 
ATOM     23  C   UNL     1       1.590   2.999  19.208  0.00  0.00    +0.000 A 
ATOM     24  N   UNL     1       2.435   2.002  18.875  0.00  0.00    +0.000 NA
ATOM     25  C   UNL     1       3.431   2.316  18.015  0.00  0.00    +0.000 A 
ENDBRANCH  19  20
ENDBRANCH   4  19
TORSDOF 11
ENDMDL
MODEL 5
REMARK VINA RESULT:      -6.4      6.072      9.052
REMARK  Name = 
REMARK  13 active torsions:
REMARK  status: ('A' for Active; 'I' for Inactive)
REMARK    1  A    between atoms: C_1  and  O_2
REMARK    2  A    between atoms: O_2  and  C_3
REMARK    3  A    between atoms: C_3  and  C_5
REMARK    4  A    between atoms: C_5  and  C_6
REMARK    5  A    between atoms: C_6  and  N_7
REMARK    6  A    between atoms: N_7  and  C_8
REMARK    7  A    between atoms: N_7  and  C_9
REMARK    8  A    between atoms: C_9  and  C_10
REMARK    9  A    between atoms: C_10  and  C_11
REMARK   10  A    between atoms: C_11  and  O_12
REMARK   11  A    between atoms: O_12  and  C_13
REMARK   12  A    between atoms: C_16  and  C_17
REMARK   13  A    between atoms: C_17  and  C_18
REMARK                            x       y       z     vdW  Elec       q    Type
REMARK                         _______ _______ _______ _____ _____    ______ ____
ROOT
ATOM      1  C   UNL     1       6.986   6.915  17.361  0.00  0.00    +0.000 A 
ATOM      2  C   UNL     1       7.319   5.797  18.123  0.00  0.00    +0.000 A 
ATOM      3  C   UNL     1       6.419   4.743  18.267  0.00  0.00    +0.000 A 
ATOM      4  C   UNL     1       5.161   4.794  17.659  0.00  0.00    +0.000 A 
ATOM      5  C   UNL     1       4.809   5.938  16.930  0.00  0.00    +0.000 A 
ATOM      6  C   UNL     1       5.716   6.993  16.785  0.00  0.00    +0.000 A 
ENDROOT
BRANCH   1   7
ATOM      7  O   UNL     1       7.817   7.984  17.156  0.00  0.00    +0.000 OA
BRANCH   7   8
ATOM      8  C   UNL     1       8.301   8.594  18.358  0.00  0.00    +0.000 C 
BRANCH   8   9
ATOM      9  C   UNL     1       8.760  10.012  18.049  0.00  0.00    +0.000 C 
BRANCH   9  10
ATOM     10  C   UNL     1       9.155  10.737  19.343  0.00  0.00    +0.000 C 
BRANCH  10  11
ATOM     11  N   UNL     1      10.595  11.056  19.448  0.00  0.00    +0.000 NA
ATOM     12  C   UNL     1      10.863  11.917  20.604  0.00  0.00    +0.000 C 
BRANCH  11  13
ATOM     13  C   UNL     1      11.046  11.687  18.181  0.00  0.00    +0.000 C 
BRANCH  13  14
ATOM     14  C   UNL     1      11.424  13.162  18.327  0.00  0.00    +0.000 C 
BRANCH  14  15
ATOM     15  C   UNL     1      10.429  14.059  17.637  0.00  0.00    +0.000 C 
ATOM     16  O   UNL     1       9.253  14.193  17.943  0.00  0.00    +0.000 OA
BRANCH  15  18
ATOM     17  C   UNL     1      11.377  16.087  16.932  0.00  0.00    +0.000 C 
ATOM     18  O   UNL     1      11.061  14.729  16.629  0.00  0.00    +0.000 OA
ENDBRANCH  15  18
ENDBRANCH  14  15
ENDBRANCH  13  14
ENDBRANCH  11  13
ENDBRANCH  10  11
ENDBRANCH   9  10
ENDBRANCH   8   9
ENDBRANCH   7   8
ENDBRANCH   1   7
BRANCH   4  19
ATOM     19  C   UNL     1       4.202   3.640  17.834  0.00  0.00    +0.000 C 
BRANCH  19  20
ATOM     20  C   UNL     1       3.460   3.679  19.141  0.00  0.00    +0.000 A 
ATOM     21  C   UNL     1       3.495   2.601  20.029  0.00  0.00    +0.000 A 
ATOM     22  C   UNL     1       2.761   2.656  21.210  0.00  0.00    +0.000 A 
ATOM     23  C   UNL     1       2.012   3.792  21.464  0.00  0.00    +0.000 A 
ATOM     24  N   UNL     1       1.957   4.857  20.638  0.00  0.00    +0.000 NA
ATOM     25  C   UNL     1       2.676   4.774  19.496  0.00  0.00    +0.000 A 
ENDBRANCH  19  20
ENDBRANCH   4  19
TORSDOF 11
ENDMDL
MODEL 6
REMARK VINA RESULT:      -6.4      5.636      8.928
REMARK  Name = 
REMARK  13 active torsions:
REMARK  status: ('A' for Active; 'I' for Inactive)
REMARK    1  A    between atoms: C_1  and  O_2
REMARK    2  A    between atoms: O_2  and  C_3
REMARK    3  A    between atoms: C_3  and  C_5
REMARK    4  A    between atoms: C_5  and  C_6
REMARK    5  A    between atoms: C_6  and  N_7
REMARK    6  A    between atoms: N_7  and  C_8
REMARK    7  A    between atoms: N_7  and  C_9
REMARK    8  A    between atoms: C_9  and  C_10
REMARK    9  A    between atoms: C_10  and  C_11
REMARK   10  A    between atoms: C_11  and  O_12
REMARK   11  A    between atoms: O_12  and  C_13
REMARK   12  A    between atoms: C_16  and  C_17
REMARK   13  A    between atoms: C_17  and  C_18
REMARK                            x       y       z     vdW  Elec       q    Type
REMARK                         _______ _______ _______ _____ _____    ______ ____
ROOT
ATOM      1  C   UNL     1       6.569   6.115  17.170  0.00  0.00    +0.000 A 
ATOM      2  C   UNL     1       6.323   5.600  18.441  0.00  0.00    +0.000 A 
ATOM      3  C   UNL     1       5.399   4.573  18.623  0.00  0.00    +0.000 A 
ATOM      4  C   UNL     1       4.695   4.049  17.534  0.00  0.00    +0.000 A 
ATOM      5  C   UNL     1       4.910   4.598  16.263  0.00  0.00    +0.000 A 
ATOM      6  C   UNL     1       5.840   5.628  16.084  0.00  0.00    +0.000 A 
ENDROOT
BRANCH   1   7
ATOM      7  O   UNL     1       7.471   7.111  16.904  0.00  0.00    +0.000 OA
BRANCH   7   8
ATOM      8  C   UNL     1       7.994   7.760  18.069  0.00  0.00    +0.000 C 
BRANCH   8   9
ATOM      9  C   UNL     1       8.107   9.254  17.800  0.00  0.00    +0.000 C 
BRANCH   9  10
ATOM     10  C   UNL     1       9.028   9.913  18.836  0.00  0.00    +0.000 C 
BRANCH  10  11
ATOM     11  N   UNL     1       9.804  11.061  18.320  0.00  0.00    +0.000 NA
ATOM     12  C   UNL     1      10.848  11.462  19.269  0.00  0.00    +0.000 C 
BRANCH  11  13
ATOM     13  C   UNL     1       8.875  12.182  18.025  0.00  0.00    +0.000 C 
BRANCH  13  14
ATOM     14  C   UNL     1       9.566  13.542  17.911  0.00  0.00    +0.000 C 
BRANCH  14  15
ATOM     15  C   UNL     1       8.744  14.634  18.546  0.00  0.00    +0.000 C 
ATOM     16  O   UNL     1       8.289  14.621  19.681  0.00  0.00    +0.000 OA
BRANCH  15  18
ATOM     17  C   UNL     1       8.556  16.956  18.263  0.00  0.00    +0.000 C 
ATOM     18  O   UNL     1       8.615  15.664  17.659  0.00  0.00    +0.000 OA
ENDBRANCH  15  18
ENDBRANCH  14  15
ENDBRANCH  13  14
ENDBRANCH  11  13
ENDBRANCH  10  11
ENDBRANCH   9  10
ENDBRANCH   8   9
ENDBRANCH   7   8
ENDBRANCH   1   7
BRANCH   4  19
ATOM     19  C   UNL     1       3.696   2.938  17.758  0.00  0.00    +0.000 C 
BRANCH  19  20
ATOM     20  C   UNL     1       2.897   3.105  19.021  0.00  0.00    +0.000 A 
ATOM     21  C   UNL     1       3.319   2.542  20.228  0.00  0.00    +0.000 A 
ATOM     22  C   UNL     1       2.532   2.681  21.367  0.00  0.00    +0.000 A 
ATOM     23  C   UNL     1       1.343   3.382  21.260  0.00  0.00    +0.000 A 
ATOM     24  N   UNL     1       0.903   3.947  20.117  0.00  0.00    +0.000 NA
ATOM     25  C   UNL     1       1.686   3.792  19.026  0.00  0.00    +0.000 A 
ENDBRANCH  19  20
ENDBRANCH   4  19
TORSDOF 11
ENDMDL
MODEL 7
REMARK VINA RESULT:      -6.4      1.933      2.807
REMARK  Name = 
REMARK  13 active torsions:
REMARK  status: ('A' for Active; 'I' for Inactive)
REMARK    1  A    between atoms: C_1  and  O_2
REMARK    2  A    between atoms: O_2  and  C_3
REMARK    3  A    between atoms: C_3  and  C_5
REMARK    4  A    between atoms: C_5  and  C_6
REMARK    5  A    between atoms: C_6  and  N_7
REMARK    6  A    between atoms: N_7  and  C_8
REMARK    7  A    between atoms: N_7  and  C_9
REMARK    8  A    between atoms: C_9  and  C_10
REMARK    9  A    between atoms: C_10  and  C_11
REMARK   10  A    between atoms: C_11  and  O_12
REMARK   11  A    between atoms: O_12  and  C_13
REMARK   12  A    between atoms: C_16  and  C_17
REMARK   13  A    between atoms: C_17  and  C_18
REMARK                            x       y       z     vdW  Elec       q    Type
REMARK                         _______ _______ _______ _____ _____    ______ ____
ROOT
ATOM      1  C   UNL     1       2.701   7.392  18.468  0.00  0.00    +0.000 A 
ATOM      2  C   UNL     1       2.092   7.409  19.722  0.00  0.00    +0.000 A 
ATOM      3  C   UNL     1       1.307   8.491  20.113  0.00  0.00    +0.000 A 
ATOM      4  C   UNL     1       1.125   9.584  19.261  0.00  0.00    +0.000 A 
ATOM      5  C   UNL     1       1.774   9.587  18.018  0.00  0.00    +0.000 A 
ATOM      6  C   UNL     1       2.560   8.498  17.627  0.00  0.00    +0.000 A 
ENDROOT
BRANCH   1   7
ATOM      7  O   UNL     1       3.474   6.362  18.000  0.00  0.00    +0.000 OA
BRANCH   7   8
ATOM      8  C   UNL     1       3.402   5.167  18.786  0.00  0.00    +0.000 C 
BRANCH   8   9
ATOM      9  C   UNL     1       4.776   4.870  19.369  0.00  0.00    +0.000 C 
BRANCH   9  10
ATOM     10  C   UNL     1       5.625   4.086  18.359  0.00  0.00    +0.000 C 
BRANCH  10  11
ATOM     11  N   UNL     1       6.994   4.613  18.173  0.00  0.00    +0.000 NA
ATOM     12  C   UNL     1       7.096   5.998  18.643  0.00  0.00    +0.000 C 
BRANCH  11  13
ATOM     13  C   UNL     1       7.369   4.494  16.741  0.00  0.00    +0.000 C 
BRANCH  13  14
ATOM     14  C   UNL     1       6.217   4.053  15.836  0.00  0.00    +0.000 C 
BRANCH  14  15
ATOM     15  C   UNL     1       6.500   4.366  14.389  0.00  0.00    +0.000 C 
ATOM     16  O   UNL     1       5.913   3.893  13.426  0.00  0.00    +0.000 OA
BRANCH  15  18
ATOM     17  C   UNL     1       8.113   5.407  13.038  0.00  0.00    +0.000 C 
ATOM     18  O   UNL     1       7.500   5.293  14.322  0.00  0.00    +0.000 OA
ENDBRANCH  15  18
ENDBRANCH  14  15
ENDBRANCH  13  14
ENDBRANCH  11  13
ENDBRANCH  10  11
ENDBRANCH   9  10
ENDBRANCH   8   9
ENDBRANCH   7   8
ENDBRANCH   1   7
BRANCH   4  19
ATOM     19  C   UNL     1       0.272  10.746  19.711  0.00  0.00    +0.000 C 
BRANCH  19  20
ATOM     20  C   UNL     1      -1.059  10.809  19.014  0.00  0.00    +0.000 A 
ATOM     21  C   UNL     1      -1.333  10.016  17.897  0.00  0.00    +0.000 A 
ATOM     22  C   UNL     1      -2.560  10.131  17.252  0.00  0.00    +0.000 A 
ATOM     23  C   UNL     1      -3.478  11.043  17.747  0.00  0.00    +0.000 A 
ATOM     24  N   UNL     1      -3.257  11.821  18.827  0.00  0.00    +0.000 NA
ATOM     25  C   UNL     1      -2.054  11.690  19.430  0.00  0.00    +0.000 A 
ENDBRANCH  19  20
ENDBRANCH   4  19
TORSDOF 11
ENDMDL
MODEL 8
REMARK VINA RESULT:      -6.3      5.581      8.884
REMARK  Name = 
REMARK  13 active torsions:
REMARK  status: ('A' for Active; 'I' for Inactive)
REMARK    1  A    between atoms: C_1  and  O_2
REMARK    2  A    between atoms: O_2  and  C_3
REMARK    3  A    between atoms: C_3  and  C_5
REMARK    4  A    between atoms: C_5  and  C_6
REMARK    5  A    between atoms: C_6  and  N_7
REMARK    6  A    between atoms: N_7  and  C_8
REMARK    7  A    between atoms: N_7  and  C_9
REMARK    8  A    between atoms: C_9  and  C_10
REMARK    9  A    between atoms: C_10  and  C_11
REMARK   10  A    between atoms: C_11  and  O_12
REMARK   11  A    between atoms: O_12  and  C_13
REMARK   12  A    between atoms: C_16  and  C_17
REMARK   13  A    between atoms: C_17  and  C_18
REMARK                            x       y       z     vdW  Elec       q    Type
REMARK                         _______ _______ _______ _____ _____    ______ ____
ROOT
ATOM      1  C   UNL     1       7.703   7.019  18.166  0.00  0.00    +0.000 A 
ATOM      2  C   UNL     1       7.680   5.709  18.643  0.00  0.00    +0.000 A 
ATOM      3  C   UNL     1       6.798   4.774  18.105  0.00  0.00    +0.000 A 
ATOM      4  C   UNL     1       5.913   5.135  17.085  0.00  0.00    +0.000 A 
ATOM      5  C   UNL     1       5.905   6.463  16.636  0.00  0.00    +0.000 A 
ATOM      6  C   UNL     1       6.793   7.399  17.177  0.00  0.00    +0.000 A 
ENDROOT
BRANCH   1   7
ATOM      7  O   UNL     1       8.548   7.992  18.628  0.00  0.00    +0.000 OA
BRANCH   7   8
ATOM      8  C   UNL     1       8.264   9.305  18.129  0.00  0.00    +0.000 C 
BRANCH   8   9
ATOM      9  C   UNL     1       9.439  10.222  18.439  0.00  0.00    +0.000 C 
BRANCH   9  10
ATOM     10  C   UNL     1       9.193  10.974  19.754  0.00  0.00    +0.000 C 
BRANCH  10  11
ATOM     11  N   UNL     1       9.842  12.300  19.830  0.00  0.00    +0.000 NA
ATOM     12  C   UNL     1       9.281  13.103  20.921  0.00  0.00    +0.000 C 
BRANCH  11  13
ATOM     13  C   UNL     1       9.701  12.985  18.520  0.00  0.00    +0.000 C 
BRANCH  13  14
ATOM     14  C   UNL     1       8.563  14.007  18.478  0.00  0.00    +0.000 C 
BRANCH  14  15
ATOM     15  C   UNL     1       7.461  13.571  17.547  0.00  0.00    +0.000 C 
ATOM     16  O   UNL     1       7.453  12.549  16.877  0.00  0.00    +0.000 OA
BRANCH  15  18
ATOM     17  C   UNL     1       6.570  15.440  18.652  0.00  0.00    +0.000 C 
ATOM     18  O   UNL     1       6.450  14.487  17.597  0.00  0.00    +0.000 OA
ENDBRANCH  15  18
ENDBRANCH  14  15
ENDBRANCH  13  14
ENDBRANCH  11  13
ENDBRANCH  10  11
ENDBRANCH   9  10
ENDBRANCH   8   9
ENDBRANCH   7   8
ENDBRANCH   1   7
BRANCH   4  19
ATOM     19  C   UNL     1       4.965   4.104  16.521  0.00  0.00    +0.000 C 
BRANCH  19  20
ATOM     20  C   UNL     1       3.667   4.019  17.273  0.00  0.00    +0.000 A 
ATOM     21  C   UNL     1       3.212   5.079  18.061  0.00  0.00    +0.000 A 
ATOM     22  C   UNL     1       2.026   4.948  18.777  0.00  0.00    +0.000 A 
ATOM     23  C   UNL     1       1.331   3.754  18.682  0.00  0.00    +0.000 A 
ATOM     24  N   UNL     1       1.731   2.710  17.928  0.00  0.00    +0.000 NA
ATOM     25  C   UNL     1       2.889   2.864  17.247  0.00  0.00    +0.000 A 
ENDBRANCH  19  20
ENDBRANCH   4  19
TORSDOF 11
ENDMDL
MODEL 9
REMARK VINA RESULT:      -6.3      2.405      3.481
REMARK  Name = 
REMARK  13 active torsions:
REMARK  status: ('A' for Active; 'I' for Inactive)
REMARK    1  A    between atoms: C_1  and  O_2
REMARK    2  A    between atoms: O_2  and  C_3
REMARK    3  A    between atoms: C_3  and  C_5
REMARK    4  A    between atoms: C_5  and  C_6
REMARK    5  A    between atoms: C_6  and  N_7
REMARK    6  A    between atoms: N_7  and  C_8
REMARK    7  A    between atoms: N_7  and  C_9
REMARK    8  A    between atoms: C_9  and  C_10
REMARK    9  A    between atoms: C_10  and  C_11
REMARK   10  A    between atoms: C_11  and  O_12
REMARK   11  A    between atoms: O_12  and  C_13
REMARK   12  A    between atoms: C_16  and  C_17
REMARK   13  A    between atoms: C_17  and  C_18
REMARK                            x       y       z     vdW  Elec       q    Type
REMARK                         _______ _______ _______ _____ _____    ______ ____
ROOT
ATOM      1  C   UNL     1       2.302   7.341  19.267  0.00  0.00    +0.000 A 
ATOM      2  C   UNL     1       2.413   8.023  18.056  0.00  0.00    +0.000 A 
ATOM      3  C   UNL     1       1.863   9.295  17.907  0.00  0.00    +0.000 A 
ATOM      4  C   UNL     1       1.182   9.904  18.965  0.00  0.00    +0.000 A 
ATOM      5  C   UNL     1       1.032   9.199  20.168  0.00  0.00    +0.000 A 
ATOM      6  C   UNL     1       1.587   7.923  20.315  0.00  0.00    +0.000 A 
ENDROOT
BRANCH   1   7
ATOM      7  O   UNL     1       2.827   6.097  19.501  0.00  0.00    +0.000 OA
BRANCH   7   8
ATOM      8  C   UNL     1       2.098   5.320  20.458  0.00  0.00    +0.000 C 
BRANCH   8   9
ATOM      9  C   UNL     1       2.089   3.863  20.016  0.00  0.00    +0.000 C 
BRANCH   9  10
ATOM     10  C   UNL     1       2.642   3.737  18.590  0.00  0.00    +0.000 C 
BRANCH  10  11
ATOM     11  N   UNL     1       3.945   3.043  18.499  0.00  0.00    +0.000 NA
ATOM     12  C   UNL     1       4.338   2.486  19.797  0.00  0.00    +0.000 C 
BRANCH  11  13
ATOM     13  C   UNL     1       4.964   3.990  17.980  0.00  0.00    +0.000 C 
BRANCH  13  14
ATOM     14  C   UNL     1       4.514   4.761  16.738  0.00  0.00    +0.000 C 
BRANCH  14  15
ATOM     15  C   UNL     1       5.293   6.040  16.568  0.00  0.00    +0.000 C 
ATOM     16  O   UNL     1       5.241   6.787  15.602  0.00  0.00    +0.000 OA
BRANCH  15  18
ATOM     17  C   UNL     1       7.201   7.064  17.473  0.00  0.00    +0.000 C 
ATOM     18  O   UNL     1       6.047   6.252  17.687  0.00  0.00    +0.000 OA
ENDBRANCH  15  18
ENDBRANCH  14  15
ENDBRANCH  13  14
ENDBRANCH  11  13
ENDBRANCH  10  11
ENDBRANCH   9  10
ENDBRANCH   8   9
ENDBRANCH   7   8
ENDBRANCH   1   7
BRANCH   4  19
ATOM     19  C   UNL     1       0.592  11.282  18.777  0.00  0.00    +0.000 C 
BRANCH  19  20
ATOM     20  C   UNL     1       1.563  12.389  19.082  0.00  0.00    +0.000 A 
ATOM     21  C   UNL     1       2.348  12.964  18.079  0.00  0.00    +0.000 A 
ATOM     22  C   UNL     1       3.266  13.956  18.405  0.00  0.00    +0.000 A 
ATOM     23  C   UNL     1       3.372  14.342  19.730  0.00  0.00    +0.000 A 
ATOM     24  N   UNL     1       2.628  13.819  20.727  0.00  0.00    +0.000 NA
ATOM     25  C   UNL     1       1.748  12.853  20.381  0.00  0.00    +0.000 A 
ENDBRANCH  19  20
ENDBRANCH   4  19
TORSDOF 11
ENDMDL
