MODEL 1
REMARK VINA RESULT:      -8.4      0.000      0.000
REMARK  Name = 
REMARK  8 active torsions:
REMARK  status: ('A' for Active; 'I' for Inactive)
REMARK    1  A    between atoms: C_1  and  C_2
REMARK    2  A    between atoms: C_11  and  N_12
REMARK    3  A    between atoms: N_15  and  C_16
REMARK    4  A    between atoms: C_16  and  C_17
REMARK    5  A    between atoms: C_17  and  C_18
REMARK    6  A    between atoms: C_18  and  C_19
REMARK    7  A    between atoms: C_19  and  C_20
REMARK    8  A    between atoms: N_26  and  N_27
REMARK                            x       y       z     vdW  Elec       q    Type
REMARK                         _______ _______ _______ _____ _____    ______ ____
ROOT
ATOM      1  C   UNL     1       1.669  10.868  18.218  0.00  0.00    +0.000 C 
ENDROOT
BRANCH   1   5
ATOM      2  N   UNL     1      -1.838  11.596  18.723  0.00  0.00    +0.000 N 
ATOM      3  C   UNL     1      -0.981  12.478  17.929  0.00  0.00    +0.000 C 
ATOM      4  C   UNL     1       0.272  12.810  18.779  0.00  0.00    +0.000 C 
ATOM      5  N   UNL     1       1.008  11.622  19.294  0.00  0.00    +0.000 NA
ATOM      6  C   UNL     1       0.043  10.754  20.019  0.00  0.00    +0.000 C 
ATOM      7  C   UNL     1      -1.197  10.365  19.177  0.00  0.00    +0.000 C 
BRANCH   2  18
ATOM      8  C   UNL     1      -3.553  10.547  16.532  0.00  0.00    +0.000 C 
ATOM      9  C   UNL     1      -4.032  11.357  17.705  0.00  0.00    +0.000 A 
ATOM     10  C   UNL     1      -5.409  11.560  17.834  0.00  0.00    +0.000 A 
ATOM     11  C   UNL     1      -5.933  12.147  18.984  0.00  0.00    +0.000 A 
ATOM     12  C   UNL     1      -7.317  12.295  19.164  0.00  0.00    +0.000 A 
ATOM     13  C   UNL     1      -7.815  12.849  20.341  0.00  0.00    +0.000 A 
ATOM     14  C   UNL     1      -6.931  13.260  21.330  0.00  0.00    +0.000 A 
ATOM     15  C   UNL     1      -5.553  13.113  21.138  0.00  0.00    +0.000 A 
ATOM     16  C   UNL     1      -5.029  12.557  19.977  0.00  0.00    +0.000 A 
ATOM     17  N   UNL     1      -3.703  12.400  19.842  0.00  0.00    +0.000 NA
ATOM     18  C   UNL     1      -3.189  11.817  18.731  0.00  0.00    +0.000 A 
ENDBRANCH   2  18
ENDBRANCH   1   5
BRANCH   1  19
ATOM     19  C   UNL     1       2.321   9.568  18.706  0.00  0.00    +0.000 C 
BRANCH  19  20
ATOM     20  C   UNL     1       2.086   8.380  17.774  0.00  0.00    +0.000 C 
BRANCH  20  21
ATOM     21  C   UNL     1       3.382   7.623  17.497  0.00  0.00    +0.000 C 
BRANCH  21  22
ATOM     22  C   UNL     1       3.436   6.351  18.307  0.00  0.00    +0.000 A 
ATOM     23  N   UNL     1       2.361   5.999  18.938  0.00  0.00    +0.000 NA
ATOM     24  C   UNL     1       2.393   4.843  19.670  0.00  0.00    +0.000 A 
ATOM     25  C   UNL     1       3.474   4.062  19.800  0.00  0.00    +0.000 A 
ATOM     26  C   UNL     1       4.722   4.482  19.122  0.00  0.00    +0.000 A 
ATOM     27  O   UNL     1       5.763   3.839  19.231  0.00  0.00    +0.000 OA
ATOM     28  N   UNL     1       4.621   5.649  18.370  0.00  0.00    +0.000 N 
ATOM     29  C   UNL     1       3.499   2.786  20.585  0.00  0.00    +0.000 C 
ATOM     30  C   UNL     1       2.273   2.616  21.487  0.00  0.00    +0.000 C 
ATOM     31  C   UNL     1       0.998   3.022  20.758  0.00  0.00    +0.000 C 
ATOM     32  C   UNL     1       1.071   4.480  20.313  0.00  0.00    +0.000 C 
BRANCH  28  33
ATOM     33  N   UNL     1       5.771   6.067  17.632  0.00  0.00    +0.000 N 
ATOM     34  H   UNL     1       5.505   6.002  16.641  0.00  0.00    +0.000 HD
ATOM     35  H   UNL     1       6.489   5.352  17.752  0.00  0.00    +0.000 HD
ENDBRANCH  28  33
ENDBRANCH  21  22
ENDBRANCH  20  21
ENDBRANCH  19  20
ENDBRANCH   1  19
TORSDOF 7
ENDMDL
MODEL 2
REMARK VINA RESULT:      -8.3      3.984     10.818
REMARK  Name = 
REMARK  8 active torsions:
REMARK  status: ('A' for Active; 'I' for Inactive)
REMARK    1  A    between atoms: C_1  and  C_2
REMARK    2  A    between atoms: C_11  and  N_12
REMARK    3  A    between atoms: N_15  and  C_16
REMARK    4  A    between atoms: C_16  and  C_17
REMARK    5  A    between atoms: C_17  and  C_18
REMARK    6  A    between atoms: C_18  and  C_19
REMARK    7  A    between atoms: C_19  and  C_20
REMARK    8  A    between atoms: N_26  and  N_27
REMARK                            x       y       z     vdW  Elec       q    Type
REMARK                         _______ _______ _______ _____ _____    ______ ____
ROOT
ATOM      1  C   UNL     1       2.594   4.690  20.421  0.00  0.00    +0.000 C 
ENDROOT
BRANCH   1   5
ATOM      2  N   UNL     1       4.510   4.737  17.354  0.00  0.00    +0.000 N 
ATOM      3  C   UNL     1       3.420   5.686  17.589  0.00  0.00    +0.000 C 
ATOM      4  C   UNL     1       2.169   4.874  18.008  0.00  0.00    +0.000 C 
ATOM      5  N   UNL     1       2.379   3.958  19.164  0.00  0.00    +0.000 NA
ATOM      6  C   UNL     1       3.546   3.088  18.864  0.00  0.00    +0.000 C 
ATOM      7  C   UNL     1       4.826   3.874  18.489  0.00  0.00    +0.000 C 
BRANCH   2  18
ATOM      8  C   UNL     1       6.933   6.452  17.531  0.00  0.00    +0.000 C 
ATOM      9  C   UNL     1       6.459   5.733  16.299  0.00  0.00    +0.000 A 
ATOM     10  C   UNL     1       7.271   5.794  15.161  0.00  0.00    +0.000 A 
ATOM     11  C   UNL     1       6.983   5.010  14.045  0.00  0.00    +0.000 A 
ATOM     12  C   UNL     1       7.823   5.004  12.921  0.00  0.00    +0.000 A 
ATOM     13  C   UNL     1       7.534   4.180  11.835  0.00  0.00    +0.000 A 
ATOM     14  C   UNL     1       6.405   3.373  11.871  0.00  0.00    +0.000 A 
ATOM     15  C   UNL     1       5.570   3.392  12.995  0.00  0.00    +0.000 A 
ATOM     16  C   UNL     1       5.839   4.198  14.095  0.00  0.00    +0.000 A 
ATOM     17  N   UNL     1       5.035   4.164  15.169  0.00  0.00    +0.000 NA
ATOM     18  C   UNL     1       5.318   4.914  16.263  0.00  0.00    +0.000 A 
ENDBRANCH   2  18
ENDBRANCH   1   5
BRANCH   1  19
ATOM     19  C   UNL     1       1.412   5.591  20.803  0.00  0.00    +0.000 C 
BRANCH  19  20
ATOM     20  C   UNL     1       1.821   7.027  21.128  0.00  0.00    +0.000 C 
BRANCH  20  21
ATOM     21  C   UNL     1       1.818   7.904  19.878  0.00  0.00    +0.000 C 
BRANCH  21  22
ATOM     22  C   UNL     1       0.982   9.140  20.101  0.00  0.00    +0.000 A 
ATOM     23  N   UNL     1       0.383   9.259  21.242  0.00  0.00    +0.000 NA
ATOM     24  C   UNL     1      -0.371  10.380  21.461  0.00  0.00    +0.000 A 
ATOM     25  C   UNL     1      -0.554  11.354  20.559  0.00  0.00    +0.000 A 
ATOM     26  C   UNL     1       0.087  11.203  19.231  0.00  0.00    +0.000 A 
ATOM     27  O   UNL     1      -0.072  12.034  18.341  0.00  0.00    +0.000 OA
ATOM     28  N   UNL     1       0.864  10.059  19.079  0.00  0.00    +0.000 N 
ATOM     29  C   UNL     1      -1.364  12.590  20.809  0.00  0.00    +0.000 C 
ATOM     30  C   UNL     1      -2.224  12.493  22.072  0.00  0.00    +0.000 C 
ATOM     31  C   UNL     1      -1.443  11.865  23.219  0.00  0.00    +0.000 C 
ATOM     32  C   UNL     1      -0.973  10.461  22.848  0.00  0.00    +0.000 C 
BRANCH  28  33
ATOM     33  N   UNL     1       1.568   9.893  17.846  0.00  0.00    +0.000 N 
ATOM     34  H   UNL     1       2.509  10.273  18.010  0.00  0.00    +0.000 HD
ATOM     35  H   UNL     1       1.150  10.527  17.166  0.00  0.00    +0.000 HD
ENDBRANCH  28  33
ENDBRANCH  21  22
ENDBRANCH  20  21
ENDBRANCH  19  20
ENDBRANCH   1  19
TORSDOF 7
ENDMDL
MODEL 3
REMARK VINA RESULT:      -8.3      7.806     11.533
REMARK  Name = 
REMARK  8 active torsions:
REMARK  status: ('A' for Active; 'I' for Inactive)
REMARK    1  A    between atoms: C_1  and  C_2
REMARK    2  A    between atoms: C_11  and  N_12
REMARK    3  A    between atoms: N_15  and  C_16
REMARK    4  A    between atoms: C_16  and  C_17
REMARK    5  A    between atoms: C_17  and  C_18
REMARK    6  A    between atoms: C_18  and  C_19
REMARK    7  A    between atoms: C_19  and  C_20
REMARK    8  A    between atoms: N_26  and  N_27
REMARK                            x       y       z     vdW  Elec       q    Type
REMARK                         _______ _______ _______ _____ _____    ______ ____
ROOT
ATOM      1  C   UNL     1       7.665   8.860  17.892  0.00  0.00    +0.000 C 
ENDROOT
BRANCH   1   5
ATOM      2  N   UNL     1       5.433   6.015  17.985  0.00  0.00    +0.000 N 
ATOM      3  C   UNL     1       6.413   6.254  19.047  0.00  0.00    +0.000 C 
ATOM      4  C   UNL     1       7.795   6.455  18.377  0.00  0.00    +0.000 C 
ATOM      5  N   UNL     1       7.832   7.512  17.329  0.00  0.00    +0.000 NA
ATOM      6  C   UNL     1       6.759   7.226  16.340  0.00  0.00    +0.000 C 
ATOM      7  C   UNL     1       5.356   7.068  16.976  0.00  0.00    +0.000 C 
BRANCH   2  18
ATOM      8  C   UNL     1       5.337   3.674  16.153  0.00  0.00    +0.000 C 
ATOM      9  C   UNL     1       4.401   3.924  17.303  0.00  0.00    +0.000 A 
ATOM     10  C   UNL     1       3.462   2.931  17.601  0.00  0.00    +0.000 A 
ATOM     11  C   UNL     1       2.686   3.016  18.755  0.00  0.00    +0.000 A 
ATOM     12  C   UNL     1       1.788   1.996  19.109  0.00  0.00    +0.000 A 
ATOM     13  C   UNL     1       1.054   2.088  20.289  0.00  0.00    +0.000 A 
ATOM     14  C   UNL     1       1.210   3.199  21.106  0.00  0.00    +0.000 A 
ATOM     15  C   UNL     1       2.103   4.213  20.741  0.00  0.00    +0.000 A 
ATOM     16  C   UNL     1       2.854   4.144  19.574  0.00  0.00    +0.000 A 
ATOM     17  N   UNL     1       3.726   5.119  19.273  0.00  0.00    +0.000 NA
ATOM     18  C   UNL     1       4.494   5.034  18.159  0.00  0.00    +0.000 A 
ENDBRANCH   2  18
ENDBRANCH   1   5
BRANCH   1  19
ATOM     19  C   UNL     1       8.984   9.480  18.373  0.00  0.00    +0.000 C 
BRANCH  19  20
ATOM     20  C   UNL     1       9.063  10.990  18.157  0.00  0.00    +0.000 C 
BRANCH  20  21
ATOM     21  C   UNL     1      10.493  11.439  17.867  0.00  0.00    +0.000 C 
BRANCH  21  22
ATOM     22  C   UNL     1      10.687  12.881  18.265  0.00  0.00    +0.000 A 
ATOM     23  N   UNL     1      10.422  13.204  19.490  0.00  0.00    +0.000 NA
ATOM     24  C   UNL     1      10.602  14.507  19.867  0.00  0.00    +0.000 A 
ATOM     25  C   UNL     1      11.010  15.481  19.043  0.00  0.00    +0.000 A 
ATOM     26  C   UNL     1      11.268  15.132  17.626  0.00  0.00    +0.000 A 
ATOM     27  O   UNL     1      11.602  15.981  16.803  0.00  0.00    +0.000 OA
ATOM     28  N   UNL     1      11.096  13.788  17.309  0.00  0.00    +0.000 N 
ATOM     29  C   UNL     1      11.226  16.903  19.463  0.00  0.00    +0.000 C 
ATOM     30  C   UNL     1      10.636  17.213  20.842  0.00  0.00    +0.000 C 
ATOM     31  C   UNL     1      10.928  16.088  21.827  0.00  0.00    +0.000 C 
ATOM     32  C   UNL     1      10.334  14.770  21.334  0.00  0.00    +0.000 C 
BRANCH  28  33
ATOM     33  N   UNL     1      11.400  13.374  15.976  0.00  0.00    +0.000 N 
ATOM     34  H   UNL     1      12.159  13.992  15.660  0.00  0.00    +0.000 HD
ATOM     35  H   UNL     1      10.605  13.624  15.389  0.00  0.00    +0.000 HD
ENDBRANCH  28  33
ENDBRANCH  21  22
ENDBRANCH  20  21
ENDBRANCH  19  20
ENDBRANCH   1  19
TORSDOF 7
ENDMDL
MODEL 4
REMARK VINA RESULT:      -8.2      3.798     10.545
REMARK  Name = 
REMARK  8 active torsions:
REMARK  status: ('A' for Active; 'I' for Inactive)
REMARK    1  A    between atoms: C_1  and  C_2
REMARK    2  A    between atoms: C_11  and  N_12
REMARK    3  A    between atoms: N_15  and  C_16
REMARK    4  A    between atoms: C_16  and  C_17
REMARK    5  A    between atoms: C_17  and  C_18
REMARK    6  A    between atoms: C_18  and  C_19
REMARK    7  A    between atoms: C_19  and  C_20
REMARK    8  A    between atoms: N_26  and  N_27
REMARK                            x       y       z     vdW  Elec       q    Type
REMARK                         _______ _______ _______ _____ _____    ______ ____
ROOT
ATOM      1  C   UNL     1       1.674   2.650  20.094  0.00  0.00    +0.000 C 
ENDROOT
BRANCH   1   5
ATOM      2  N   UNL     1       4.116   3.610  17.605  0.00  0.00    +0.000 N 
ATOM      3  C   UNL     1       2.679   3.721  17.349  0.00  0.00    +0.000 C 
ATOM      4  C   UNL     1       2.033   2.352  17.682  0.00  0.00    +0.000 C 
ATOM      5  N   UNL     1       2.324   1.843  19.051  0.00  0.00    +0.000 NA
ATOM      6  C   UNL     1       3.799   1.837  19.242  0.00  0.00    +0.000 C 
ATOM      7  C   UNL     1       4.467   3.206  18.964  0.00  0.00    +0.000 C 
BRANCH   2  18
ATOM      8  C   UNL     1       6.273   5.443  18.519  0.00  0.00    +0.000 C 
ATOM      9  C   UNL     1       6.012   5.042  17.094  0.00  0.00    +0.000 A 
ATOM     10  C   UNL     1       6.911   5.490  16.120  0.00  0.00    +0.000 A 
ATOM     11  C   UNL     1       6.831   5.014  14.813  0.00  0.00    +0.000 A 
ATOM     12  C   UNL     1       7.766   5.396  13.838  0.00  0.00    +0.000 A 
ATOM     13  C   UNL     1       7.687   4.874  12.549  0.00  0.00    +0.000 A 
ATOM     14  C   UNL     1       6.672   3.981  12.235  0.00  0.00    +0.000 A 
ATOM     15  C   UNL     1       5.741   3.611  13.213  0.00  0.00    +0.000 A 
ATOM     16  C   UNL     1       5.801   4.110  14.508  0.00  0.00    +0.000 A 
ATOM     17  N   UNL     1       4.912   3.707  15.429  0.00  0.00    +0.000 NA
ATOM     18  C   UNL     1       4.993   4.156  16.706  0.00  0.00    +0.000 A 
ENDBRANCH   2  18
ENDBRANCH   1   5
BRANCH   1  19
ATOM     19  C   UNL     1       2.615   3.679  20.733  0.00  0.00    +0.000 C 
BRANCH  19  20
ATOM     20  C   UNL     1       2.031   5.090  20.784  0.00  0.00    +0.000 C 
BRANCH  20  21
ATOM     21  C   UNL     1       2.928   6.092  20.061  0.00  0.00    +0.000 C 
BRANCH  21  22
ATOM     22  C   UNL     1       2.198   7.395  19.843  0.00  0.00    +0.000 A 
ATOM     23  N   UNL     1       1.390   7.790  20.774  0.00  0.00    +0.000 NA
ATOM     24  C   UNL     1       0.729   8.974  20.592  0.00  0.00    +0.000 A 
ATOM     25  C   UNL     1       0.841   9.742  19.500  0.00  0.00    +0.000 A 
ATOM     26  C   UNL     1       1.726   9.273  18.408  0.00  0.00    +0.000 A 
ATOM     27  O   UNL     1       1.845   9.903  17.360  0.00  0.00    +0.000 OA
ATOM     28  N   UNL     1       2.394   8.079  18.661  0.00  0.00    +0.000 N 
ATOM     29  C   UNL     1       0.131  11.049  19.314  0.00  0.00    +0.000 C 
ATOM     30  C   UNL     1      -0.979  11.276  20.344  0.00  0.00    +0.000 C 
ATOM     31  C   UNL     1      -0.525  10.862  21.738  0.00  0.00    +0.000 C 
ATOM     32  C   UNL     1      -0.138   9.385  21.764  0.00  0.00    +0.000 C 
BRANCH  28  33
ATOM     33  N   UNL     1       3.318   7.612  17.677  0.00  0.00    +0.000 N 
ATOM     34  H   UNL     1       2.764   7.466  16.823  0.00  0.00    +0.000 HD
ATOM     35  H   UNL     1       3.613   6.676  17.953  0.00  0.00    +0.000 HD
ENDBRANCH  28  33
ENDBRANCH  21  22
ENDBRANCH  20  21
ENDBRANCH  19  20
ENDBRANCH   1  19
TORSDOF 7
ENDMDL
MODEL 5
REMARK VINA RESULT:      -8.2      1.334      2.069
REMARK  Name = 
REMARK  8 active torsions:
REMARK  status: ('A' for Active; 'I' for Inactive)
REMARK    1  A    between atoms: C_1  and  C_2
REMARK    2  A    between atoms: C_11  and  N_12
REMARK    3  A    between atoms: N_15  and  C_16
REMARK    4  A    between atoms: C_16  and  C_17
REMARK    5  A    between atoms: C_17  and  C_18
REMARK    6  A    between atoms: C_18  and  C_19
REMARK    7  A    between atoms: C_19  and  C_20
REMARK    8  A    between atoms: N_26  and  N_27
REMARK                            x       y       z     vdW  Elec       q    Type
REMARK                         _______ _______ _______ _____ _____    ______ ____
ROOT
ATOM      1  C   UNL     1       0.956  10.163  19.368  0.00  0.00    +0.000 C 
ENDROOT
BRANCH   1   5
ATOM      2  N   UNL     1      -1.774  12.397  20.166  0.00  0.00    +0.000 N 
ATOM      3  C   UNL     1      -1.312  12.216  18.789  0.00  0.00    +0.000 C 
ATOM      4  C   UNL     1       0.222  12.431  18.774  0.00  0.00    +0.000 C 
ATOM      5  N   UNL     1       0.980  11.586  19.738  0.00  0.00    +0.000 NA
ATOM      6  C   UNL     1       0.392  11.780  21.090  0.00  0.00    +0.000 C 
ATOM      7  C   UNL     1      -1.134  11.524  21.147  0.00  0.00    +0.000 C 
BRANCH   2  18
ATOM      8  C   UNL     1      -1.647  15.198  21.157  0.00  0.00    +0.000 C 
ATOM      9  C   UNL     1      -2.907  14.426  20.880  0.00  0.00    +0.000 A 
ATOM     10  C   UNL     1      -4.124  15.103  21.006  0.00  0.00    +0.000 A 
ATOM     11  C   UNL     1      -5.313  14.503  20.596  0.00  0.00    +0.000 A 
ATOM     12  C   UNL     1      -6.535  15.191  20.649  0.00  0.00    +0.000 A 
ATOM     13  C   UNL     1      -7.702  14.582  20.195  0.00  0.00    +0.000 A 
ATOM     14  C   UNL     1      -7.648  13.287  19.699  0.00  0.00    +0.000 A 
ATOM     15  C   UNL     1      -6.425  12.607  19.656  0.00  0.00    +0.000 A 
ATOM     16  C   UNL     1      -5.244  13.194  20.095  0.00  0.00    +0.000 A 
ATOM     17  N   UNL     1      -4.085  12.524  20.007  0.00  0.00    +0.000 NA
ATOM     18  C   UNL     1      -2.923  13.108  20.392  0.00  0.00    +0.000 A 
ENDBRANCH   2  18
ENDBRANCH   1   5
BRANCH   1  19
ATOM     19  C   UNL     1       1.816   9.846  18.137  0.00  0.00    +0.000 C 
BRANCH  19  20
ATOM     20  C   UNL     1       1.798   8.369  17.744  0.00  0.00    +0.000 C 
BRANCH  20  21
ATOM     21  C   UNL     1       3.212   7.810  17.609  0.00  0.00    +0.000 C 
BRANCH  21  22
ATOM     22  C   UNL     1       3.341   6.508  18.360  0.00  0.00    +0.000 A 
ATOM     23  N   UNL     1       2.329   6.126  19.072  0.00  0.00    +0.000 NA
ATOM     24  C   UNL     1       2.429   4.942  19.751  0.00  0.00    +0.000 A 
ATOM     25  C   UNL     1       3.518   4.162  19.751  0.00  0.00    +0.000 A 
ATOM     26  C   UNL     1       4.699   4.615  18.979  0.00  0.00    +0.000 A 
ATOM     27  O   UNL     1       5.746   3.973  18.967  0.00  0.00    +0.000 OA
ATOM     28  N   UNL     1       4.528   5.809  18.286  0.00  0.00    +0.000 N 
ATOM     29  C   UNL     1       3.617   2.856  20.479  0.00  0.00    +0.000 C 
ATOM     30  C   UNL     1       2.479   2.645  21.482  0.00  0.00    +0.000 C 
ATOM     31  C   UNL     1       1.142   3.073  20.889  0.00  0.00    +0.000 C 
ATOM     32  C   UNL     1       1.172   4.548  20.497  0.00  0.00    +0.000 C 
BRANCH  28  33
ATOM     33  N   UNL     1       5.606   6.262  17.463  0.00  0.00    +0.000 N 
ATOM     34  H   UNL     1       5.339   7.204  17.149  0.00  0.00    +0.000 HD
ATOM     35  H   UNL     1       5.601   5.697  16.615  0.00  0.00    +0.000 HD
ENDBRANCH  28  33
ENDBRANCH  21  22
ENDBRANCH  20  21
ENDBRANCH  19  20
ENDBRANCH   1  19
TORSDOF 7
ENDMDL
MODEL 6
REMARK VINA RESULT:      -8.2      7.843     11.473
REMARK  Name = 
REMARK  8 active torsions:
REMARK  status: ('A' for Active; 'I' for Inactive)
REMARK    1  A    between atoms: C_1  and  C_2
REMARK    2  A    between atoms: C_11  and  N_12
REMARK    3  A    between atoms: N_15  and  C_16
REMARK    4  A    between atoms: C_16  and  C_17
REMARK    5  A    between atoms: C_17  and  C_18
REMARK    6  A    between atoms: C_18  and  C_19
REMARK    7  A    between atoms: C_19  and  C_20
REMARK    8  A    between atoms: N_26  and  N_27
REMARK                            x       y       z     vdW  Elec       q    Type
REMARK                         _______ _______ _______ _____ _____    ______ ____
ROOT
ATOM      1  C   UNL     1       7.692   8.590  17.520  0.00  0.00    +0.000 C 
ENDROOT
BRANCH   1   5
ATOM      2  N   UNL     1       5.376   5.835  17.887  0.00  0.00    +0.000 N 
ATOM      3  C   UNL     1       6.343   6.166  18.936  0.00  0.00    +0.000 C 
ATOM      4  C   UNL     1       7.743   6.253  18.276  0.00  0.00    +0.000 C 
ATOM      5  N   UNL     1       7.829   7.183  17.116  0.00  0.00    +0.000 NA
ATOM      6  C   UNL     1       6.765   6.816  16.144  0.00  0.00    +0.000 C 
ATOM      7  C   UNL     1       5.347   6.769  16.764  0.00  0.00    +0.000 C 
BRANCH   2  18
ATOM      8  C   UNL     1       4.975   3.513  16.073  0.00  0.00    +0.000 C 
ATOM      9  C   UNL     1       4.169   3.807  17.308  0.00  0.00    +0.000 A 
ATOM     10  C   UNL     1       3.211   2.865  17.695  0.00  0.00    +0.000 A 
ATOM     11  C   UNL     1       2.555   2.987  18.919  0.00  0.00    +0.000 A 
ATOM     12  C   UNL     1       1.642   2.016  19.358  0.00  0.00    +0.000 A 
ATOM     13  C   UNL     1       1.030   2.141  20.604  0.00  0.00    +0.000 A 
ATOM     14  C   UNL     1       1.326   3.237  21.402  0.00  0.00    +0.000 A 
ATOM     15  C   UNL     1       2.234   4.203  20.952  0.00  0.00    +0.000 A 
ATOM     16  C   UNL     1       2.864   4.099  19.718  0.00  0.00    +0.000 A 
ATOM     17  N   UNL     1       3.754   5.027  19.334  0.00  0.00    +0.000 NA
ATOM     18  C   UNL     1       4.406   4.906  18.151  0.00  0.00    +0.000 A 
ENDBRANCH   2  18
ENDBRANCH   1   5
BRANCH   1  19
ATOM     19  C   UNL     1       8.689   9.003  18.611  0.00  0.00    +0.000 C 
BRANCH  19  20
ATOM     20  C   UNL     1       9.201  10.435  18.458  0.00  0.00    +0.000 C 
BRANCH  20  21
ATOM     21  C   UNL     1      10.080  10.842  19.639  0.00  0.00    +0.000 C 
BRANCH  21  22
ATOM     22  C   UNL     1      10.365  12.323  19.601  0.00  0.00    +0.000 A 
ATOM     23  N   UNL     1      10.748  12.829  18.473  0.00  0.00    +0.000 NA
ATOM     24  C   UNL     1      11.001  14.173  18.422  0.00  0.00    +0.000 A 
ATOM     25  C   UNL     1      10.905  14.999  19.472  0.00  0.00    +0.000 A 
ATOM     26  C   UNL     1      10.515  14.421  20.779  0.00  0.00    +0.000 A 
ATOM     27  O   UNL     1      10.448  15.109  21.794  0.00  0.00    +0.000 OA
ATOM     28  N   UNL     1      10.242  13.056  20.763  0.00  0.00    +0.000 N 
ATOM     29  C   UNL     1      11.163  16.474  19.408  0.00  0.00    +0.000 C 
ATOM     30  C   UNL     1      11.854  16.902  18.110  0.00  0.00    +0.000 C 
ATOM     31  C   UNL     1      11.243  16.196  16.906  0.00  0.00    +0.000 C 
ATOM     32  C   UNL     1      11.374  14.681  17.045  0.00  0.00    +0.000 C 
BRANCH  28  33
ATOM     33  N   UNL     1       9.790  12.453  21.977  0.00  0.00    +0.000 N 
ATOM     34  H   UNL     1      10.521  12.649  22.673  0.00  0.00    +0.000 HD
ATOM     35  H   UNL     1       9.822  11.443  21.848  0.00  0.00    +0.000 HD
ENDBRANCH  28  33
ENDBRANCH  21  22
ENDBRANCH  20  21
ENDBRANCH  19  20
ENDBRANCH   1  19
TORSDOF 7
ENDMDL
MODEL 7
REMARK VINA RESULT:      -8.2      1.713      2.736
REMARK  Name = 
REMARK  8 active torsions:
REMARK  status: ('A' for Active; 'I' for Inactive)
REMARK    1  A    between atoms: C_1  and  C_2
REMARK    2  A    between atoms: C_11  and  N_12
REMARK    3  A    between atoms: N_15  and  C_16
REMARK    4  A    between atoms: C_16  and  C_17
REMARK    5  A    between atoms: C_17  and  C_18
REMARK    6  A    between atoms: C_18  and  C_19
REMARK    7  A    between atoms: C_19  and  C_20
REMARK    8  A    between atoms: N_26  and  N_27
REMARK                            x       y       z     vdW  Elec       q    Type
REMARK                         _______ _______ _______ _____ _____    ______ ____
ROOT
ATOM      1  C   UNL     1       0.376  10.235  18.772  0.00  0.00    +0.000 C 
ENDROOT
BRANCH   1   5
ATOM      2  N   UNL     1      -1.823  12.069  20.983  0.00  0.00    +0.000 N 
ATOM      3  C   UNL     1      -2.138  11.893  19.564  0.00  0.00    +0.000 C 
ATOM      4  C   UNL     1      -0.898  12.336  18.746  0.00  0.00    +0.000 C 
ATOM      5  N   UNL     1       0.374  11.662  19.129  0.00  0.00    +0.000 NA
ATOM      6  C   UNL     1       0.569  11.831  20.593  0.00  0.00    +0.000 C 
ATOM      7  C   UNL     1      -0.635  11.351  21.440  0.00  0.00    +0.000 C 
BRANCH   2  18
ATOM      8  C   UNL     1      -1.050  13.997  23.110  0.00  0.00    +0.000 C 
ATOM      9  C   UNL     1      -2.445  13.506  22.841  0.00  0.00    +0.000 A 
ATOM     10  C   UNL     1      -3.485  14.068  23.587  0.00  0.00    +0.000 A 
ATOM     11  C   UNL     1      -4.814  13.790  23.269  0.00  0.00    +0.000 A 
ATOM     12  C   UNL     1      -5.873  14.399  23.960  0.00  0.00    +0.000 A 
ATOM     13  C   UNL     1      -7.191  14.134  23.595  0.00  0.00    +0.000 A 
ATOM     14  C   UNL     1      -7.447  13.258  22.550  0.00  0.00    +0.000 A 
ATOM     15  C   UNL     1      -6.384  12.651  21.871  0.00  0.00    +0.000 A 
ATOM     16  C   UNL     1      -5.059  12.904  22.209  0.00  0.00    +0.000 A 
ATOM     17  N   UNL     1      -4.065  12.330  21.514  0.00  0.00    +0.000 NA
ATOM     18  C   UNL     1      -2.771  12.608  21.810  0.00  0.00    +0.000 A 
ENDBRANCH   2  18
ENDBRANCH   1   5
BRANCH   1  19
ATOM     19  C   UNL     1       1.787   9.670  18.560  0.00  0.00    +0.000 C 
BRANCH  19  20
ATOM     20  C   UNL     1       1.806   8.354  17.783  0.00  0.00    +0.000 C 
BRANCH  20  21
ATOM     21  C   UNL     1       3.223   7.797  17.663  0.00  0.00    +0.000 C 
BRANCH  21  22
ATOM     22  C   UNL     1       3.345   6.494  18.412  0.00  0.00    +0.000 A 
ATOM     23  N   UNL     1       2.317   6.097  19.092  0.00  0.00    +0.000 NA
ATOM     24  C   UNL     1       2.411   4.911  19.769  0.00  0.00    +0.000 A 
ATOM     25  C   UNL     1       3.508   4.144  19.799  0.00  0.00    +0.000 A 
ATOM     26  C   UNL     1       4.707   4.614  19.064  0.00  0.00    +0.000 A 
ATOM     27  O   UNL     1       5.761   3.985  19.081  0.00  0.00    +0.000 OA
ATOM     28  N   UNL     1       4.542   5.810  18.371  0.00  0.00    +0.000 N 
ATOM     29  C   UNL     1       3.601   2.836  20.524  0.00  0.00    +0.000 C 
ATOM     30  C   UNL     1       2.436   2.607  21.491  0.00  0.00    +0.000 C 
ATOM     31  C   UNL     1       1.112   3.021  20.860  0.00  0.00    +0.000 C 
ATOM     32  C   UNL     1       1.136   4.499  20.475  0.00  0.00    +0.000 C 
BRANCH  28  33
ATOM     33  N   UNL     1       5.638   6.279  17.584  0.00  0.00    +0.000 N 
ATOM     34  H   UNL     1       5.226   6.903  16.878  0.00  0.00    +0.000 HD
ATOM     35  H   UNL     1       5.993   5.486  17.050  0.00  0.00    +0.000 HD
ENDBRANCH  28  33
ENDBRANCH  21  22
ENDBRANCH  20  21
ENDBRANCH  19  20
ENDBRANCH   1  19
TORSDOF 7
ENDMDL
MODEL 8
REMARK VINA RESULT:      -8.1      3.997     11.000
REMARK  Name = 
REMARK  8 active torsions:
REMARK  status: ('A' for Active; 'I' for Inactive)
REMARK    1  A    between atoms: C_1  and  C_2
REMARK    2  A    between atoms: C_11  and  N_12
REMARK    3  A    between atoms: N_15  and  C_16
REMARK    4  A    between atoms: C_16  and  C_17
REMARK    5  A    between atoms: C_17  and  C_18
REMARK    6  A    between atoms: C_18  and  C_19
REMARK    7  A    between atoms: C_19  and  C_20
REMARK    8  A    between atoms: N_26  and  N_27
REMARK                            x       y       z     vdW  Elec       q    Type
REMARK                         _______ _______ _______ _____ _____    ______ ____
ROOT
ATOM      1  C   UNL     1       2.541   4.874  20.720  0.00  0.00    +0.000 C 
ENDROOT
BRANCH   1   5
ATOM      2  N   UNL     1       4.511   4.754  17.689  0.00  0.00    +0.000 N 
ATOM      3  C   UNL     1       3.207   5.418  17.727  0.00  0.00    +0.000 C 
ATOM      4  C   UNL     1       2.187   4.420  18.331  0.00  0.00    +0.000 C 
ATOM      5  N   UNL     1       2.574   3.859  19.656  0.00  0.00    +0.000 NA
ATOM      6  C   UNL     1       3.936   3.276  19.536  0.00  0.00    +0.000 C 
ATOM      7  C   UNL     1       4.989   4.267  18.980  0.00  0.00    +0.000 C 
BRANCH   2  18
ATOM      8  C   UNL     1       7.104   6.204  17.836  0.00  0.00    +0.000 C 
ATOM      9  C   UNL     1       6.515   5.591  16.596  0.00  0.00    +0.000 A 
ATOM     10  C   UNL     1       7.286   5.619  15.430  0.00  0.00    +0.000 A 
ATOM     11  C   UNL     1       6.879   4.918  14.297  0.00  0.00    +0.000 A 
ATOM     12  C   UNL     1       7.673   4.875  13.140  0.00  0.00    +0.000 A 
ATOM     13  C   UNL     1       7.261   4.134  12.035  0.00  0.00    +0.000 A 
ATOM     14  C   UNL     1       6.056   3.446  12.085  0.00  0.00    +0.000 A 
ATOM     15  C   UNL     1       5.269   3.501  13.241  0.00  0.00    +0.000 A 
ATOM     16  C   UNL     1       5.660   4.225  14.360  0.00  0.00    +0.000 A 
ATOM     17  N   UNL     1       4.896   4.227  15.463  0.00  0.00    +0.000 NA
ATOM     18  C   UNL     1       5.294   4.896  16.574  0.00  0.00    +0.000 A 
ENDBRANCH   2  18
ENDBRANCH   1   5
BRANCH   1  19
ATOM     19  C   UNL     1       1.303   5.777  20.654  0.00  0.00    +0.000 C 
BRANCH  19  20
ATOM     20  C   UNL     1       1.636   7.255  20.451  0.00  0.00    +0.000 C 
BRANCH  20  21
ATOM     21  C   UNL     1       1.491   8.043  21.751  0.00  0.00    +0.000 C 
BRANCH  21  22
ATOM     22  C   UNL     1       0.794   9.357  21.498  0.00  0.00    +0.000 A 
ATOM     23  N   UNL     1       0.932   9.891  20.327  0.00  0.00    +0.000 NA
ATOM     24  C   UNL     1       0.299  11.079  20.082  0.00  0.00    +0.000 A 
ATOM     25  C   UNL     1      -0.436  11.743  20.984  0.00  0.00    +0.000 A 
ATOM     26  C   UNL     1      -0.560  11.164  22.342  0.00  0.00    +0.000 A 
ATOM     27  O   UNL     1      -1.181  11.738  23.233  0.00  0.00    +0.000 OA
ATOM     28  N   UNL     1       0.081   9.942  22.524  0.00  0.00    +0.000 N 
ATOM     29  C   UNL     1      -1.145  13.033  20.705  0.00  0.00    +0.000 C 
ATOM     30  C   UNL     1      -0.698  13.689  19.395  0.00  0.00    +0.000 C 
ATOM     31  C   UNL     1      -0.561  12.654  18.285  0.00  0.00    +0.000 C 
ATOM     32  C   UNL     1       0.463  11.587  18.665  0.00  0.00    +0.000 C 
BRANCH  28  33
ATOM     33  N   UNL     1      -0.062   9.298  23.791  0.00  0.00    +0.000 N 
ATOM     34  H   UNL     1      -0.882   9.734  24.233  0.00  0.00    +0.000 HD
ATOM     35  H   UNL     1       0.726   9.584  24.371  0.00  0.00    +0.000 HD
ENDBRANCH  28  33
ENDBRANCH  21  22
ENDBRANCH  20  21
ENDBRANCH  19  20
ENDBRANCH   1  19
TORSDOF 7
ENDMDL
MODEL 9
REMARK VINA RESULT:      -8.0      3.247     10.528
REMARK  Name = 
REMARK  8 active torsions:
REMARK  status: ('A' for Active; 'I' for Inactive)
REMARK    1  A    between atoms: C_1  and  C_2
REMARK    2  A    between atoms: C_11  and  N_12
REMARK    3  A    between atoms: N_15  and  C_16
REMARK    4  A    between atoms: C_16  and  C_17
REMARK    5  A    between atoms: C_17  and  C_18
REMARK    6  A    between atoms: C_18  and  C_19
REMARK    7  A    between atoms: C_19  and  C_20
REMARK    8  A    between atoms: N_26  and  N_27
REMARK                            x       y       z     vdW  Elec       q    Type
REMARK                         _______ _______ _______ _____ _____    ______ ____
ROOT
ATOM      1  C   UNL     1       0.302  10.933  21.082  0.00  0.00    +0.000 C 
ENDROOT
BRANCH   1   5
ATOM      2  N   UNL     1       1.808   7.981  19.632  0.00  0.00    +0.000 N 
ATOM      3  C   UNL     1       1.642   9.213  18.859  0.00  0.00    +0.000 C 
ATOM      4  C   UNL     1       0.163   9.656  18.987  0.00  0.00    +0.000 C 
ATOM      5  N   UNL     1      -0.325   9.799  20.387  0.00  0.00    +0.000 NA
ATOM      6  C   UNL     1      -0.048   8.530  21.110  0.00  0.00    +0.000 C 
ATOM      7  C   UNL     1       1.435   8.087  21.040  0.00  0.00    +0.000 C 
BRANCH   2  18
ATOM      8  C   UNL     1       1.348   5.174  20.500  0.00  0.00    +0.000 C 
ATOM      9  C   UNL     1       2.375   5.622  19.497  0.00  0.00    +0.000 A 
ATOM     10  C   UNL     1       3.116   4.632  18.843  0.00  0.00    +0.000 A 
ATOM     11  C   UNL     1       3.955   4.964  17.780  0.00  0.00    +0.000 A 
ATOM     12  C   UNL     1       4.653   3.979  17.066  0.00  0.00    +0.000 A 
ATOM     13  C   UNL     1       5.453   4.334  15.982  0.00  0.00    +0.000 A 
ATOM     14  C   UNL     1       5.560   5.670  15.621  0.00  0.00    +0.000 A 
ATOM     15  C   UNL     1       4.864   6.646  16.344  0.00  0.00    +0.000 A 
ATOM     16  C   UNL     1       4.053   6.319  17.424  0.00  0.00    +0.000 A 
ATOM     17  N   UNL     1       3.374   7.277  18.073  0.00  0.00    +0.000 NA
ATOM     18  C   UNL     1       2.546   6.958  19.099  0.00  0.00    +0.000 A 
ENDBRANCH   2  18
ENDBRANCH   1   5
BRANCH   1  19
ATOM     19  C   UNL     1      -0.179  11.094  22.530  0.00  0.00    +0.000 C 
BRANCH  19  20
ATOM     20  C   UNL     1      -1.048  12.331  22.749  0.00  0.00    +0.000 C 
BRANCH  20  21
ATOM     21  C   UNL     1      -1.644  12.836  21.437  0.00  0.00    +0.000 C 
BRANCH  21  22
ATOM     22  C   UNL     1      -3.150  12.766  21.478  0.00  0.00    +0.000 A 
ATOM     23  N   UNL     1      -3.720  12.824  22.639  0.00  0.00    +0.000 NA
ATOM     24  C   UNL     1      -5.087  12.771  22.690  0.00  0.00    +0.000 A 
ATOM     25  C   UNL     1      -5.877  12.636  21.617  0.00  0.00    +0.000 A 
ATOM     26  C   UNL     1      -5.232  12.520  20.287  0.00  0.00    +0.000 A 
ATOM     27  O   UNL     1      -5.891  12.351  19.264  0.00  0.00    +0.000 OA
ATOM     28  N   UNL     1      -3.844  12.610  20.296  0.00  0.00    +0.000 N 
ATOM     29  C   UNL     1      -7.374  12.600  21.674  0.00  0.00    +0.000 C 
ATOM     30  C   UNL     1      -7.912  12.411  23.096  0.00  0.00    +0.000 C 
ATOM     31  C   UNL     1      -7.145  13.274  24.089  0.00  0.00    +0.000 C 
ATOM     32  C   UNL     1      -5.660  12.916  24.083  0.00  0.00    +0.000 C 
BRANCH  28  33
ATOM     33  N   UNL     1      -3.168  12.578  19.037  0.00  0.00    +0.000 N 
ATOM     34  H   UNL     1      -3.764  12.016  18.415  0.00  0.00    +0.000 HD
ATOM     35  H   UNL     1      -2.324  12.019  19.157  0.00  0.00    +0.000 HD
ENDBRANCH  28  33
ENDBRANCH  21  22
ENDBRANCH  20  21
ENDBRANCH  19  20
ENDBRANCH   1  19
TORSDOF 7
ENDMDL
