MODEL 1
REMARK VINA RESULT:      -7.9      0.000      0.000
REMARK  Name = 
REMARK  7 active torsions:
REMARK  status: ('A' for Active; 'I' for Inactive)
REMARK    1  A    between atoms: C_1  and  C_2
REMARK    2  A    between atoms: C_7  and  C_8
REMARK    3  A    between atoms: C_11  and  O_12
REMARK    4  A    between atoms: O_12  and  C_13
REMARK    5  A    between atoms: C_13  and  C_14
REMARK    6  A    between atoms: C_14  and  C_15
REMARK    7  A    between atoms: C_15  and  N_16
REMARK                            x       y       z     vdW  Elec       q    Type
REMARK                         _______ _______ _______ _____ _____    ______ ____
ROOT
ATOM      1  C   UNL     1       1.346   8.918  19.503  0.00  0.00    +0.000 A 
ATOM      2  C   UNL     1       1.743   7.753  20.169  0.00  0.00    +0.000 A 
ATOM      3  C   UNL     1       2.548   6.801  19.547  0.00  0.00    +0.000 A 
ATOM      4  C   UNL     1       2.987   6.987  18.236  0.00  0.00    +0.000 A 
ATOM      5  C   UNL     1       2.580   8.137  17.551  0.00  0.00    +0.000 A 
ATOM      6  C   UNL     1       1.767   9.101  18.177  0.00  0.00    +0.000 A 
ENDROOT
BRANCH   1  13
ATOM      7  C   UNL     1      -3.927  13.473  22.080  0.00  0.00    +0.000 C 
ATOM      8  C   UNL     1      -2.730  12.574  21.994  0.00  0.00    +0.000 A 
ATOM      9  C   UNL     1      -2.300  11.875  23.205  0.00  0.00    +0.000 A 
ATOM     10  C   UNL     1      -1.277  11.006  23.136  0.00  0.00    +0.000 A 
ATOM     11  N   UNL     1      -0.645  10.783  21.915  0.00  0.00    +0.000 N 
ATOM     12  C   UNL     1       0.348   9.873  21.609  0.00  0.00    +0.000 A 
ATOM     13  C   UNL     1       0.572   9.905  20.244  0.00  0.00    +0.000 A 
ATOM     14  C   UNL     1      -0.235  10.961  19.723  0.00  0.00    +0.000 A 
ATOM     15  C   UNL     1      -1.007  11.447  20.753  0.00  0.00    +0.000 A 
ATOM     16  C   UNL     1      -2.080  12.380  20.825  0.00  0.00    +0.000 A 
ENDBRANCH   1  13
BRANCH   4  17
ATOM     17  O   UNL     1       3.808   6.119  17.558  0.00  0.00    +0.000 OA
BRANCH  17  18
ATOM     18  C   UNL     1       5.009   5.755  18.258  0.00  0.00    +0.000 C 
BRANCH  18  19
ATOM     19  C   UNL     1       5.228   4.248  18.199  0.00  0.00    +0.000 C 
BRANCH  19  20
ATOM     20  C   UNL     1       3.989   3.510  17.662  0.00  0.00    +0.000 C 
BRANCH  20  21
ATOM     21  N   UNL     1       3.092   2.947  18.693  0.00  0.00    +0.000 NA
ATOM     22  C   UNL     1       3.532   3.297  20.054  0.00  0.00    +0.000 C 
ATOM     23  C   UNL     1       2.608   2.705  21.120  0.00  0.00    +0.000 C 
ATOM     24  C   UNL     1       1.166   3.143  20.909  0.00  0.00    +0.000 C 
ATOM     25  C   UNL     1       0.729   2.830  19.485  0.00  0.00    +0.000 C 
ATOM     26  C   UNL     1       1.708   3.409  18.461  0.00  0.00    +0.000 C 
ENDBRANCH  20  21
ENDBRANCH  19  20
ENDBRANCH  18  19
ENDBRANCH  17  18
ENDBRANCH   4  17
TORSDOF 6
ENDMDL
MODEL 2
REMARK VINA RESULT:      -7.8      0.341      1.002
REMARK  Name = 
REMARK  7 active torsions:
REMARK  status: ('A' for Active; 'I' for Inactive)
REMARK    1  A    between atoms: C_1  and  C_2
REMARK    2  A    between atoms: C_7  and  C_8
REMARK    3  A    between atoms: C_11  and  O_12
REMARK    4  A    between atoms: O_12  and  C_13
REMARK    5  A    between atoms: C_13  and  C_14
REMARK    6  A    between atoms: C_14  and  C_15
REMARK    7  A    between atoms: C_15  and  N_16
REMARK                            x       y       z     vdW  Elec       q    Type
REMARK                         _______ _______ _______ _____ _____    ______ ____
ROOT
ATOM      1  C   UNL     1       1.263   9.125  19.681  0.00  0.00    +0.000 A 
ATOM      2  C   UNL     1       1.661   9.372  18.362  0.00  0.00    +0.000 A 
ATOM      3  C   UNL     1       2.396   8.436  17.639  0.00  0.00    +0.000 A 
ATOM      4  C   UNL     1       2.754   7.215  18.212  0.00  0.00    +0.000 A 
ATOM      5  C   UNL     1       2.382   6.963  19.538  0.00  0.00    +0.000 A 
ATOM      6  C   UNL     1       1.638   7.908  20.271  0.00  0.00    +0.000 A 
ENDROOT
BRANCH   1  13
ATOM      7  C   UNL     1      -4.291  13.529  21.903  0.00  0.00    +0.000 C 
ATOM      8  C   UNL     1      -3.041  12.703  21.886  0.00  0.00    +0.000 A 
ATOM      9  C   UNL     1      -2.574  12.127  23.147  0.00  0.00    +0.000 A 
ATOM     10  C   UNL     1      -1.499  11.320  23.145  0.00  0.00    +0.000 A 
ATOM     11  N   UNL     1      -0.849  11.043  21.944  0.00  0.00    +0.000 N 
ATOM     12  C   UNL     1       0.199  10.176  21.709  0.00  0.00    +0.000 A 
ATOM     13  C   UNL     1       0.428  10.117  20.345  0.00  0.00    +0.000 A 
ATOM     14  C   UNL     1      -0.441  11.078  19.745  0.00  0.00    +0.000 A 
ATOM     15  C   UNL     1      -1.247  11.593  20.735  0.00  0.00    +0.000 A 
ATOM     16  C   UNL     1      -2.375  12.460  20.735  0.00  0.00    +0.000 A 
ENDBRANCH   1  13
BRANCH   4  17
ATOM     17  O   UNL     1       3.448   6.222  17.564  0.00  0.00    +0.000 OA
BRANCH  17  18
ATOM     18  C   UNL     1       4.831   6.112  17.937  0.00  0.00    +0.000 C 
BRANCH  18  19
ATOM     19  C   UNL     1       5.132   4.721  18.479  0.00  0.00    +0.000 C 
BRANCH  19  20
ATOM     20  C   UNL     1       4.239   3.649  17.829  0.00  0.00    +0.000 C 
BRANCH  20  21
ATOM     21  N   UNL     1       3.248   3.021  18.729  0.00  0.00    +0.000 NA
ATOM     22  C   UNL     1       3.413   3.466  20.123  0.00  0.00    +0.000 C 
ATOM     23  C   UNL     1       2.394   2.807  21.055  0.00  0.00    +0.000 C 
ATOM     24  C   UNL     1       0.968   3.065  20.589  0.00  0.00    +0.000 C 
ATOM     25  C   UNL     1       0.814   2.654  19.131  0.00  0.00    +0.000 C 
ATOM     26  C   UNL     1       1.881   3.309  18.251  0.00  0.00    +0.000 C 
ENDBRANCH  20  21
ENDBRANCH  19  20
ENDBRANCH  18  19
ENDBRANCH  17  18
ENDBRANCH   4  17
TORSDOF 6
ENDMDL
MODEL 3
REMARK VINA RESULT:      -7.8      1.230      1.947
REMARK  Name = 
REMARK  7 active torsions:
REMARK  status: ('A' for Active; 'I' for Inactive)
REMARK    1  A    between atoms: C_1  and  C_2
REMARK    2  A    between atoms: C_7  and  C_8
REMARK    3  A    between atoms: C_11  and  O_12
REMARK    4  A    between atoms: O_12  and  C_13
REMARK    5  A    between atoms: C_13  and  C_14
REMARK    6  A    between atoms: C_14  and  C_15
REMARK    7  A    between atoms: C_15  and  N_16
REMARK                            x       y       z     vdW  Elec       q    Type
REMARK                         _______ _______ _______ _____ _____    ______ ____
ROOT
ATOM      1  C   UNL     1       2.255   7.789  19.107  0.00  0.00    +0.000 A 
ATOM      2  C   UNL     1       2.588   6.688  19.905  0.00  0.00    +0.000 A 
ATOM      3  C   UNL     1       3.552   5.767  19.502  0.00  0.00    +0.000 A 
ATOM      4  C   UNL     1       4.221   5.921  18.287  0.00  0.00    +0.000 A 
ATOM      5  C   UNL     1       3.882   7.005  17.470  0.00  0.00    +0.000 A 
ATOM      6  C   UNL     1       2.908   7.938  17.875  0.00  0.00    +0.000 A 
ENDROOT
BRANCH   1  13
ATOM      7  C   UNL     1      -1.377  12.861  23.141  0.00  0.00    +0.000 C 
ATOM      8  C   UNL     1      -0.871  12.044  21.991  0.00  0.00    +0.000 A 
ATOM      9  C   UNL     1      -0.856  12.653  20.661  0.00  0.00    +0.000 A 
ATOM     10  C   UNL     1      -0.336  11.967  19.628  0.00  0.00    +0.000 A 
ATOM     11  N   UNL     1       0.181  10.691  19.840  0.00  0.00    +0.000 N 
ATOM     12  C   UNL     1       0.838   9.866  18.949  0.00  0.00    +0.000 A 
ATOM     13  C   UNL     1       1.297   8.753  19.632  0.00  0.00    +0.000 A 
ATOM     14  C   UNL     1       0.792   8.856  20.963  0.00  0.00    +0.000 A 
ATOM     15  C   UNL     1       0.158  10.072  21.080  0.00  0.00    +0.000 A 
ATOM     16  C   UNL     1      -0.405  10.788  22.174  0.00  0.00    +0.000 A 
ENDBRANCH   1  13
BRANCH   4  17
ATOM     17  O   UNL     1       5.206   5.082  17.827  0.00  0.00    +0.000 OA
BRANCH  17  18
ATOM     18  C   UNL     1       4.823   4.256  16.715  0.00  0.00    +0.000 C 
BRANCH  18  19
ATOM     19  C   UNL     1       3.478   3.592  16.978  0.00  0.00    +0.000 C 
BRANCH  19  20
ATOM     20  C   UNL     1       3.631   2.290  17.786  0.00  0.00    +0.000 C 
BRANCH  20  21
ATOM     21  N   UNL     1       2.794   2.197  19.000  0.00  0.00    +0.000 NA
ATOM     22  C   UNL     1       3.541   2.572  20.213  0.00  0.00    +0.000 C 
ATOM     23  C   UNL     1       2.676   2.465  21.470  0.00  0.00    +0.000 C 
ATOM     24  C   UNL     1       1.417   3.312  21.350  0.00  0.00    +0.000 C 
ATOM     25  C   UNL     1       0.673   2.962  20.069  0.00  0.00    +0.000 C 
ATOM     26  C   UNL     1       1.593   3.045  18.849  0.00  0.00    +0.000 C 
ENDBRANCH  20  21
ENDBRANCH  19  20
ENDBRANCH  18  19
ENDBRANCH  17  18
ENDBRANCH   4  17
TORSDOF 6
ENDMDL
MODEL 4
REMARK VINA RESULT:      -7.8      0.476      1.060
REMARK  Name = 
REMARK  7 active torsions:
REMARK  status: ('A' for Active; 'I' for Inactive)
REMARK    1  A    between atoms: C_1  and  C_2
REMARK    2  A    between atoms: C_7  and  C_8
REMARK    3  A    between atoms: C_11  and  O_12
REMARK    4  A    between atoms: O_12  and  C_13
REMARK    5  A    between atoms: C_13  and  C_14
REMARK    6  A    between atoms: C_14  and  C_15
REMARK    7  A    between atoms: C_15  and  N_16
REMARK                            x       y       z     vdW  Elec       q    Type
REMARK                         _______ _______ _______ _____ _____    ______ ____
ROOT
ATOM      1  C   UNL     1       1.443   8.971  19.403  0.00  0.00    +0.000 A 
ATOM      2  C   UNL     1       1.866   7.774  19.992  0.00  0.00    +0.000 A 
ATOM      3  C   UNL     1       2.673   6.872  19.303  0.00  0.00    +0.000 A 
ATOM      4  C   UNL     1       3.090   7.142  17.999  0.00  0.00    +0.000 A 
ATOM      5  C   UNL     1       2.658   8.325  17.390  0.00  0.00    +0.000 A 
ATOM      6  C   UNL     1       1.842   9.239  18.085  0.00  0.00    +0.000 A 
ENDROOT
BRANCH   1  13
ATOM      7  C   UNL     1      -3.828  13.337  22.289  0.00  0.00    +0.000 C 
ATOM      8  C   UNL     1      -2.634  12.443  22.142  0.00  0.00    +0.000 A 
ATOM      9  C   UNL     1      -2.215  11.651  23.298  0.00  0.00    +0.000 A 
ATOM     10  C   UNL     1      -1.195  10.785  23.170  0.00  0.00    +0.000 A 
ATOM     11  N   UNL     1      -0.556  10.654  21.938  0.00  0.00    +0.000 N 
ATOM     12  C   UNL     1       0.435   9.766  21.570  0.00  0.00    +0.000 A 
ATOM     13  C   UNL     1       0.669   9.902  20.213  0.00  0.00    +0.000 A 
ATOM     14  C   UNL     1      -0.130  10.998  19.770  0.00  0.00    +0.000 A 
ATOM     15  C   UNL     1      -0.908  11.407  20.830  0.00  0.00    +0.000 A 
ATOM     16  C   UNL     1      -1.978  12.337  20.966  0.00  0.00    +0.000 A 
ENDBRANCH   1  13
BRANCH   4  17
ATOM     17  O   UNL     1       3.911   6.327  17.258  0.00  0.00    +0.000 OA
BRANCH  17  18
ATOM     18  C   UNL     1       4.609   5.326  18.017  0.00  0.00    +0.000 C 
BRANCH  18  19
ATOM     19  C   UNL     1       4.656   4.009  17.254  0.00  0.00    +0.000 C 
BRANCH  19  20
ATOM     20  C   UNL     1       3.963   2.874  18.029  0.00  0.00    +0.000 C 
BRANCH  20  21
ATOM     21  N   UNL     1       3.127   3.305  19.169  0.00  0.00    +0.000 NA
ATOM     22  C   UNL     1       1.690   3.233  18.855  0.00  0.00    +0.000 C 
ATOM     23  C   UNL     1       0.827   3.690  20.032  0.00  0.00    +0.000 C 
ATOM     24  C   UNL     1       1.128   2.882  21.287  0.00  0.00    +0.000 C 
ATOM     25  C   UNL     1       2.621   2.912  21.580  0.00  0.00    +0.000 C 
ATOM     26  C   UNL     1       3.439   2.486  20.358  0.00  0.00    +0.000 C 
ENDBRANCH  20  21
ENDBRANCH  19  20
ENDBRANCH  18  19
ENDBRANCH  17  18
ENDBRANCH   4  17
TORSDOF 6
ENDMDL
MODEL 5
REMARK VINA RESULT:      -7.7      1.258      2.246
REMARK  Name = 
REMARK  7 active torsions:
REMARK  status: ('A' for Active; 'I' for Inactive)
REMARK    1  A    between atoms: C_1  and  C_2
REMARK    2  A    between atoms: C_7  and  C_8
REMARK    3  A    between atoms: C_11  and  O_12
REMARK    4  A    between atoms: O_12  and  C_13
REMARK    5  A    between atoms: C_13  and  C_14
REMARK    6  A    between atoms: C_14  and  C_15
REMARK    7  A    between atoms: C_15  and  N_16
REMARK                            x       y       z     vdW  Elec       q    Type
REMARK                         _______ _______ _______ _____ _____    ______ ____
ROOT
ATOM      1  C   UNL     1       2.209   7.950  18.982  0.00  0.00    +0.000 A 
ATOM      2  C   UNL     1       2.935   8.048  17.790  0.00  0.00    +0.000 A 
ATOM      3  C   UNL     1       3.887   7.092  17.441  0.00  0.00    +0.000 A 
ATOM      4  C   UNL     1       4.140   6.002  18.273  0.00  0.00    +0.000 A 
ATOM      5  C   UNL     1       3.436   5.902  19.479  0.00  0.00    +0.000 A 
ATOM      6  C   UNL     1       2.473   6.867  19.834  0.00  0.00    +0.000 A 
ENDROOT
BRANCH   1  13
ATOM      7  C   UNL     1      -1.941  13.483  21.693  0.00  0.00    +0.000 C 
ATOM      8  C   UNL     1      -1.310  12.493  20.760  0.00  0.00    +0.000 A 
ATOM      9  C   UNL     1      -1.208  12.843  19.344  0.00  0.00    +0.000 A 
ATOM     10  C   UNL     1      -0.578  12.005  18.502  0.00  0.00    +0.000 A 
ATOM     11  N   UNL     1      -0.031  10.821  18.992  0.00  0.00    +0.000 N 
ATOM     12  C   UNL     1       0.730   9.881  18.326  0.00  0.00    +0.000 A 
ATOM     13  C   UNL     1       1.174   8.942  19.240  0.00  0.00    +0.000 A 
ATOM     14  C   UNL     1       0.556   9.264  20.486  0.00  0.00    +0.000 A 
ATOM     15  C   UNL     1      -0.132  10.445  20.322  0.00  0.00    +0.000 A 
ATOM     16  C   UNL     1      -0.812  11.321  21.214  0.00  0.00    +0.000 A 
ENDBRANCH   1  13
BRANCH   4  17
ATOM     17  O   UNL     1       5.034   4.997  17.994  0.00  0.00    +0.000 OA
BRANCH  17  18
ATOM     18  C   UNL     1       4.757   4.263  16.790  0.00  0.00    +0.000 C 
BRANCH  18  19
ATOM     19  C   UNL     1       3.452   3.488  16.923  0.00  0.00    +0.000 C 
BRANCH  19  20
ATOM     20  C   UNL     1       3.621   2.227  17.789  0.00  0.00    +0.000 C 
BRANCH  20  21
ATOM     21  N   UNL     1       2.789   2.182  19.010  0.00  0.00    +0.000 NA
ATOM     22  C   UNL     1       3.551   2.573  20.208  0.00  0.00    +0.000 C 
ATOM     23  C   UNL     1       2.692   2.516  21.473  0.00  0.00    +0.000 C 
ATOM     24  C   UNL     1       1.450   3.385  21.338  0.00  0.00    +0.000 C 
ATOM     25  C   UNL     1       0.691   3.017  20.070  0.00  0.00    +0.000 C 
ATOM     26  C   UNL     1       1.606   3.050  18.843  0.00  0.00    +0.000 C 
ENDBRANCH  20  21
ENDBRANCH  19  20
ENDBRANCH  18  19
ENDBRANCH  17  18
ENDBRANCH   4  17
TORSDOF 6
ENDMDL
MODEL 6
REMARK VINA RESULT:      -7.7      0.690      1.598
REMARK  Name = 
REMARK  7 active torsions:
REMARK  status: ('A' for Active; 'I' for Inactive)
REMARK    1  A    between atoms: C_1  and  C_2
REMARK    2  A    between atoms: C_7  and  C_8
REMARK    3  A    between atoms: C_11  and  O_12
REMARK    4  A    between atoms: O_12  and  C_13
REMARK    5  A    between atoms: C_13  and  C_14
REMARK    6  A    between atoms: C_14  and  C_15
REMARK    7  A    between atoms: C_15  and  N_16
REMARK                            x       y       z     vdW  Elec       q    Type
REMARK                         _______ _______ _______ _____ _____    ______ ____
ROOT
ATOM      1  C   UNL     1       1.277   8.758  19.645  0.00  0.00    +0.000 A 
ATOM      2  C   UNL     1       1.672   9.060  18.336  0.00  0.00    +0.000 A 
ATOM      3  C   UNL     1       2.541   8.231  17.631  0.00  0.00    +0.000 A 
ATOM      4  C   UNL     1       3.041   7.065  18.212  0.00  0.00    +0.000 A 
ATOM      5  C   UNL     1       2.671   6.761  19.527  0.00  0.00    +0.000 A 
ATOM      6  C   UNL     1       1.792   7.597  20.242  0.00  0.00    +0.000 A 
ENDROOT
BRANCH   1  13
ATOM      7  C   UNL     1      -2.185  13.861  23.786  0.00  0.00    +0.000 C 
ATOM      8  C   UNL     1      -1.838  12.917  22.674  0.00  0.00    +0.000 A 
ATOM      9  C   UNL     1      -2.329  13.218  21.330  0.00  0.00    +0.000 A 
ATOM     10  C   UNL     1      -1.968  12.428  20.304  0.00  0.00    +0.000 A 
ATOM     11  N   UNL     1      -1.131  11.339  20.537  0.00  0.00    +0.000 N 
ATOM     12  C   UNL     1      -0.570  10.470  19.622  0.00  0.00    +0.000 A 
ATOM     13  C   UNL     1       0.303   9.628  20.288  0.00  0.00    +0.000 A 
ATOM     14  C   UNL     1       0.172   9.925  21.679  0.00  0.00    +0.000 A 
ATOM     15  C   UNL     1      -0.670  11.007  21.801  0.00  0.00    +0.000 A 
ATOM     16  C   UNL     1      -1.062  11.832  22.893  0.00  0.00    +0.000 A 
ENDBRANCH   1  13
BRANCH   4  17
ATOM     17  O   UNL     1       3.874   6.174  17.581  0.00  0.00    +0.000 OA
BRANCH  17  18
ATOM     18  C   UNL     1       5.039   5.801  18.335  0.00  0.00    +0.000 C 
BRANCH  18  19
ATOM     19  C   UNL     1       5.240   4.291  18.301  0.00  0.00    +0.000 C 
BRANCH  19  20
ATOM     20  C   UNL     1       4.020   3.565  17.706  0.00  0.00    +0.000 C 
BRANCH  20  21
ATOM     21  N   UNL     1       3.091   2.976  18.693  0.00  0.00    +0.000 NA
ATOM     22  C   UNL     1       3.487   3.291  20.076  0.00  0.00    +0.000 C 
ATOM     23  C   UNL     1       2.530   2.671  21.096  0.00  0.00    +0.000 C 
ATOM     24  C   UNL     1       1.095   3.114  20.850  0.00  0.00    +0.000 C 
ATOM     25  C   UNL     1       0.704   2.838  19.405  0.00  0.00    +0.000 C 
ATOM     26  C   UNL     1       1.715   3.443  18.428  0.00  0.00    +0.000 C 
ENDBRANCH  20  21
ENDBRANCH  19  20
ENDBRANCH  18  19
ENDBRANCH  17  18
ENDBRANCH   4  17
TORSDOF 6
ENDMDL
MODEL 7
REMARK VINA RESULT:      -7.7      0.875      1.956
REMARK  Name = 
REMARK  7 active torsions:
REMARK  status: ('A' for Active; 'I' for Inactive)
REMARK    1  A    between atoms: C_1  and  C_2
REMARK    2  A    between atoms: C_7  and  C_8
REMARK    3  A    between atoms: C_11  and  O_12
REMARK    4  A    between atoms: O_12  and  C_13
REMARK    5  A    between atoms: C_13  and  C_14
REMARK    6  A    between atoms: C_14  and  C_15
REMARK    7  A    between atoms: C_15  and  N_16
REMARK                            x       y       z     vdW  Elec       q    Type
REMARK                         _______ _______ _______ _____ _____    ______ ____
ROOT
ATOM      1  C   UNL     1       1.625   8.537  19.337  0.00  0.00    +0.000 A 
ATOM      2  C   UNL     1       2.099   8.985  18.099  0.00  0.00    +0.000 A 
ATOM      3  C   UNL     1       3.022   8.242  17.364  0.00  0.00    +0.000 A 
ATOM      4  C   UNL     1       3.497   7.022  17.844  0.00  0.00    +0.000 A 
ATOM      5  C   UNL     1       3.047   6.572  19.091  0.00  0.00    +0.000 A 
ATOM      6  C   UNL     1       2.115   7.320  19.835  0.00  0.00    +0.000 A 
ENDROOT
BRANCH   1  13
ATOM      7  C   UNL     1      -2.143  13.197  23.727  0.00  0.00    +0.000 C 
ATOM      8  C   UNL     1      -1.726  12.354  22.560  0.00  0.00    +0.000 A 
ATOM      9  C   UNL     1      -2.175  12.749  21.225  0.00  0.00    +0.000 A 
ATOM     10  C   UNL     1      -1.752  12.054  20.155  0.00  0.00    +0.000 A 
ATOM     11  N   UNL     1      -0.892  10.972  20.334  0.00  0.00    +0.000 N 
ATOM     12  C   UNL     1      -0.271  10.195  19.376  0.00  0.00    +0.000 A 
ATOM     13  C   UNL     1       0.602   9.327  20.008  0.00  0.00    +0.000 A 
ATOM     14  C   UNL     1       0.410   9.508  21.411  0.00  0.00    +0.000 A 
ATOM     15  C   UNL     1      -0.468  10.553  21.585  0.00  0.00    +0.000 A 
ATOM     16  C   UNL     1      -0.926  11.277  22.722  0.00  0.00    +0.000 A 
ENDBRANCH   1  13
BRANCH   4  17
ATOM     17  O   UNL     1       4.379   6.209  17.174  0.00  0.00    +0.000 OA
BRANCH  17  18
ATOM     18  C   UNL     1       4.684   4.973  17.840  0.00  0.00    +0.000 C 
BRANCH  18  19
ATOM     19  C   UNL     1       4.317   3.785  16.960  0.00  0.00    +0.000 C 
BRANCH  19  20
ATOM     20  C   UNL     1       3.511   2.727  17.736  0.00  0.00    +0.000 C 
BRANCH  20  21
ATOM     21  N   UNL     1       2.895   3.198  18.994  0.00  0.00    +0.000 NA
ATOM     22  C   UNL     1       1.425   3.228  18.908  0.00  0.00    +0.000 C 
ATOM     23  C   UNL     1       0.790   3.726  20.208  0.00  0.00    +0.000 C 
ATOM     24  C   UNL     1       1.226   2.882  21.397  0.00  0.00    +0.000 C 
ATOM     25  C   UNL     1       2.746   2.807  21.453  0.00  0.00    +0.000 C 
ATOM     26  C   UNL     1       3.331   2.344  20.117  0.00  0.00    +0.000 C 
ENDBRANCH  20  21
ENDBRANCH  19  20
ENDBRANCH  18  19
ENDBRANCH  17  18
ENDBRANCH   4  17
TORSDOF 6
ENDMDL
MODEL 8
REMARK VINA RESULT:      -7.7      0.812      1.653
REMARK  Name = 
REMARK  7 active torsions:
REMARK  status: ('A' for Active; 'I' for Inactive)
REMARK    1  A    between atoms: C_1  and  C_2
REMARK    2  A    between atoms: C_7  and  C_8
REMARK    3  A    between atoms: C_11  and  O_12
REMARK    4  A    between atoms: O_12  and  C_13
REMARK    5  A    between atoms: C_13  and  C_14
REMARK    6  A    between atoms: C_14  and  C_15
REMARK    7  A    between atoms: C_15  and  N_16
REMARK                            x       y       z     vdW  Elec       q    Type
REMARK                         _______ _______ _______ _____ _____    ______ ____
ROOT
ATOM      1  C   UNL     1       1.255   8.838  19.337  0.00  0.00    +0.000 A 
ATOM      2  C   UNL     1       1.840   7.764  20.018  0.00  0.00    +0.000 A 
ATOM      3  C   UNL     1       2.819   6.973  19.420  0.00  0.00    +0.000 A 
ATOM      4  C   UNL     1       3.251   7.237  18.120  0.00  0.00    +0.000 A 
ATOM      5  C   UNL     1       2.660   8.295  17.420  0.00  0.00    +0.000 A 
ATOM      6  C   UNL     1       1.670   9.096  18.022  0.00  0.00    +0.000 A 
ENDROOT
BRANCH   1  13
ATOM      7  C   UNL     1      -2.090  13.769  23.773  0.00  0.00    +0.000 C 
ATOM      8  C   UNL     1      -1.786  12.852  22.627  0.00  0.00    +0.000 A 
ATOM      9  C   UNL     1      -2.371  13.157  21.321  0.00  0.00    +0.000 A 
ATOM     10  C   UNL     1      -2.052  12.394  20.261  0.00  0.00    +0.000 A 
ATOM     11  N   UNL     1      -1.169  11.329  20.423  0.00  0.00    +0.000 N 
ATOM     12  C   UNL     1      -0.641  10.491  19.460  0.00  0.00    +0.000 A 
ATOM     13  C   UNL     1       0.298   9.668  20.056  0.00  0.00    +0.000 A 
ATOM     14  C   UNL     1       0.248   9.941  21.456  0.00  0.00    +0.000 A 
ATOM     15  C   UNL     1      -0.617  10.994  21.649  0.00  0.00    +0.000 A 
ATOM     16  C   UNL     1      -0.964  11.790  22.777  0.00  0.00    +0.000 A 
ENDBRANCH   1  13
BRANCH   4  17
ATOM     17  O   UNL     1       4.232   6.533  17.465  0.00  0.00    +0.000 OA
BRANCH  17  18
ATOM     18  C   UNL     1       4.727   5.387  18.177  0.00  0.00    +0.000 C 
BRANCH  18  19
ATOM     19  C   UNL     1       4.711   4.152  17.285  0.00  0.00    +0.000 C 
BRANCH  19  20
ATOM     20  C   UNL     1       3.674   3.117  17.758  0.00  0.00    +0.000 C 
BRANCH  20  21
ATOM     21  N   UNL     1       3.010   3.428  19.041  0.00  0.00    +0.000 NA
ATOM     22  C   UNL     1       1.546   3.503  18.897  0.00  0.00    +0.000 C 
ATOM     23  C   UNL     1       0.861   3.836  20.224  0.00  0.00    +0.000 C 
ATOM     24  C   UNL     1       1.229   2.830  21.306  0.00  0.00    +0.000 C 
ATOM     25  C   UNL     1       2.743   2.714  21.416  0.00  0.00    +0.000 C 
ATOM     26  C   UNL     1       3.381   2.421  20.056  0.00  0.00    +0.000 C 
ENDBRANCH  20  21
ENDBRANCH  19  20
ENDBRANCH  18  19
ENDBRANCH  17  18
ENDBRANCH   4  17
TORSDOF 6
ENDMDL
MODEL 9
REMARK VINA RESULT:      -7.6      1.346      1.938
REMARK  Name = 
REMARK  7 active torsions:
REMARK  status: ('A' for Active; 'I' for Inactive)
REMARK    1  A    between atoms: C_1  and  C_2
REMARK    2  A    between atoms: C_7  and  C_8
REMARK    3  A    between atoms: C_11  and  O_12
REMARK    4  A    between atoms: O_12  and  C_13
REMARK    5  A    between atoms: C_13  and  C_14
REMARK    6  A    between atoms: C_14  and  C_15
REMARK    7  A    between atoms: C_15  and  N_16
REMARK                            x       y       z     vdW  Elec       q    Type
REMARK                         _______ _______ _______ _____ _____    ______ ____
ROOT
ATOM      1  C   UNL     1       1.627   8.677  18.853  0.00  0.00    +0.000 A 
ATOM      2  C   UNL     1       2.408   8.614  17.692  0.00  0.00    +0.000 A 
ATOM      3  C   UNL     1       3.371   7.623  17.519  0.00  0.00    +0.000 A 
ATOM      4  C   UNL     1       3.581   6.655  18.502  0.00  0.00    +0.000 A 
ATOM      5  C   UNL     1       2.823   6.718  19.676  0.00  0.00    +0.000 A 
ATOM      6  C   UNL     1       1.848   7.719  19.854  0.00  0.00    +0.000 A 
ENDROOT
BRANCH   1  13
ATOM      7  C   UNL     1      -4.804  12.392  18.976  0.00  0.00    +0.000 C 
ATOM      8  C   UNL     1      -3.382  11.986  19.222  0.00  0.00    +0.000 A 
ATOM      9  C   UNL     1      -2.736  12.437  20.454  0.00  0.00    +0.000 A 
ATOM     10  C   UNL     1      -1.487  12.023  20.734  0.00  0.00    +0.000 A 
ATOM     11  N   UNL     1      -0.832  11.171  19.848  0.00  0.00    +0.000 N 
ATOM     12  C   UNL     1       0.398  10.560  19.988  0.00  0.00    +0.000 A 
ATOM     13  C   UNL     1       0.585   9.692  18.927  0.00  0.00    +0.000 A 
ATOM     14  C   UNL     1      -0.525   9.877  18.050  0.00  0.00    +0.000 A 
ATOM     15  C   UNL     1      -1.402  10.746  18.658  0.00  0.00    +0.000 A 
ATOM     16  C   UNL     1      -2.718  11.194  18.351  0.00  0.00    +0.000 A 
ENDBRANCH   1  13
BRANCH   4  17
ATOM     17  O   UNL     1       4.484   5.624  18.401  0.00  0.00    +0.000 OA
BRANCH  17  18
ATOM     18  C   UNL     1       4.517   4.977  17.119  0.00  0.00    +0.000 C 
BRANCH  18  19
ATOM     19  C   UNL     1       3.394   3.954  17.004  0.00  0.00    +0.000 C 
BRANCH  19  20
ATOM     20  C   UNL     1       3.697   2.679  17.811  0.00  0.00    +0.000 C 
BRANCH  20  21
ATOM     21  N   UNL     1       2.843   2.464  18.998  0.00  0.00    +0.000 NA
ATOM     22  C   UNL     1       3.566   2.736  20.251  0.00  0.00    +0.000 C 
ATOM     23  C   UNL     1       2.684   2.503  21.479  0.00  0.00    +0.000 C 
ATOM     24  C   UNL     1       1.414   3.340  21.417  0.00  0.00    +0.000 C 
ATOM     25  C   UNL     1       0.695   3.098  20.096  0.00  0.00    +0.000 C 
ATOM     26  C   UNL     1       1.633   3.305  18.904  0.00  0.00    +0.000 C 
ENDBRANCH  20  21
ENDBRANCH  19  20
ENDBRANCH  18  19
ENDBRANCH  17  18
ENDBRANCH   4  17
TORSDOF 6
ENDMDL
