MODEL 1
REMARK VINA RESULT:      -7.4      0.000      0.000
REMARK  Name = 
REMARK  1 active torsions:
REMARK  status: ('A' for Active; 'I' for Inactive)
REMARK    1  A    between atoms: N_10  and  C_11
REMARK                            x       y       z     vdW  Elec       q    Type
REMARK                         _______ _______ _______ _____ _____    ______ ____
ROOT
ATOM      1  N   UNL     1       6.932   3.428  12.347  0.00  0.00    +0.000 NA
ATOM      2  C   UNL     1       7.128   4.402  13.173  0.00  0.00    +0.000 C 
ATOM      3  N   UNL     1       7.794   5.521  12.816  0.00  0.00    +0.000 N 
ATOM      4  N   UNL     1       6.655   4.307  14.434  0.00  0.00    +0.000 N 
ATOM      5  C   UNL     1       6.703   4.996  15.610  0.00  0.00    +0.000 C 
ATOM      6  N   UNL     1       7.418   6.050  15.826  0.00  0.00    +0.000 NA
ATOM      7  N   UNL     1       5.933   4.425  16.599  0.00  0.00    +0.000 N 
ATOM      8  C   UNL     1       4.491   4.200  16.360  0.00  0.00    +0.000 C 
ATOM      9  C   UNL     1       3.961   3.079  17.271  0.00  0.00    +0.000 C 
ATOM     10  N   UNL     1       4.219   3.410  18.681  0.00  0.00    +0.000 N 
ATOM     11  C   UNL     1       5.623   3.750  18.989  0.00  0.00    +0.000 C 
ATOM     12  C   UNL     1       6.178   4.815  18.012  0.00  0.00    +0.000 C 
ATOM     13  H   UNL     1       7.358   3.641  11.445  0.00  0.00    +0.000 HD
ATOM     14  H   UNL     1       8.020   5.593  11.832  0.00  0.00    +0.000 HD
ATOM     15  H   UNL     1       7.338   6.376  13.135  0.00  0.00    +0.000 HD
ATOM     16  H   UNL     1       6.240   3.394  14.559  0.00  0.00    +0.000 HD
ATOM     17  H   UNL     1       7.963   6.232  14.981  0.00  0.00    +0.000 HD
ENDROOT
BRANCH  10  18
ATOM     18  C   UNL     1       3.200   3.403  19.611  0.00  0.00    +0.000 A 
ATOM     19  C   UNL     1       3.291   2.647  20.794  0.00  0.00    +0.000 A 
ATOM     20  C   UNL     1       2.240   2.566  21.713  0.00  0.00    +0.000 A 
ATOM     21  C   UNL     1       1.061   3.261  21.478  0.00  0.00    +0.000 A 
ATOM     22  C   UNL     1       0.947   4.041  20.333  0.00  0.00    +0.000 A 
ATOM     23  C   UNL     1       2.005   4.111  19.417  0.00  0.00    +0.000 A 
ENDBRANCH  10  18
TORSDOF 1
ENDMDL
MODEL 2
REMARK VINA RESULT:      -7.2      0.140      1.136
REMARK  Name = 
REMARK  1 active torsions:
REMARK  status: ('A' for Active; 'I' for Inactive)
REMARK    1  A    between atoms: N_10  and  C_11
REMARK                            x       y       z     vdW  Elec       q    Type
REMARK                         _______ _______ _______ _____ _____    ______ ____
ROOT
ATOM      1  N   UNL     1       6.978   3.484  12.222  0.00  0.00    +0.000 NA
ATOM      2  C   UNL     1       7.183   4.433  13.074  0.00  0.00    +0.000 C 
ATOM      3  N   UNL     1       7.869   5.551  12.750  0.00  0.00    +0.000 N 
ATOM      4  N   UNL     1       6.702   4.314  14.329  0.00  0.00    +0.000 N 
ATOM      5  C   UNL     1       6.753   4.973  15.523  0.00  0.00    +0.000 C 
ATOM      6  N   UNL     1       7.482   6.009  15.770  0.00  0.00    +0.000 NA
ATOM      7  N   UNL     1       5.968   4.388  16.492  0.00  0.00    +0.000 N 
ATOM      8  C   UNL     1       4.524   4.191  16.239  0.00  0.00    +0.000 C 
ATOM      9  C   UNL     1       3.972   3.056  17.119  0.00  0.00    +0.000 C 
ATOM     10  N   UNL     1       4.226   3.347  18.538  0.00  0.00    +0.000 N 
ATOM     11  C   UNL     1       5.633   3.657  18.863  0.00  0.00    +0.000 C 
ATOM     12  C   UNL     1       6.210   4.738  17.916  0.00  0.00    +0.000 C 
ATOM     13  H   UNL     1       7.413   3.713  11.329  0.00  0.00    +0.000 HD
ATOM     14  H   UNL     1       8.102   5.645  11.769  0.00  0.00    +0.000 HD
ATOM     15  H   UNL     1       7.424   6.404  13.087  0.00  0.00    +0.000 HD
ATOM     16  H   UNL     1       6.272   3.405  14.429  0.00  0.00    +0.000 HD
ATOM     17  H   UNL     1       8.035   6.204  14.932  0.00  0.00    +0.000 HD
ENDROOT
BRANCH  10  18
ATOM     18  C   UNL     1       3.202   3.332  19.462  0.00  0.00    +0.000 A 
ATOM     19  C   UNL     1       2.018   4.064  19.257  0.00  0.00    +0.000 A 
ATOM     20  C   UNL     1       1.000   4.124  20.214  0.00  0.00    +0.000 A 
ATOM     21  C   UNL     1       1.134   3.431  21.410  0.00  0.00    +0.000 A 
ATOM     22  C   UNL     1       2.278   2.674  21.633  0.00  0.00    +0.000 A 
ATOM     23  C   UNL     1       3.293   2.624  20.669  0.00  0.00    +0.000 A 
ENDBRANCH  10  18
TORSDOF 1
ENDMDL
MODEL 3
REMARK VINA RESULT:      -7.0      1.370      1.844
REMARK  Name = 
REMARK  1 active torsions:
REMARK  status: ('A' for Active; 'I' for Inactive)
REMARK    1  A    between atoms: N_10  and  C_11
REMARK                            x       y       z     vdW  Elec       q    Type
REMARK                         _______ _______ _______ _____ _____    ______ ____
ROOT
ATOM      1  N   UNL     1       6.206   2.216  11.829  0.00  0.00    +0.000 NA
ATOM      2  C   UNL     1       6.666   3.302  12.358  0.00  0.00    +0.000 C 
ATOM      3  N   UNL     1       7.472   4.145  11.677  0.00  0.00    +0.000 N 
ATOM      4  N   UNL     1       6.336   3.611  13.630  0.00  0.00    +0.000 N 
ATOM      5  C   UNL     1       6.643   4.541  14.580  0.00  0.00    +0.000 C 
ATOM      6  N   UNL     1       7.552   5.450  14.465  0.00  0.00    +0.000 NA
ATOM      7  N   UNL     1       5.907   4.391  15.734  0.00  0.00    +0.000 N 
ATOM      8  C   UNL     1       4.429   4.408  15.663  0.00  0.00    +0.000 C 
ATOM      9  C   UNL     1       3.822   3.670  16.869  0.00  0.00    +0.000 C 
ATOM     10  N   UNL     1       4.298   4.274  18.123  0.00  0.00    +0.000 N 
ATOM     11  C   UNL     1       5.767   4.390  18.234  0.00  0.00    +0.000 C 
ATOM     12  C   UNL     1       6.381   5.054  16.977  0.00  0.00    +0.000 C 
ATOM     13  H   UNL     1       6.553   2.116  10.876  0.00  0.00    +0.000 HD
ATOM     14  H   UNL     1       7.589   3.930  10.695  0.00  0.00    +0.000 HD
ATOM     15  H   UNL     1       7.214   5.124  11.794  0.00  0.00    +0.000 HD
ATOM     16  H   UNL     1       5.785   2.858  14.017  0.00  0.00    +0.000 HD
ATOM     17  H   UNL     1       8.017   5.309  13.565  0.00  0.00    +0.000 HD
ENDROOT
BRANCH  10  18
ATOM     18  C   UNL     1       3.411   4.696  19.091  0.00  0.00    +0.000 A 
ATOM     19  C   UNL     1       2.947   6.023  19.132  0.00  0.00    +0.000 A 
ATOM     20  C   UNL     1       2.108   6.491  20.149  0.00  0.00    +0.000 A 
ATOM     21  C   UNL     1       1.693   5.629  21.155  0.00  0.00    +0.000 A 
ATOM     22  C   UNL     1       2.110   4.303  21.129  0.00  0.00    +0.000 A 
ATOM     23  C   UNL     1       2.954   3.846  20.108  0.00  0.00    +0.000 A 
ENDBRANCH  10  18
TORSDOF 1
ENDMDL
MODEL 4
REMARK VINA RESULT:      -6.7      1.749      7.215
REMARK  Name = 
REMARK  1 active torsions:
REMARK  status: ('A' for Active; 'I' for Inactive)
REMARK    1  A    between atoms: N_10  and  C_11
REMARK                            x       y       z     vdW  Elec       q    Type
REMARK                         _______ _______ _______ _____ _____    ______ ____
ROOT
ATOM      1  N   UNL     1       0.658   3.677  20.565  0.00  0.00    +0.000 NA
ATOM      2  C   UNL     1       1.850   3.204  20.721  0.00  0.00    +0.000 C 
ATOM      3  N   UNL     1       2.181   2.425  21.773  0.00  0.00    +0.000 N 
ATOM      4  N   UNL     1       2.802   3.493  19.808  0.00  0.00    +0.000 N 
ATOM      5  C   UNL     1       4.141   3.312  19.619  0.00  0.00    +0.000 C 
ATOM      6  N   UNL     1       4.951   2.795  20.481  0.00  0.00    +0.000 NA
ATOM      7  N   UNL     1       4.580   3.789  18.403  0.00  0.00    +0.000 N 
ATOM      8  C   UNL     1       3.959   3.290  17.158  0.00  0.00    +0.000 C 
ATOM      9  C   UNL     1       4.139   4.308  16.019  0.00  0.00    +0.000 C 
ATOM     10  N   UNL     1       5.568   4.595  15.819  0.00  0.00    +0.000 N 
ATOM     11  C   UNL     1       6.292   5.004  17.041  0.00  0.00    +0.000 C 
ATOM     12  C   UNL     1       6.035   4.022  18.210  0.00  0.00    +0.000 C 
ATOM     13  H   UNL     1       0.061   3.384  21.338  0.00  0.00    +0.000 HD
ATOM     14  H   UNL     1       1.406   2.140  22.359  0.00  0.00    +0.000 HD
ATOM     15  H   UNL     1       2.737   1.612  21.509  0.00  0.00    +0.000 HD
ATOM     16  H   UNL     1       2.416   4.129  19.125  0.00  0.00    +0.000 HD
ATOM     17  H   UNL     1       4.414   2.598  21.329  0.00  0.00    +0.000 HD
ENDROOT
BRANCH  10  18
ATOM     18  C   UNL     1       6.152   4.471  14.576  0.00  0.00    +0.000 A 
ATOM     19  C   UNL     1       7.303   5.203  14.229  0.00  0.00    +0.000 A 
ATOM     20  C   UNL     1       7.865   5.149  12.950  0.00  0.00    +0.000 A 
ATOM     21  C   UNL     1       7.296   4.338  11.977  0.00  0.00    +0.000 A 
ATOM     22  C   UNL     1       6.176   3.578  12.294  0.00  0.00    +0.000 A 
ATOM     23  C   UNL     1       5.618   3.644  13.578  0.00  0.00    +0.000 A 
ENDBRANCH  10  18
TORSDOF 1
ENDMDL
MODEL 5
REMARK VINA RESULT:      -6.7      8.754      9.962
REMARK  Name = 
REMARK  1 active torsions:
REMARK  status: ('A' for Active; 'I' for Inactive)
REMARK    1  A    between atoms: N_10  and  C_11
REMARK                            x       y       z     vdW  Elec       q    Type
REMARK                         _______ _______ _______ _____ _____    ______ ____
ROOT
ATOM      1  N   UNL     1      -2.388   9.619  12.612  0.00  0.00    +0.000 NA
ATOM      2  C   UNL     1      -3.308   9.939  13.462  0.00  0.00    +0.000 C 
ATOM      3  N   UNL     1      -4.615   9.976  13.123  0.00  0.00    +0.000 N 
ATOM      4  N   UNL     1      -2.962  10.246  14.729  0.00  0.00    +0.000 N 
ATOM      5  C   UNL     1      -3.539  10.710  15.875  0.00  0.00    +0.000 C 
ATOM      6  N   UNL     1      -4.763  11.105  15.984  0.00  0.00    +0.000 NA
ATOM      7  N   UNL     1      -2.659  10.768  16.934  0.00  0.00    +0.000 N 
ATOM      8  C   UNL     1      -1.940   9.545  17.350  0.00  0.00    +0.000 C 
ATOM      9  C   UNL     1      -0.643   9.909  18.095  0.00  0.00    +0.000 C 
ATOM     10  N   UNL     1      -0.948  10.763  19.253  0.00  0.00    +0.000 N 
ATOM     11  C   UNL     1      -1.757  11.960  18.941  0.00  0.00    +0.000 C 
ATOM     12  C   UNL     1      -3.015  11.597  18.114  0.00  0.00    +0.000 C 
ATOM     13  H   UNL     1      -2.804   9.429  11.700  0.00  0.00    +0.000 HD
ATOM     14  H   UNL     1      -4.832   9.621  12.200  0.00  0.00    +0.000 HD
ATOM     15  H   UNL     1      -5.220   9.538  13.817  0.00  0.00    +0.000 HD
ATOM     16  H   UNL     1      -1.954  10.232  14.805  0.00  0.00    +0.000 HD
ATOM     17  H   UNL     1      -5.189  11.049  15.056  0.00  0.00    +0.000 HD
ENDROOT
BRANCH  10  18
ATOM     18  C   UNL     1      -0.507  10.434  20.517  0.00  0.00    +0.000 A 
ATOM     19  C   UNL     1       0.481   9.451  20.717  0.00  0.00    +0.000 A 
ATOM     20  C   UNL     1       0.887   9.048  21.992  0.00  0.00    +0.000 A 
ATOM     21  C   UNL     1       0.323   9.636  23.116  0.00  0.00    +0.000 A 
ATOM     22  C   UNL     1      -0.634  10.631  22.956  0.00  0.00    +0.000 A 
ATOM     23  C   UNL     1      -1.038  11.024  21.673  0.00  0.00    +0.000 A 
ENDBRANCH  10  18
TORSDOF 1
ENDMDL
MODEL 6
REMARK VINA RESULT:      -6.7      1.742      7.218
REMARK  Name = 
REMARK  1 active torsions:
REMARK  status: ('A' for Active; 'I' for Inactive)
REMARK    1  A    between atoms: N_10  and  C_11
REMARK                            x       y       z     vdW  Elec       q    Type
REMARK                         _______ _______ _______ _____ _____    ______ ____
ROOT
ATOM      1  N   UNL     1       0.761   3.771  20.640  0.00  0.00    +0.000 NA
ATOM      2  C   UNL     1       1.945   3.268  20.759  0.00  0.00    +0.000 C 
ATOM      3  N   UNL     1       2.282   2.462  21.789  0.00  0.00    +0.000 N 
ATOM      4  N   UNL     1       2.882   3.552  19.830  0.00  0.00    +0.000 N 
ATOM      5  C   UNL     1       4.212   3.345  19.605  0.00  0.00    +0.000 C 
ATOM      6  N   UNL     1       5.029   2.793  20.438  0.00  0.00    +0.000 NA
ATOM      7  N   UNL     1       4.633   3.835  18.389  0.00  0.00    +0.000 N 
ATOM      8  C   UNL     1       3.972   3.373  17.149  0.00  0.00    +0.000 C 
ATOM      9  C   UNL     1       4.150   4.409  16.025  0.00  0.00    +0.000 C 
ATOM     10  N   UNL     1       5.580   4.667  15.797  0.00  0.00    +0.000 N 
ATOM     11  C   UNL     1       6.341   5.036  17.009  0.00  0.00    +0.000 C 
ATOM     12  C   UNL     1       6.088   4.038  18.165  0.00  0.00    +0.000 C 
ATOM     13  H   UNL     1       0.175   3.477  21.422  0.00  0.00    +0.000 HD
ATOM     14  H   UNL     1       1.515   2.184  22.388  0.00  0.00    +0.000 HD
ATOM     15  H   UNL     1       2.813   1.642  21.497  0.00  0.00    +0.000 HD
ATOM     16  H   UNL     1       2.496   4.210  19.167  0.00  0.00    +0.000 HD
ATOM     17  H   UNL     1       4.508   2.593  21.295  0.00  0.00    +0.000 HD
ENDROOT
BRANCH  10  18
ATOM     18  C   UNL     1       6.132   4.552  14.539  0.00  0.00    +0.000 A 
ATOM     19  C   UNL     1       5.601   3.669  13.581  0.00  0.00    +0.000 A 
ATOM     20  C   UNL     1       6.191   3.481  12.328  0.00  0.00    +0.000 A 
ATOM     21  C   UNL     1       7.332   4.194  11.987  0.00  0.00    +0.000 A 
ATOM     22  C   UNL     1       7.868   5.098  12.897  0.00  0.00    +0.000 A 
ATOM     23  C   UNL     1       7.271   5.274  14.153  0.00  0.00    +0.000 A 
ENDBRANCH  10  18
TORSDOF 1
ENDMDL
MODEL 7
REMARK VINA RESULT:      -6.5      3.763      4.593
REMARK  Name = 
REMARK  1 active torsions:
REMARK  status: ('A' for Active; 'I' for Inactive)
REMARK    1  A    between atoms: N_10  and  C_11
REMARK                            x       y       z     vdW  Elec       q    Type
REMARK                         _______ _______ _______ _____ _____    ______ ____
ROOT
ATOM      1  N   UNL     1       6.463   5.168  14.445  0.00  0.00    +0.000 NA
ATOM      2  C   UNL     1       6.685   4.977  15.703  0.00  0.00    +0.000 C 
ATOM      3  N   UNL     1       7.824   4.404  16.151  0.00  0.00    +0.000 N 
ATOM      4  N   UNL     1       5.756   5.357  16.606  0.00  0.00    +0.000 N 
ATOM      5  C   UNL     1       5.523   5.272  17.947  0.00  0.00    +0.000 C 
ATOM      6  N   UNL     1       6.246   4.610  18.787  0.00  0.00    +0.000 NA
ATOM      7  N   UNL     1       4.382   5.938  18.337  0.00  0.00    +0.000 N 
ATOM      8  C   UNL     1       4.237   7.377  18.026  0.00  0.00    +0.000 C 
ATOM      9  C   UNL     1       2.751   7.775  17.997  0.00  0.00    +0.000 C 
ATOM     10  N   UNL     1       2.114   7.445  19.281  0.00  0.00    +0.000 N 
ATOM     11  C   UNL     1       2.299   6.046  19.719  0.00  0.00    +0.000 C 
ATOM     12  C   UNL     1       3.787   5.623  19.661  0.00  0.00    +0.000 C 
ATOM     13  H   UNL     1       7.245   4.817  13.893  0.00  0.00    +0.000 HD
ATOM     14  H   UNL     1       8.534   4.250  15.447  0.00  0.00    +0.000 HD
ATOM     15  H   UNL     1       8.225   4.889  16.953  0.00  0.00    +0.000 HD
ATOM     16  H   UNL     1       4.946   5.706  16.113  0.00  0.00    +0.000 HD
ATOM     17  H   UNL     1       6.979   4.134  18.256  0.00  0.00    +0.000 HD
ENDROOT
BRANCH  10  18
ATOM     18  C   UNL     1       1.417   8.396  19.995  0.00  0.00    +0.000 A 
ATOM     19  C   UNL     1       1.095   8.206  21.352  0.00  0.00    +0.000 A 
ATOM     20  C   UNL     1       0.324   9.123  22.073  0.00  0.00    +0.000 A 
ATOM     21  C   UNL     1      -0.137  10.276  21.455  0.00  0.00    +0.000 A 
ATOM     22  C   UNL     1       0.186  10.511  20.123  0.00  0.00    +0.000 A 
ATOM     23  C   UNL     1       0.955   9.583  19.408  0.00  0.00    +0.000 A 
ENDBRANCH  10  18
TORSDOF 1
ENDMDL
MODEL 8
REMARK VINA RESULT:      -6.5      3.779      4.722
REMARK  Name = 
REMARK  1 active torsions:
REMARK  status: ('A' for Active; 'I' for Inactive)
REMARK    1  A    between atoms: N_10  and  C_11
REMARK                            x       y       z     vdW  Elec       q    Type
REMARK                         _______ _______ _______ _____ _____    ______ ____
ROOT
ATOM      1  N   UNL     1       6.491   5.202  14.443  0.00  0.00    +0.000 NA
ATOM      2  C   UNL     1       6.699   4.988  15.700  0.00  0.00    +0.000 C 
ATOM      3  N   UNL     1       7.829   4.399  16.149  0.00  0.00    +0.000 N 
ATOM      4  N   UNL     1       5.765   5.361  16.600  0.00  0.00    +0.000 N 
ATOM      5  C   UNL     1       5.518   5.255  17.938  0.00  0.00    +0.000 C 
ATOM      6  N   UNL     1       6.227   4.573  18.773  0.00  0.00    +0.000 NA
ATOM      7  N   UNL     1       4.379   5.924  18.327  0.00  0.00    +0.000 N 
ATOM      8  C   UNL     1       4.248   7.369  18.039  0.00  0.00    +0.000 C 
ATOM      9  C   UNL     1       2.766   7.780  18.002  0.00  0.00    +0.000 C 
ATOM     10  N   UNL     1       2.113   7.433  19.274  0.00  0.00    +0.000 N 
ATOM     11  C   UNL     1       2.282   6.025  19.691  0.00  0.00    +0.000 C 
ATOM     12  C   UNL     1       3.768   5.592  19.640  0.00  0.00    +0.000 C 
ATOM     13  H   UNL     1       7.276   4.854  13.893  0.00  0.00    +0.000 HD
ATOM     14  H   UNL     1       8.545   4.251  15.450  0.00  0.00    +0.000 HD
ATOM     15  H   UNL     1       8.226   4.867  16.963  0.00  0.00    +0.000 HD
ATOM     16  H   UNL     1       4.963   5.725  16.105  0.00  0.00    +0.000 HD
ATOM     17  H   UNL     1       6.961   4.101  18.241  0.00  0.00    +0.000 HD
ENDROOT
BRANCH  10  18
ATOM     18  C   UNL     1       1.417   8.378  19.998  0.00  0.00    +0.000 A 
ATOM     19  C   UNL     1       1.004   9.591  19.416  0.00  0.00    +0.000 A 
ATOM     20  C   UNL     1       0.365  10.594  20.152  0.00  0.00    +0.000 A 
ATOM     21  C   UNL     1       0.102  10.401  21.501  0.00  0.00    +0.000 A 
ATOM     22  C   UNL     1       0.470   9.203  22.102  0.00  0.00    +0.000 A 
ATOM     23  C   UNL     1       1.115   8.207  21.357  0.00  0.00    +0.000 A 
ENDBRANCH  10  18
TORSDOF 1
ENDMDL
MODEL 9
REMARK VINA RESULT:      -6.5      5.959      7.400
REMARK  Name = 
REMARK  1 active torsions:
REMARK  status: ('A' for Active; 'I' for Inactive)
REMARK    1  A    between atoms: N_10  and  C_11
REMARK                            x       y       z     vdW  Elec       q    Type
REMARK                         _______ _______ _______ _____ _____    ______ ____
ROOT
ATOM      1  N   UNL     1       2.918  13.506  17.665  0.00  0.00    +0.000 NA
ATOM      2  C   UNL     1       1.862  13.120  18.301  0.00  0.00    +0.000 C 
ATOM      3  N   UNL     1       0.829  13.954  18.548  0.00  0.00    +0.000 N 
ATOM      4  N   UNL     1       1.779  11.844  18.736  0.00  0.00    +0.000 N 
ATOM      5  C   UNL     1       0.955  11.061  19.490  0.00  0.00    +0.000 C 
ATOM      6  N   UNL     1      -0.079  11.479  20.139  0.00  0.00    +0.000 NA
ATOM      7  N   UNL     1       1.364   9.747  19.541  0.00  0.00    +0.000 N 
ATOM      8  C   UNL     1       1.544   8.990  18.283  0.00  0.00    +0.000 C 
ATOM      9  C   UNL     1       2.518   7.818  18.492  0.00  0.00    +0.000 C 
ATOM     10  N   UNL     1       2.032   6.943  19.570  0.00  0.00    +0.000 N 
ATOM     11  C   UNL     1       1.727   7.637  20.839  0.00  0.00    +0.000 C 
ATOM     12  C   UNL     1       0.818   8.869  20.609  0.00  0.00    +0.000 C 
ATOM     13  H   UNL     1       2.837  14.491  17.416  0.00  0.00    +0.000 HD
ATOM     14  H   UNL     1       0.888  14.858  18.098  0.00  0.00    +0.000 HD
ATOM     15  H   UNL     1      -0.079  13.529  18.363  0.00  0.00    +0.000 HD
ATOM     16  H   UNL     1       2.648  11.372  18.529  0.00  0.00    +0.000 HD
ATOM     17  H   UNL     1      -0.130  12.493  20.019  0.00  0.00    +0.000 HD
ENDROOT
BRANCH  10  18
ATOM     18  C   UNL     1       1.875   5.588  19.370  0.00  0.00    +0.000 A 
ATOM     19  C   UNL     1       2.103   5.000  18.113  0.00  0.00    +0.000 A 
ATOM     20  C   UNL     1       1.876   3.642  17.869  0.00  0.00    +0.000 A 
ATOM     21  C   UNL     1       1.426   2.821  18.895  0.00  0.00    +0.000 A 
ATOM     22  C   UNL     1       1.217   3.363  20.158  0.00  0.00    +0.000 A 
ATOM     23  C   UNL     1       1.443   4.726  20.389  0.00  0.00    +0.000 A 
ENDBRANCH  10  18
TORSDOF 1
ENDMDL
