MODEL 1
REMARK VINA RESULT:      -6.7      0.000      0.000
REMARK  Name = 
REMARK  11 active torsions:
REMARK  status: ('A' for Active; 'I' for Inactive)
REMARK    1  A    between atoms: C_1  and  C_2
REMARK    2  A    between atoms: C_2  and  C_3
REMARK    3  A    between atoms: C_2  and  O_4
REMARK    4  A    between atoms: O_4  and  C_5
REMARK    5  A    between atoms: N_7  and  C_8
REMARK    6  A    between atoms: C_11  and  C_12
REMARK    7  A    between atoms: C_15  and  N_16
REMARK    8  A    between atoms: C_17  and  O_19
REMARK    9  A    between atoms: O_19  and  C_20
REMARK   10  A    between atoms: C_20  and  C_21
REMARK   11  A    between atoms: C_20  and  C_22
REMARK                            x       y       z     vdW  Elec       q    Type
REMARK                         _______ _______ _______ _____ _____    ______ ____
ROOT
ATOM      1  C   UNL     1       2.555   7.156  19.014  0.00  0.00    +0.000 A 
ATOM      2  C   UNL     1       2.440   8.026  17.936  0.00  0.00    +0.000 A 
ATOM      3  C   UNL     1       1.775   9.247  18.054  0.00  0.00    +0.000 A 
ATOM      4  C   UNL     1       1.096   9.628  19.221  0.00  0.00    +0.000 A 
ATOM      5  C   UNL     1       1.154   8.695  20.289  0.00  0.00    +0.000 A 
ATOM      6 CL   UNL     1       0.316   8.920  21.794  0.00  0.00    +0.000 Cl
ATOM      7  C   UNL     1       1.891   7.490  20.192  0.00  0.00    +0.000 A 
ENDROOT
BRANCH   4   8
ATOM      8  C   UNL     1       0.465  10.987  19.274  0.00  0.00    +0.000 A 
ATOM      9  C   UNL     1       1.069  11.989  20.048  0.00  0.00    +0.000 A 
ATOM     10  C   UNL     1       0.569  13.294  20.115  0.00  0.00    +0.000 A 
ATOM     11  C   UNL     1      -0.517  13.694  19.346  0.00  0.00    +0.000 A 
ATOM     12  C   UNL     1      -1.119  12.741  18.528  0.00  0.00    +0.000 A 
ATOM     13  C   UNL     1      -0.666  11.402  18.522  0.00  0.00    +0.000 A 
ATOM     14 CL   UNL     1      -1.628  10.312  17.568  0.00  0.00    +0.000 Cl
BRANCH  11  15
ATOM     15  N   UNL     1      -1.019  15.014  19.356  0.00  0.00    +0.000 N 
ATOM     16  C   UNL     1      -0.375  16.122  18.860  0.00  0.00    +0.000 C 
ATOM     17  O   UNL     1       0.748  16.163  18.379  0.00  0.00    +0.000 OA
ATOM     18  H   UNL     1      -1.920  15.196  19.778  0.00  0.00    +0.000 HD
BRANCH  16  19
ATOM     19  O   UNL     1      -1.167  17.227  18.979  0.00  0.00    +0.000 OA
BRANCH  19  20
ATOM     20  C   UNL     1      -1.586  17.481  20.338  0.00  0.00    +0.000 C 
ATOM     21  C   UNL     1      -0.587  18.409  21.027  0.00  0.00    +0.000 C 
ATOM     22  C   UNL     1      -2.976  18.098  20.322  0.00  0.00    +0.000 C 
ENDBRANCH  19  20
ENDBRANCH  16  19
ENDBRANCH  11  15
ENDBRANCH   4   8
BRANCH   1  25
ATOM     23  C   UNL     1       2.938   4.809  18.336  0.00  0.00    +0.000 C 
ATOM     24  O   UNL     1       1.882   4.612  17.746  0.00  0.00    +0.000 OA
ATOM     25  N   UNL     1       3.326   5.974  18.949  0.00  0.00    +0.000 N 
ATOM     26  H   UNL     1       4.282   5.992  19.278  0.00  0.00    +0.000 HD
BRANCH  23  27
ATOM     27  O   UNL     1       3.926   3.874  18.413  0.00  0.00    +0.000 OA
BRANCH  27  29
ATOM     28  C   UNL     1       3.579   1.504  18.050  0.00  0.00    +0.000 C 
ATOM     29  C   UNL     1       3.499   2.652  19.053  0.00  0.00    +0.000 C 
ATOM     30  C   UNL     1       4.386   2.383  20.259  0.00  0.00    +0.000 C 
ENDBRANCH  27  29
ENDBRANCH  23  27
ENDBRANCH   1  25
TORSDOF 7
ENDMDL
MODEL 2
REMARK VINA RESULT:      -6.6      2.881     10.358
REMARK  Name = 
REMARK  11 active torsions:
REMARK  status: ('A' for Active; 'I' for Inactive)
REMARK    1  A    between atoms: C_1  and  C_2
REMARK    2  A    between atoms: C_2  and  C_3
REMARK    3  A    between atoms: C_2  and  O_4
REMARK    4  A    between atoms: O_4  and  C_5
REMARK    5  A    between atoms: N_7  and  C_8
REMARK    6  A    between atoms: C_11  and  C_12
REMARK    7  A    between atoms: C_15  and  N_16
REMARK    8  A    between atoms: C_17  and  O_19
REMARK    9  A    between atoms: O_19  and  C_20
REMARK   10  A    between atoms: C_20  and  C_21
REMARK   11  A    between atoms: C_20  and  C_22
REMARK                            x       y       z     vdW  Elec       q    Type
REMARK                         _______ _______ _______ _____ _____    ______ ____
ROOT
ATOM      1  C   UNL     1      -2.569  12.547  19.797  0.00  0.00    +0.000 A 
ATOM      2  C   UNL     1      -2.698  11.523  18.866  0.00  0.00    +0.000 A 
ATOM      3  C   UNL     1      -1.684  10.586  18.669  0.00  0.00    +0.000 A 
ATOM      4  C   UNL     1      -0.440  10.672  19.312  0.00  0.00    +0.000 A 
ATOM      5  C   UNL     1      -0.291  11.768  20.201  0.00  0.00    +0.000 A 
ATOM      6 CL   UNL     1       1.190  12.119  21.038  0.00  0.00    +0.000 Cl
ATOM      7  C   UNL     1      -1.348  12.675  20.455  0.00  0.00    +0.000 A 
ENDROOT
BRANCH   4   8
ATOM      8  C   UNL     1       0.564   9.582  19.085  0.00  0.00    +0.000 A 
ATOM      9  C   UNL     1       1.225   9.511  17.850  0.00  0.00    +0.000 A 
ATOM     10  C   UNL     1       2.206   8.553  17.574  0.00  0.00    +0.000 A 
ATOM     11  C   UNL     1       2.643   7.663  18.547  0.00  0.00    +0.000 A 
ATOM     12  C   UNL     1       2.044   7.728  19.803  0.00  0.00    +0.000 A 
ATOM     13  C   UNL     1       0.995   8.641  20.057  0.00  0.00    +0.000 A 
ATOM     14 CL   UNL     1       0.256   8.481  21.623  0.00  0.00    +0.000 Cl
BRANCH  11  15
ATOM     15  N   UNL     1       3.663   6.713  18.315  0.00  0.00    +0.000 N 
ATOM     16  C   UNL     1       3.475   5.414  17.909  0.00  0.00    +0.000 C 
ATOM     17  O   UNL     1       2.405   4.851  17.728  0.00  0.00    +0.000 OA
ATOM     18  H   UNL     1       4.627   6.976  18.475  0.00  0.00    +0.000 HD
BRANCH  16  19
ATOM     19  O   UNL     1       4.676   4.793  17.726  0.00  0.00    +0.000 OA
BRANCH  19  20
ATOM     20  C   UNL     1       5.557   5.512  16.835  0.00  0.00    +0.000 C 
ATOM     21  C   UNL     1       6.976   5.522  17.401  0.00  0.00    +0.000 C 
ATOM     22  C   UNL     1       5.524   4.850  15.466  0.00  0.00    +0.000 C 
ENDBRANCH  19  20
ENDBRANCH  16  19
ENDBRANCH  11  15
ENDBRANCH   4   8
BRANCH   1  25
ATOM     23  C   UNL     1      -4.510  13.282  21.139  0.00  0.00    +0.000 C 
ATOM     24  O   UNL     1      -4.514  12.381  21.969  0.00  0.00    +0.000 OA
ATOM     25  N   UNL     1      -3.629  13.431  20.097  0.00  0.00    +0.000 N 
ATOM     26  H   UNL     1      -3.703  14.302  19.590  0.00  0.00    +0.000 HD
BRANCH  23  27
ATOM     27  O   UNL     1      -5.384  14.326  21.180  0.00  0.00    +0.000 OA
BRANCH  27  29
ATOM     28  C   UNL     1      -4.968  16.670  21.632  0.00  0.00    +0.000 C 
ATOM     29  C   UNL     1      -5.088  15.271  22.231  0.00  0.00    +0.000 C 
ATOM     30  C   UNL     1      -6.192  15.220  23.276  0.00  0.00    +0.000 C 
ENDBRANCH  27  29
ENDBRANCH  23  27
ENDBRANCH   1  25
TORSDOF 7
ENDMDL
MODEL 3
REMARK VINA RESULT:      -6.6      1.163      1.544
REMARK  Name = 
REMARK  11 active torsions:
REMARK  status: ('A' for Active; 'I' for Inactive)
REMARK    1  A    between atoms: C_1  and  C_2
REMARK    2  A    between atoms: C_2  and  C_3
REMARK    3  A    between atoms: C_2  and  O_4
REMARK    4  A    between atoms: O_4  and  C_5
REMARK    5  A    between atoms: N_7  and  C_8
REMARK    6  A    between atoms: C_11  and  C_12
REMARK    7  A    between atoms: C_15  and  N_16
REMARK    8  A    between atoms: C_17  and  O_19
REMARK    9  A    between atoms: O_19  and  C_20
REMARK   10  A    between atoms: C_20  and  C_21
REMARK   11  A    between atoms: C_20  and  C_22
REMARK                            x       y       z     vdW  Elec       q    Type
REMARK                         _______ _______ _______ _____ _____    ______ ____
ROOT
ATOM      1  C   UNL     1       2.636   7.147  19.082  0.00  0.00    +0.000 A 
ATOM      2  C   UNL     1       2.680   7.978  17.969  0.00  0.00    +0.000 A 
ATOM      3  C   UNL     1       2.087   9.240  17.978  0.00  0.00    +0.000 A 
ATOM      4  C   UNL     1       1.326   9.710  19.059  0.00  0.00    +0.000 A 
ATOM      5  C   UNL     1       1.222   8.818  20.159  0.00  0.00    +0.000 A 
ATOM      6 CL   UNL     1       0.260   9.155  21.567  0.00  0.00    +0.000 Cl
ATOM      7  C   UNL     1       1.887   7.569  20.177  0.00  0.00    +0.000 A 
ENDROOT
BRANCH   4   8
ATOM      8  C   UNL     1       0.781  11.104  19.003  0.00  0.00    +0.000 A 
ATOM      9  C   UNL     1       1.615  12.176  19.355  0.00  0.00    +0.000 A 
ATOM     10  C   UNL     1       1.198  13.510  19.287  0.00  0.00    +0.000 A 
ATOM     11  C   UNL     1      -0.051  13.854  18.783  0.00  0.00    +0.000 A 
ATOM     12  C   UNL     1      -0.895  12.821  18.380  0.00  0.00    +0.000 A 
ATOM     13  C   UNL     1      -0.505  11.470  18.525  0.00  0.00    +0.000 A 
ATOM     14 CL   UNL     1      -1.737  10.311  18.122  0.00  0.00    +0.000 Cl
BRANCH  11  15
ATOM     15  N   UNL     1      -0.486  15.191  18.659  0.00  0.00    +0.000 N 
ATOM     16  C   UNL     1      -1.000  15.967  19.670  0.00  0.00    +0.000 C 
ATOM     17  O   UNL     1      -1.213  15.621  20.823  0.00  0.00    +0.000 OA
ATOM     18  H   UNL     1      -0.449  15.640  17.753  0.00  0.00    +0.000 HD
BRANCH  16  19
ATOM     19  O   UNL     1      -1.266  17.227  19.218  0.00  0.00    +0.000 OA
BRANCH  19  20
ATOM     20  C   UNL     1      -0.371  17.651  18.166  0.00  0.00    +0.000 C 
ATOM     21  C   UNL     1      -1.094  18.610  17.222  0.00  0.00    +0.000 C 
ATOM     22  C   UNL     1       0.845  18.318  18.789  0.00  0.00    +0.000 C 
ENDBRANCH  19  20
ENDBRANCH  16  19
ENDBRANCH  11  15
ENDBRANCH   4   8
BRANCH   1  25
ATOM     23  C   UNL     1       2.915   4.748  18.552  0.00  0.00    +0.000 C 
ATOM     24  O   UNL     1       1.894   4.583  17.896  0.00  0.00    +0.000 OA
ATOM     25  N   UNL     1       3.333   5.919  19.134  0.00  0.00    +0.000 N 
ATOM     26  H   UNL     1       4.263   5.897  19.531  0.00  0.00    +0.000 HD
BRANCH  23  27
ATOM     27  O   UNL     1       3.833   3.761  18.750  0.00  0.00    +0.000 OA
BRANCH  27  29
ATOM     28  C   UNL     1       2.432   3.222  20.651  0.00  0.00    +0.000 C 
ATOM     29  C   UNL     1       3.858   3.275  20.109  0.00  0.00    +0.000 C 
ATOM     30  C   UNL     1       4.502   1.897  20.136  0.00  0.00    +0.000 C 
ENDBRANCH  27  29
ENDBRANCH  23  27
ENDBRANCH   1  25
TORSDOF 7
ENDMDL
MODEL 4
REMARK VINA RESULT:      -6.4      1.259      1.528
REMARK  Name = 
REMARK  11 active torsions:
REMARK  status: ('A' for Active; 'I' for Inactive)
REMARK    1  A    between atoms: C_1  and  C_2
REMARK    2  A    between atoms: C_2  and  C_3
REMARK    3  A    between atoms: C_2  and  O_4
REMARK    4  A    between atoms: O_4  and  C_5
REMARK    5  A    between atoms: N_7  and  C_8
REMARK    6  A    between atoms: C_11  and  C_12
REMARK    7  A    between atoms: C_15  and  N_16
REMARK    8  A    between atoms: C_17  and  O_19
REMARK    9  A    between atoms: O_19  and  C_20
REMARK   10  A    between atoms: C_20  and  C_21
REMARK   11  A    between atoms: C_20  and  C_22
REMARK                            x       y       z     vdW  Elec       q    Type
REMARK                         _______ _______ _______ _____ _____    ______ ____
ROOT
ATOM      1  C   UNL     1       2.229   7.340  19.396  0.00  0.00    +0.000 A 
ATOM      2  C   UNL     1       2.310   8.106  18.239  0.00  0.00    +0.000 A 
ATOM      3  C   UNL     1       1.865   9.428  18.208  0.00  0.00    +0.000 A 
ATOM      4  C   UNL     1       1.219  10.034  19.297  0.00  0.00    +0.000 A 
ATOM      5  C   UNL     1       1.071   9.214  20.446  0.00  0.00    +0.000 A 
ATOM      6 CL   UNL     1       0.229   9.727  21.877  0.00  0.00    +0.000 Cl
ATOM      7  C   UNL     1       1.590   7.898  20.500  0.00  0.00    +0.000 A 
ENDROOT
BRANCH   4   8
ATOM      8  C   UNL     1       0.834  11.478  19.191  0.00  0.00    +0.000 A 
ATOM      9  C   UNL     1       1.717  12.456  19.674  0.00  0.00    +0.000 A 
ATOM     10  C   UNL     1       1.453  13.826  19.573  0.00  0.00    +0.000 A 
ATOM     11  C   UNL     1       0.328  14.300  18.908  0.00  0.00    +0.000 A 
ATOM     12  C   UNL     1      -0.553  13.363  18.374  0.00  0.00    +0.000 A 
ATOM     13  C   UNL     1      -0.329  11.978  18.547  0.00  0.00    +0.000 A 
ATOM     14 CL   UNL     1      -1.605  10.955  17.957  0.00  0.00    +0.000 Cl
BRANCH  11  15
ATOM     15  N   UNL     1       0.055  15.676  18.749  0.00  0.00    +0.000 N 
ATOM     16  C   UNL     1       0.689  16.703  19.406  0.00  0.00    +0.000 C 
ATOM     17  O   UNL     1       1.552  16.600  20.266  0.00  0.00    +0.000 OA
ATOM     18  H   UNL     1      -0.683  15.964  18.118  0.00  0.00    +0.000 HD
BRANCH  16  19
ATOM     19  O   UNL     1       0.219  17.909  18.974  0.00  0.00    +0.000 OA
BRANCH  19  20
ATOM     20  C   UNL     1      -0.751  17.790  17.909  0.00  0.00    +0.000 C 
ATOM     21  C   UNL     1      -2.059  18.464  18.318  0.00  0.00    +0.000 C 
ATOM     22  C   UNL     1      -0.183  18.427  16.649  0.00  0.00    +0.000 C 
ENDBRANCH  19  20
ENDBRANCH  16  19
ENDBRANCH  11  15
ENDBRANCH   4   8
BRANCH   1  25
ATOM     23  C   UNL     1       2.509   5.008  18.624  0.00  0.00    +0.000 C 
ATOM     24  O   UNL     1       1.759   5.042  17.656  0.00  0.00    +0.000 OA
ATOM     25  N   UNL     1       2.784   6.044  19.482  0.00  0.00    +0.000 N 
ATOM     26  H   UNL     1       3.522   5.868  20.150  0.00  0.00    +0.000 HD
BRANCH  23  27
ATOM     27  O   UNL     1       3.239   3.906  18.953  0.00  0.00    +0.000 OA
BRANCH  27  29
ATOM     28  C   UNL     1       3.428   1.541  18.463  0.00  0.00    +0.000 C 
ATOM     29  C   UNL     1       2.486   2.678  18.852  0.00  0.00    +0.000 C 
ATOM     30  C   UNL     1       1.811   2.394  20.185  0.00  0.00    +0.000 C 
ENDBRANCH  27  29
ENDBRANCH  23  27
ENDBRANCH   1  25
TORSDOF 7
ENDMDL
MODEL 5
REMARK VINA RESULT:      -6.4      3.264     10.434
REMARK  Name = 
REMARK  11 active torsions:
REMARK  status: ('A' for Active; 'I' for Inactive)
REMARK    1  A    between atoms: C_1  and  C_2
REMARK    2  A    between atoms: C_2  and  C_3
REMARK    3  A    between atoms: C_2  and  O_4
REMARK    4  A    between atoms: O_4  and  C_5
REMARK    5  A    between atoms: N_7  and  C_8
REMARK    6  A    between atoms: C_11  and  C_12
REMARK    7  A    between atoms: C_15  and  N_16
REMARK    8  A    between atoms: C_17  and  O_19
REMARK    9  A    between atoms: O_19  and  C_20
REMARK   10  A    between atoms: C_20  and  C_21
REMARK   11  A    between atoms: C_20  and  C_22
REMARK                            x       y       z     vdW  Elec       q    Type
REMARK                         _______ _______ _______ _____ _____    ______ ____
ROOT
ATOM      1  C   UNL     1      -1.244  12.059  21.380  0.00  0.00    +0.000 A 
ATOM      2  C   UNL     1      -0.271  11.397  22.118  0.00  0.00    +0.000 A 
ATOM      3  C   UNL     1       0.517  10.395  21.552  0.00  0.00    +0.000 A 
ATOM      4  C   UNL     1       0.315   9.921  20.247  0.00  0.00    +0.000 A 
ATOM      5  C   UNL     1      -0.735  10.551  19.529  0.00  0.00    +0.000 A 
ATOM      6 CL   UNL     1      -1.217  10.067  17.931  0.00  0.00    +0.000 Cl
ATOM      7  C   UNL     1      -1.484  11.618  20.080  0.00  0.00    +0.000 A 
ENDROOT
BRANCH   4   8
ATOM      8  C   UNL     1       1.254   8.887  19.705  0.00  0.00    +0.000 A 
ATOM      9  C   UNL     1       1.304   7.624  20.315  0.00  0.00    +0.000 A 
ATOM     10  C   UNL     1       2.118   6.590  19.843  0.00  0.00    +0.000 A 
ATOM     11  C   UNL     1       2.870   6.732  18.682  0.00  0.00    +0.000 A 
ATOM     12  C   UNL     1       2.815   7.956  18.019  0.00  0.00    +0.000 A 
ATOM     13  C   UNL     1       2.056   9.028  18.541  0.00  0.00    +0.000 A 
ATOM     14 CL   UNL     1       2.225  10.527  17.677  0.00  0.00    +0.000 Cl
BRANCH  11  15
ATOM     15  N   UNL     1       3.668   5.694  18.153  0.00  0.00    +0.000 N 
ATOM     16  C   UNL     1       4.815   5.193  18.721  0.00  0.00    +0.000 C 
ATOM     17  O   UNL     1       5.361   5.589  19.740  0.00  0.00    +0.000 OA
ATOM     18  H   UNL     1       3.411   5.275  17.268  0.00  0.00    +0.000 HD
BRANCH  16  19
ATOM     19  O   UNL     1       5.302   4.158  17.977  0.00  0.00    +0.000 OA
BRANCH  19  20
ATOM     20  C   UNL     1       6.155   4.590  16.894  0.00  0.00    +0.000 C 
ATOM     21  C   UNL     1       7.620   4.492  17.312  0.00  0.00    +0.000 C 
ATOM     22  C   UNL     1       5.880   3.727  15.672  0.00  0.00    +0.000 C 
ENDBRANCH  19  20
ENDBRANCH  16  19
ENDBRANCH  11  15
ENDBRANCH   4   8
BRANCH   1  25
ATOM     23  C   UNL     1      -3.313  13.157  22.172  0.00  0.00    +0.000 C 
ATOM     24  O   UNL     1      -4.088  12.220  22.025  0.00  0.00    +0.000 OA
ATOM     25  N   UNL     1      -1.967  13.156  21.897  0.00  0.00    +0.000 N 
ATOM     26  H   UNL     1      -1.464  13.980  22.198  0.00  0.00    +0.000 HD
BRANCH  23  27
ATOM     27  O   UNL     1      -3.693  14.354  22.701  0.00  0.00    +0.000 OA
BRANCH  27  29
ATOM     28  C   UNL     1      -3.221  14.840  25.027  0.00  0.00    +0.000 C 
ATOM     29  C   UNL     1      -4.219  14.238  24.041  0.00  0.00    +0.000 C 
ATOM     30  C   UNL     1      -5.558  14.955  24.116  0.00  0.00    +0.000 C 
ENDBRANCH  27  29
ENDBRANCH  23  27
ENDBRANCH   1  25
TORSDOF 7
ENDMDL
MODEL 6
REMARK VINA RESULT:      -6.4      3.586      4.152
REMARK  Name = 
REMARK  11 active torsions:
REMARK  status: ('A' for Active; 'I' for Inactive)
REMARK    1  A    between atoms: C_1  and  C_2
REMARK    2  A    between atoms: C_2  and  C_3
REMARK    3  A    between atoms: C_2  and  O_4
REMARK    4  A    between atoms: O_4  and  C_5
REMARK    5  A    between atoms: N_7  and  C_8
REMARK    6  A    between atoms: C_11  and  C_12
REMARK    7  A    between atoms: C_15  and  N_16
REMARK    8  A    between atoms: C_17  and  O_19
REMARK    9  A    between atoms: O_19  and  C_20
REMARK   10  A    between atoms: C_20  and  C_21
REMARK   11  A    between atoms: C_20  and  C_22
REMARK                            x       y       z     vdW  Elec       q    Type
REMARK                         _______ _______ _______ _____ _____    ______ ____
ROOT
ATOM      1  C   UNL     1       3.783   6.912  17.497  0.00  0.00    +0.000 A 
ATOM      2  C   UNL     1       3.311   8.194  17.241  0.00  0.00    +0.000 A 
ATOM      3  C   UNL     1       2.426   8.831  18.111  0.00  0.00    +0.000 A 
ATOM      4  C   UNL     1       1.878   8.192  19.233  0.00  0.00    +0.000 A 
ATOM      5  C   UNL     1       2.307   6.855  19.440  0.00  0.00    +0.000 A 
ATOM      6 CL   UNL     1       1.694   5.846  20.715  0.00  0.00    +0.000 Cl
ATOM      7  C   UNL     1       3.262   6.236  18.598  0.00  0.00    +0.000 A 
ENDROOT
BRANCH   4   8
ATOM      8  C   UNL     1       0.985   8.979  20.144  0.00  0.00    +0.000 A 
ATOM      9  C   UNL     1       1.211   8.930  21.528  0.00  0.00    +0.000 A 
ATOM     10  C   UNL     1       0.452   9.670  22.442  0.00  0.00    +0.000 A 
ATOM     11  C   UNL     1      -0.522  10.565  22.018  0.00  0.00    +0.000 A 
ATOM     12  C   UNL     1      -0.747  10.679  20.648  0.00  0.00    +0.000 A 
ATOM     13  C   UNL     1      -0.038   9.871  19.729  0.00  0.00    +0.000 A 
ATOM     14 CL   UNL     1      -0.554  10.026  18.076  0.00  0.00    +0.000 Cl
BRANCH  11  15
ATOM     15  N   UNL     1      -1.275  11.360  22.911  0.00  0.00    +0.000 N 
ATOM     16  C   UNL     1      -1.211  12.728  23.018  0.00  0.00    +0.000 C 
ATOM     17  O   UNL     1      -0.466  13.478  22.403  0.00  0.00    +0.000 OA
ATOM     18  H   UNL     1      -1.910  10.910  23.557  0.00  0.00    +0.000 HD
BRANCH  16  19
ATOM     19  O   UNL     1      -2.112  13.177  23.939  0.00  0.00    +0.000 OA
BRANCH  19  20
ATOM     20  C   UNL     1      -3.483  13.032  23.507  0.00  0.00    +0.000 C 
ATOM     21  C   UNL     1      -4.316  12.399  24.620  0.00  0.00    +0.000 C 
ATOM     22  C   UNL     1      -4.032  14.399  23.130  0.00  0.00    +0.000 C 
ENDBRANCH  19  20
ENDBRANCH  16  19
ENDBRANCH  11  15
ENDBRANCH   4   8
BRANCH   1  25
ATOM     23  C   UNL     1       6.088   6.681  16.633  0.00  0.00    +0.000 C 
ATOM     24  O   UNL     1       6.613   7.594  17.259  0.00  0.00    +0.000 OA
ATOM     25  N   UNL     1       4.771   6.298  16.695  0.00  0.00    +0.000 N 
ATOM     26  H   UNL     1       4.545   5.445  16.202  0.00  0.00    +0.000 HD
BRANCH  23  27
ATOM     27  O   UNL     1       6.787   5.860  15.800  0.00  0.00    +0.000 OA
BRANCH  27  29
ATOM     28  C   UNL     1       7.349   4.693  17.848  0.00  0.00    +0.000 C 
ATOM     29  C   UNL     1       7.022   4.551  16.363  0.00  0.00    +0.000 C 
ATOM     30  C   UNL     1       5.785   3.690  16.159  0.00  0.00    +0.000 C 
ENDBRANCH  27  29
ENDBRANCH  23  27
ENDBRANCH   1  25
TORSDOF 7
ENDMDL
MODEL 7
REMARK VINA RESULT:      -6.4      3.092     10.429
REMARK  Name = 
REMARK  11 active torsions:
REMARK  status: ('A' for Active; 'I' for Inactive)
REMARK    1  A    between atoms: C_1  and  C_2
REMARK    2  A    between atoms: C_2  and  C_3
REMARK    3  A    between atoms: C_2  and  O_4
REMARK    4  A    between atoms: O_4  and  C_5
REMARK    5  A    between atoms: N_7  and  C_8
REMARK    6  A    between atoms: C_11  and  C_12
REMARK    7  A    between atoms: C_15  and  N_16
REMARK    8  A    between atoms: C_17  and  O_19
REMARK    9  A    between atoms: O_19  and  C_20
REMARK   10  A    between atoms: C_20  and  C_21
REMARK   11  A    between atoms: C_20  and  C_22
REMARK                            x       y       z     vdW  Elec       q    Type
REMARK                         _______ _______ _______ _____ _____    ______ ____
ROOT
ATOM      1  C   UNL     1      -0.431  10.787  21.720  0.00  0.00    +0.000 A 
ATOM      2  C   UNL     1       0.433   9.857  22.285  0.00  0.00    +0.000 A 
ATOM      3  C   UNL     1       1.177   8.980  21.497  0.00  0.00    +0.000 A 
ATOM      4  C   UNL     1       1.028   8.905  20.103  0.00  0.00    +0.000 A 
ATOM      5  C   UNL     1       0.083   9.805  19.545  0.00  0.00    +0.000 A 
ATOM      6 CL   UNL     1      -0.324   9.828  17.856  0.00  0.00    +0.000 Cl
ATOM      7  C   UNL     1      -0.615  10.746  20.339  0.00  0.00    +0.000 A 
ENDROOT
BRANCH   4   8
ATOM      8  C   UNL     1       1.917   7.975  19.334  0.00  0.00    +0.000 A 
ATOM      9  C   UNL     1       2.587   8.457  18.200  0.00  0.00    +0.000 A 
ATOM     10  C   UNL     1       3.469   7.667  17.454  0.00  0.00    +0.000 A 
ATOM     11  C   UNL     1       3.795   6.375  17.848  0.00  0.00    +0.000 A 
ATOM     12  C   UNL     1       3.186   5.873  18.996  0.00  0.00    +0.000 A 
ATOM     13  C   UNL     1       2.233   6.641  19.703  0.00  0.00    +0.000 A 
ATOM     14 CL   UNL     1       1.455   5.805  21.015  0.00  0.00    +0.000 Cl
BRANCH  11  15
ATOM     15  N   UNL     1       4.715   5.568  17.143  0.00  0.00    +0.000 N 
ATOM     16  C   UNL     1       4.477   4.296  16.679  0.00  0.00    +0.000 C 
ATOM     17  O   UNL     1       3.460   3.637  16.838  0.00  0.00    +0.000 OA
ATOM     18  H   UNL     1       5.648   5.919  16.968  0.00  0.00    +0.000 HD
BRANCH  16  19
ATOM     19  O   UNL     1       5.561   3.828  15.993  0.00  0.00    +0.000 OA
BRANCH  19  20
ATOM     20  C   UNL     1       5.881   4.622  14.829  0.00  0.00    +0.000 C 
ATOM     21  C   UNL     1       7.360   5.002  14.848  0.00  0.00    +0.000 C 
ATOM     22  C   UNL     1       5.541   3.827  13.578  0.00  0.00    +0.000 C 
ENDBRANCH  19  20
ENDBRANCH  16  19
ENDBRANCH  11  15
ENDBRANCH   4   8
BRANCH   1  25
ATOM     23  C   UNL     1      -0.646  13.040  22.715  0.00  0.00    +0.000 C 
ATOM     24  O   UNL     1       0.387  13.534  22.280  0.00  0.00    +0.000 OA
ATOM     25  N   UNL     1      -1.099  11.763  22.492  0.00  0.00    +0.000 N 
ATOM     26  H   UNL     1      -2.033  11.571  22.829  0.00  0.00    +0.000 HD
BRANCH  23  27
ATOM     27  O   UNL     1      -1.543  13.743  23.463  0.00  0.00    +0.000 OA
BRANCH  27  29
ATOM     28  C   UNL     1      -3.170  14.850  22.051  0.00  0.00    +0.000 C 
ATOM     29  C   UNL     1      -1.896  15.014  22.875  0.00  0.00    +0.000 C 
ATOM     30  C   UNL     1      -2.091  16.039  23.981  0.00  0.00    +0.000 C 
ENDBRANCH  27  29
ENDBRANCH  23  27
ENDBRANCH   1  25
TORSDOF 7
ENDMDL
MODEL 8
REMARK VINA RESULT:      -6.4      4.568     10.553
REMARK  Name = 
REMARK  11 active torsions:
REMARK  status: ('A' for Active; 'I' for Inactive)
REMARK    1  A    between atoms: C_1  and  C_2
REMARK    2  A    between atoms: C_2  and  C_3
REMARK    3  A    between atoms: C_2  and  O_4
REMARK    4  A    between atoms: O_4  and  C_5
REMARK    5  A    between atoms: N_7  and  C_8
REMARK    6  A    between atoms: C_11  and  C_12
REMARK    7  A    between atoms: C_15  and  N_16
REMARK    8  A    between atoms: C_17  and  O_19
REMARK    9  A    between atoms: O_19  and  C_20
REMARK   10  A    between atoms: C_20  and  C_21
REMARK   11  A    between atoms: C_20  and  C_22
REMARK                            x       y       z     vdW  Elec       q    Type
REMARK                         _______ _______ _______ _____ _____    ______ ____
ROOT
ATOM      1  C   UNL     1       0.785   8.258  20.849  0.00  0.00    +0.000 A 
ATOM      2  C   UNL     1       1.227   8.808  19.652  0.00  0.00    +0.000 A 
ATOM      3  C   UNL     1       1.988   8.068  18.747  0.00  0.00    +0.000 A 
ATOM      4  C   UNL     1       2.441   6.770  19.025  0.00  0.00    +0.000 A 
ATOM      5  C   UNL     1       2.050   6.248  20.285  0.00  0.00    +0.000 A 
ATOM      6 CL   UNL     1       2.567   4.697  20.874  0.00  0.00    +0.000 Cl
ATOM      7  C   UNL     1       1.215   6.973  21.170  0.00  0.00    +0.000 A 
ENDROOT
BRANCH   4   8
ATOM      8  C   UNL     1       3.199   6.030  17.964  0.00  0.00    +0.000 A 
ATOM      9  C   UNL     1       4.383   6.588  17.459  0.00  0.00    +0.000 A 
ATOM     10  C   UNL     1       5.173   5.942  16.502  0.00  0.00    +0.000 A 
ATOM     11  C   UNL     1       4.867   4.662  16.056  0.00  0.00    +0.000 A 
ATOM     12  C   UNL     1       3.723   4.052  16.566  0.00  0.00    +0.000 A 
ATOM     13  C   UNL     1       2.881   4.738  17.471  0.00  0.00    +0.000 A 
ATOM     14 CL   UNL     1       1.417   3.894  17.883  0.00  0.00    +0.000 Cl
BRANCH  11  15
ATOM     15  N   UNL     1       5.667   3.963  15.124  0.00  0.00    +0.000 N 
ATOM     16  C   UNL     1       6.456   4.533  14.155  0.00  0.00    +0.000 C 
ATOM     17  O   UNL     1       6.562   5.725  13.904  0.00  0.00    +0.000 OA
ATOM     18  H   UNL     1       5.662   2.951  15.131  0.00  0.00    +0.000 HD
BRANCH  16  19
ATOM     19  O   UNL     1       7.137   3.571  13.467  0.00  0.00    +0.000 OA
BRANCH  19  20
ATOM     20  C   UNL     1       6.719   3.457  12.089  0.00  0.00    +0.000 C 
ATOM     21  C   UNL     1       7.422   2.273  11.427  0.00  0.00    +0.000 C 
ATOM     22  C   UNL     1       5.208   3.285  12.043  0.00  0.00    +0.000 C 
ENDBRANCH  19  20
ENDBRANCH  16  19
ENDBRANCH  11  15
ENDBRANCH   4   8
BRANCH   1  25
ATOM     23  C   UNL     1       0.296   9.607  22.862  0.00  0.00    +0.000 C 
ATOM     24  O   UNL     1       1.437   9.709  23.298  0.00  0.00    +0.000 OA
ATOM     25  N   UNL     1      -0.086   8.949  21.720  0.00  0.00    +0.000 N 
ATOM     26  H   UNL     1      -1.053   9.075  21.451  0.00  0.00    +0.000 HD
BRANCH  23  27
ATOM     27  O   UNL     1      -0.776  10.206  23.452  0.00  0.00    +0.000 OA
BRANCH  27  29
ATOM     28  C   UNL     1      -0.767  11.598  21.469  0.00  0.00    +0.000 C 
ATOM     29  C   UNL     1      -1.005  11.550  22.976  0.00  0.00    +0.000 C 
ATOM     30  C   UNL     1      -2.427  11.966  23.317  0.00  0.00    +0.000 C 
ENDBRANCH  27  29
ENDBRANCH  23  27
ENDBRANCH   1  25
TORSDOF 7
ENDMDL
MODEL 9
REMARK VINA RESULT:      -6.4      2.807     10.718
REMARK  Name = 
REMARK  11 active torsions:
REMARK  status: ('A' for Active; 'I' for Inactive)
REMARK    1  A    between atoms: C_1  and  C_2
REMARK    2  A    between atoms: C_2  and  C_3
REMARK    3  A    between atoms: C_2  and  O_4
REMARK    4  A    between atoms: O_4  and  C_5
REMARK    5  A    between atoms: N_7  and  C_8
REMARK    6  A    between atoms: C_11  and  C_12
REMARK    7  A    between atoms: C_15  and  N_16
REMARK    8  A    between atoms: C_17  and  O_19
REMARK    9  A    between atoms: O_19  and  C_20
REMARK   10  A    between atoms: C_20  and  C_21
REMARK   11  A    between atoms: C_20  and  C_22
REMARK                            x       y       z     vdW  Elec       q    Type
REMARK                         _______ _______ _______ _____ _____    ______ ____
ROOT
ATOM      1  C   UNL     1      -1.173  12.294  21.306  0.00  0.00    +0.000 A 
ATOM      2  C   UNL     1      -0.301  11.624  22.156  0.00  0.00    +0.000 A 
ATOM      3  C   UNL     1       0.400  10.493  21.736  0.00  0.00    +0.000 A 
ATOM      4  C   UNL     1       0.198   9.902  20.479  0.00  0.00    +0.000 A 
ATOM      5  C   UNL     1      -0.754  10.550  19.650  0.00  0.00    +0.000 A 
ATOM      6 CL   UNL     1      -1.225   9.945  18.091  0.00  0.00    +0.000 Cl
ATOM      7  C   UNL     1      -1.409  11.740  20.050  0.00  0.00    +0.000 A 
ENDROOT
BRANCH   4   8
ATOM      8  C   UNL     1       1.045   8.727  20.093  0.00  0.00    +0.000 A 
ATOM      9  C   UNL     1       1.008   7.571  20.887  0.00  0.00    +0.000 A 
ATOM     10  C   UNL     1       1.732   6.416  20.572  0.00  0.00    +0.000 A 
ATOM     11  C   UNL     1       2.470   6.322  19.398  0.00  0.00    +0.000 A 
ATOM     12  C   UNL     1       2.497   7.433  18.557  0.00  0.00    +0.000 A 
ATOM     13  C   UNL     1       1.832   8.628  18.916  0.00  0.00    +0.000 A 
ATOM     14 CL   UNL     1       2.100   9.962  17.833  0.00  0.00    +0.000 Cl
BRANCH  11  15
ATOM     15  N   UNL     1       3.176   5.157  19.027  0.00  0.00    +0.000 N 
ATOM     16  C   UNL     1       4.524   4.947  19.192  0.00  0.00    +0.000 C 
ATOM     17  O   UNL     1       5.340   5.741  19.636  0.00  0.00    +0.000 OA
ATOM     18  H   UNL     1       2.677   4.399  18.577  0.00  0.00    +0.000 HD
BRANCH  16  19
ATOM     19  O   UNL     1       4.865   3.692  18.778  0.00  0.00    +0.000 OA
BRANCH  19  20
ATOM     20  C   UNL     1       3.953   2.673  19.243  0.00  0.00    +0.000 C 
ATOM     21  C   UNL     1       3.541   1.771  18.081  0.00  0.00    +0.000 C 
ATOM     22  C   UNL     1       4.629   1.867  20.342  0.00  0.00    +0.000 C 
ENDBRANCH  19  20
ENDBRANCH  16  19
ENDBRANCH  11  15
ENDBRANCH   4   8
BRANCH   1  25
ATOM     23  C   UNL     1      -2.941  13.612  22.423  0.00  0.00    +0.000 C 
ATOM     24  O   UNL     1      -3.588  12.688  22.900  0.00  0.00    +0.000 OA
ATOM     25  N   UNL     1      -1.797  13.507  21.671  0.00  0.00    +0.000 N 
ATOM     26  H   UNL     1      -1.332  14.381  21.468  0.00  0.00    +0.000 HD
BRANCH  23  27
ATOM     27  O   UNL     1      -3.257  14.920  22.634  0.00  0.00    +0.000 OA
BRANCH  27  29
ATOM     28  C   UNL     1      -3.906  15.983  24.713  0.00  0.00    +0.000 C 
ATOM     29  C   UNL     1      -4.356  15.095  23.555  0.00  0.00    +0.000 C 
ATOM     30  C   UNL     1      -5.532  15.716  22.818  0.00  0.00    +0.000 C 
ENDBRANCH  27  29
ENDBRANCH  23  27
ENDBRANCH   1  25
TORSDOF 7
ENDMDL
