MODEL 1
REMARK VINA RESULT:      -7.7      0.000      0.000
REMARK  Name = 
REMARK  4 active torsions:
REMARK  status: ('A' for Active; 'I' for Inactive)
REMARK    1  A    between atoms: C_1  and  C_2
REMARK    2  A    between atoms: C_2  and  C_3
REMARK    3  A    between atoms: C_10  and  N_11
REMARK    4  A    between atoms: N_23  and  C_24
REMARK                            x       y       z     vdW  Elec       q    Type
REMARK                         _______ _______ _______ _____ _____    ______ ____
ROOT
ATOM      1  C   UNL     1      -2.646  10.718  16.066  0.00  0.00    +0.000 C 
ATOM      2  C   UNL     1      -3.528  11.025  17.292  0.00  0.00    +0.000 C 
ATOM      3  C   UNL     1      -3.958   9.648  17.862  0.00  0.00    +0.000 C 
ATOM      4  N   UNL     1      -4.683  11.730  16.770  0.00  0.00    +0.000 N 
ATOM      5  C   UNL     1      -5.654  12.228  17.580  0.00  0.00    +0.000 C 
ATOM      6  O   UNL     1      -6.772  12.484  17.156  0.00  0.00    +0.000 OA
ATOM      7  C   UNL     1      -5.261  12.459  18.978  0.00  0.00    +0.000 A 
ATOM      8  C   UNL     1      -6.257  12.862  19.883  0.00  0.00    +0.000 A 
ATOM      9  C   UNL     1      -5.918  13.179  21.192  0.00  0.00    +0.000 A 
ATOM     10  C   UNL     1      -4.582  13.121  21.586  0.00  0.00    +0.000 A 
ATOM     11  C   UNL     1      -3.600  12.730  20.657  0.00  0.00    +0.000 A 
ATOM     12  C   UNL     1      -3.905  12.332  19.341  0.00  0.00    +0.000 A 
ATOM     13  N   UNL     1      -2.921  11.878  18.386  0.00  0.00    +0.000 N 
ATOM     14  H   UNL     1      -5.009  11.521  15.837  0.00  0.00    +0.000 HD
ENDROOT
BRANCH  10  15
ATOM     15  N   UNL     1      -4.213  13.409  22.908  0.00  0.00    +0.000 N 
ATOM     16  C   UNL     1      -4.733  12.817  24.085  0.00  0.00    +0.000 A 
ATOM     17  O   UNL     1      -5.618  11.967  24.196  0.00  0.00    +0.000 OA
ATOM     18  N   UNL     1      -4.057  13.408  25.162  0.00  0.00    +0.000 N 
ATOM     19  C   UNL     1      -3.116  14.309  24.667  0.00  0.00    +0.000 A 
ATOM     20  N   UNL     1      -2.247  15.008  25.398  0.00  0.00    +0.000 NA
ATOM     21  C   UNL     1      -1.379  15.743  24.660  0.00  0.00    +0.000 A 
ATOM     22  C   UNL     1      -1.367  15.793  23.260  0.00  0.00    +0.000 A 
ATOM     23  C   UNL     1      -2.305  15.053  22.542  0.00  0.00    +0.000 A 
ATOM     24  C   UNL     1      -3.202  14.307  23.275  0.00  0.00    +0.000 A 
ATOM     25  H   UNL     1      -4.204  13.215  26.134  0.00  0.00    +0.000 HD
ENDBRANCH  10  15
BRANCH  13  26
ATOM     26  C   UNL     1      -1.509  11.869  18.566  0.00  0.00    +0.000 A 
ATOM     27  C   UNL     1      -0.804  10.768  19.084  0.00  0.00    +0.000 A 
ATOM     28  C   UNL     1       0.564  10.836  19.393  0.00  0.00    +0.000 A 
ATOM     29  C   UNL     1       1.299  11.969  19.074  0.00  0.00    +0.000 A 
ATOM     30  C   UNL     1       0.651  13.050  18.498  0.00  0.00    +0.000 A 
ATOM     31  C   UNL     1      -0.736  13.014  18.305  0.00  0.00    +0.000 A 
ENDBRANCH  13  26
TORSDOF 2
ENDMDL
MODEL 2
REMARK VINA RESULT:      -7.6      2.616      6.802
REMARK  Name = 
REMARK  4 active torsions:
REMARK  status: ('A' for Active; 'I' for Inactive)
REMARK    1  A    between atoms: C_1  and  C_2
REMARK    2  A    between atoms: C_2  and  C_3
REMARK    3  A    between atoms: C_10  and  N_11
REMARK    4  A    between atoms: N_23  and  C_24
REMARK                            x       y       z     vdW  Elec       q    Type
REMARK                         _______ _______ _______ _____ _____    ______ ____
ROOT
ATOM      1  C   UNL     1      -7.251  14.074  23.477  0.00  0.00    +0.000 C 
ATOM      2  C   UNL     1      -5.773  13.638  23.481  0.00  0.00    +0.000 C 
ATOM      3  C   UNL     1      -5.721  12.315  24.287  0.00  0.00    +0.000 C 
ATOM      4  N   UNL     1      -5.065  14.684  24.196  0.00  0.00    +0.000 N 
ATOM      5  C   UNL     1      -3.713  14.676  24.337  0.00  0.00    +0.000 C 
ATOM      6  O   UNL     1      -3.158  15.320  25.217  0.00  0.00    +0.000 OA
ATOM      7  C   UNL     1      -2.974  13.872  23.353  0.00  0.00    +0.000 A 
ATOM      8  C   UNL     1      -1.586  13.737  23.523  0.00  0.00    +0.000 A 
ATOM      9  C   UNL     1      -0.832  13.063  22.571  0.00  0.00    +0.000 A 
ATOM     10  C   UNL     1      -1.462  12.552  21.437  0.00  0.00    +0.000 A 
ATOM     11  C   UNL     1      -2.851  12.714  21.280  0.00  0.00    +0.000 A 
ATOM     12  C   UNL     1      -3.665  13.328  22.252  0.00  0.00    +0.000 A 
ATOM     13  N   UNL     1      -5.099  13.460  22.137  0.00  0.00    +0.000 N 
ATOM     14  H   UNL     1      -5.541  15.191  24.929  0.00  0.00    +0.000 HD
ENDROOT
BRANCH  10  15
ATOM     15  N   UNL     1      -0.732  11.842  20.471  0.00  0.00    +0.000 N 
ATOM     16  C   UNL     1      -0.442  12.259  19.150  0.00  0.00    +0.000 A 
ATOM     17  O   UNL     1      -0.782  13.293  18.572  0.00  0.00    +0.000 OA
ATOM     18  N   UNL     1       0.318  11.235  18.566  0.00  0.00    +0.000 N 
ATOM     19  C   UNL     1       0.528  10.231  19.511  0.00  0.00    +0.000 A 
ATOM     20  N   UNL     1       1.261   9.132  19.330  0.00  0.00    +0.000 NA
ATOM     21  C   UNL     1       1.378   8.364  20.441  0.00  0.00    +0.000 A 
ATOM     22  C   UNL     1       0.794   8.662  21.680  0.00  0.00    +0.000 A 
ATOM     23  C   UNL     1       0.027   9.818  21.813  0.00  0.00    +0.000 A 
ATOM     24  C   UNL     1      -0.112  10.606  20.692  0.00  0.00    +0.000 A 
ATOM     25  H   UNL     1       0.673  11.217  17.629  0.00  0.00    +0.000 HD
ENDBRANCH  10  15
BRANCH  13  26
ATOM     26  C   UNL     1      -5.893  13.113  21.007  0.00  0.00    +0.000 A 
ATOM     27  C   UNL     1      -6.392  11.818  20.784  0.00  0.00    +0.000 A 
ATOM     28  C   UNL     1      -7.043  11.464  19.591  0.00  0.00    +0.000 A 
ATOM     29  C   UNL     1      -7.328  12.430  18.635  0.00  0.00    +0.000 A 
ATOM     30  C   UNL     1      -6.911  13.734  18.852  0.00  0.00    +0.000 A 
ATOM     31  C   UNL     1      -6.159  14.049  19.991  0.00  0.00    +0.000 A 
ENDBRANCH  13  26
TORSDOF 2
ENDMDL
MODEL 3
REMARK VINA RESULT:      -7.4      0.701      1.129
REMARK  Name = 
REMARK  4 active torsions:
REMARK  status: ('A' for Active; 'I' for Inactive)
REMARK    1  A    between atoms: C_1  and  C_2
REMARK    2  A    between atoms: C_2  and  C_3
REMARK    3  A    between atoms: C_10  and  N_11
REMARK    4  A    between atoms: N_23  and  C_24
REMARK                            x       y       z     vdW  Elec       q    Type
REMARK                         _______ _______ _______ _____ _____    ______ ____
ROOT
ATOM      1  C   UNL     1      -2.524  10.556  16.325  0.00  0.00    +0.000 C 
ATOM      2  C   UNL     1      -3.418  10.943  17.520  0.00  0.00    +0.000 C 
ATOM      3  C   UNL     1      -3.816   9.609  18.203  0.00  0.00    +0.000 C 
ATOM      4  N   UNL     1      -4.589  11.573  16.937  0.00  0.00    +0.000 N 
ATOM      5  C   UNL     1      -5.574  12.112  17.701  0.00  0.00    +0.000 C 
ATOM      6  O   UNL     1      -6.697  12.304  17.254  0.00  0.00    +0.000 OA
ATOM      7  C   UNL     1      -5.193  12.470  19.075  0.00  0.00    +0.000 A 
ATOM      8  C   UNL     1      -6.202  12.923  19.941  0.00  0.00    +0.000 A 
ATOM      9  C   UNL     1      -5.877  13.358  21.219  0.00  0.00    +0.000 A 
ATOM     10  C   UNL     1      -4.542  13.366  21.619  0.00  0.00    +0.000 A 
ATOM     11  C   UNL     1      -3.547  12.923  20.728  0.00  0.00    +0.000 A 
ATOM     12  C   UNL     1      -3.836  12.408  19.450  0.00  0.00    +0.000 A 
ATOM     13  N   UNL     1      -2.837  11.900  18.539  0.00  0.00    +0.000 N 
ATOM     14  H   UNL     1      -4.905  11.278  16.024  0.00  0.00    +0.000 HD
ENDROOT
BRANCH  10  15
ATOM     15  N   UNL     1      -4.185  13.773  22.914  0.00  0.00    +0.000 N 
ATOM     16  C   UNL     1      -4.241  12.995  24.095  0.00  0.00    +0.000 A 
ATOM     17  O   UNL     1      -4.632  11.835  24.240  0.00  0.00    +0.000 OA
ATOM     18  N   UNL     1      -3.778  13.814  25.135  0.00  0.00    +0.000 N 
ATOM     19  C   UNL     1      -3.405  15.049  24.607  0.00  0.00    +0.000 A 
ATOM     20  N   UNL     1      -2.861  16.057  25.291  0.00  0.00    +0.000 NA
ATOM     21  C   UNL     1      -2.508  17.114  24.519  0.00  0.00    +0.000 A 
ATOM     22  C   UNL     1      -2.687  17.181  23.131  0.00  0.00    +0.000 A 
ATOM     23  C   UNL     1      -3.273  16.106  22.465  0.00  0.00    +0.000 A 
ATOM     24  C   UNL     1      -3.648  15.026  23.234  0.00  0.00    +0.000 A 
ATOM     25  H   UNL     1      -3.705  13.564  26.103  0.00  0.00    +0.000 HD
ENDBRANCH  10  15
BRANCH  13  26
ATOM     26  C   UNL     1      -1.426  11.941  18.722  0.00  0.00    +0.000 A 
ATOM     27  C   UNL     1      -0.627  13.025  18.320  0.00  0.00    +0.000 A 
ATOM     28  C   UNL     1       0.776  12.978  18.372  0.00  0.00    +0.000 A 
ATOM     29  C   UNL     1       1.420  11.892  18.948  0.00  0.00    +0.000 A 
ATOM     30  C   UNL     1       0.660  10.833  19.420  0.00  0.00    +0.000 A 
ATOM     31  C   UNL     1      -0.731  10.839  19.253  0.00  0.00    +0.000 A 
ENDBRANCH  13  26
TORSDOF 2
ENDMDL
MODEL 4
REMARK VINA RESULT:      -7.2      6.586      9.144
REMARK  Name = 
REMARK  4 active torsions:
REMARK  status: ('A' for Active; 'I' for Inactive)
REMARK    1  A    between atoms: C_1  and  C_2
REMARK    2  A    between atoms: C_2  and  C_3
REMARK    3  A    between atoms: C_10  and  N_11
REMARK    4  A    between atoms: N_23  and  C_24
REMARK                            x       y       z     vdW  Elec       q    Type
REMARK                         _______ _______ _______ _____ _____    ______ ____
ROOT
ATOM      1  C   UNL     1       4.297   2.733  17.950  0.00  0.00    +0.000 C 
ATOM      2  C   UNL     1       3.815   4.166  17.648  0.00  0.00    +0.000 C 
ATOM      3  C   UNL     1       2.855   4.046  16.436  0.00  0.00    +0.000 C 
ATOM      4  N   UNL     1       5.008   4.901  17.268  0.00  0.00    +0.000 N 
ATOM      5  C   UNL     1       4.980   6.232  16.997  0.00  0.00    +0.000 C 
ATOM      6  O   UNL     1       5.861   6.769  16.339  0.00  0.00    +0.000 OA
ATOM      7  C   UNL     1       3.846   6.976  17.565  0.00  0.00    +0.000 A 
ATOM      8  C   UNL     1       3.708   8.330  17.219  0.00  0.00    +0.000 A 
ATOM      9  C   UNL     1       2.707   9.097  17.801  0.00  0.00    +0.000 A 
ATOM     10  C   UNL     1       1.865   8.516  18.748  0.00  0.00    +0.000 A 
ATOM     11  C   UNL     1       2.033   7.162  19.091  0.00  0.00    +0.000 A 
ATOM     12  C   UNL     1       2.988   6.329  18.476  0.00  0.00    +0.000 A 
ATOM     13  N   UNL     1       3.145   4.924  18.774  0.00  0.00    +0.000 N 
ATOM     14  H   UNL     1       5.762   4.413  16.805  0.00  0.00    +0.000 HD
ENDROOT
BRANCH  10  15
ATOM     15  N   UNL     1       0.827   9.257  19.333  0.00  0.00    +0.000 N 
ATOM     16  C   UNL     1      -0.247   9.892  18.662  0.00  0.00    +0.000 A 
ATOM     17  O   UNL     1      -0.477   9.951  17.453  0.00  0.00    +0.000 OA
ATOM     18  N   UNL     1      -1.035  10.496  19.653  0.00  0.00    +0.000 N 
ATOM     19  C   UNL     1      -0.490  10.210  20.903  0.00  0.00    +0.000 A 
ATOM     20  N   UNL     1      -1.007  10.567  22.079  0.00  0.00    +0.000 NA
ATOM     21  C   UNL     1      -0.326  10.081  23.146  0.00  0.00    +0.000 A 
ATOM     22  C   UNL     1       0.821   9.280  23.061  0.00  0.00    +0.000 A 
ATOM     23  C   UNL     1       1.329   8.945  21.808  0.00  0.00    +0.000 A 
ATOM     24  C   UNL     1       0.657   9.438  20.711  0.00  0.00    +0.000 A 
ATOM     25  H   UNL     1      -1.866  11.037  19.505  0.00  0.00    +0.000 HD
ENDBRANCH  10  15
BRANCH  13  26
ATOM     26  C   UNL     1       2.466   4.194  19.790  0.00  0.00    +0.000 A 
ATOM     27  C   UNL     1       3.015   3.945  21.060  0.00  0.00    +0.000 A 
ATOM     28  C   UNL     1       2.394   3.096  21.989  0.00  0.00    +0.000 A 
ATOM     29  C   UNL     1       1.137   2.569  21.726  0.00  0.00    +0.000 A 
ATOM     30  C   UNL     1       0.532   2.849  20.510  0.00  0.00    +0.000 A 
ATOM     31  C   UNL     1       1.215   3.599  19.544  0.00  0.00    +0.000 A 
ENDBRANCH  13  26
TORSDOF 2
ENDMDL
MODEL 5
REMARK VINA RESULT:      -7.1      1.870      6.462
REMARK  Name = 
REMARK  4 active torsions:
REMARK  status: ('A' for Active; 'I' for Inactive)
REMARK    1  A    between atoms: C_1  and  C_2
REMARK    2  A    between atoms: C_2  and  C_3
REMARK    3  A    between atoms: C_10  and  N_11
REMARK    4  A    between atoms: N_23  and  C_24
REMARK                            x       y       z     vdW  Elec       q    Type
REMARK                         _______ _______ _______ _____ _____    ______ ____
ROOT
ATOM      1  C   UNL     1      -3.381  15.264  24.879  0.00  0.00    +0.000 C 
ATOM      2  C   UNL     1      -4.334  14.703  23.804  0.00  0.00    +0.000 C 
ATOM      3  C   UNL     1      -5.175  15.909  23.311  0.00  0.00    +0.000 C 
ATOM      4  N   UNL     1      -5.183  13.754  24.500  0.00  0.00    +0.000 N 
ATOM      5  C   UNL     1      -6.110  13.003  23.850  0.00  0.00    +0.000 C 
ATOM      6  O   UNL     1      -7.052  12.495  24.444  0.00  0.00    +0.000 OA
ATOM      7  C   UNL     1      -5.890  12.824  22.407  0.00  0.00    +0.000 A 
ATOM      8  C   UNL     1      -6.879  12.154  21.669  0.00  0.00    +0.000 A 
ATOM      9  C   UNL     1      -6.674  11.882  20.322  0.00  0.00    +0.000 A 
ATOM     10  C   UNL     1      -5.471  12.253  19.725  0.00  0.00    +0.000 A 
ATOM     11  C   UNL     1      -4.488  12.909  20.489  0.00  0.00    +0.000 A 
ATOM     12  C   UNL     1      -4.679  13.268  21.838  0.00  0.00    +0.000 A 
ATOM     13  N   UNL     1      -3.707  13.986  22.627  0.00  0.00    +0.000 N 
ATOM     14  H   UNL     1      -5.405  13.911  25.473  0.00  0.00    +0.000 HD
ENDROOT
BRANCH  10  15
ATOM     15  N   UNL     1      -5.246  12.017  18.360  0.00  0.00    +0.000 N 
ATOM     16  C   UNL     1      -6.014  12.505  17.275  0.00  0.00    +0.000 A 
ATOM     17  O   UNL     1      -7.031  13.200  17.298  0.00  0.00    +0.000 OA
ATOM     18  N   UNL     1      -5.407  12.021  16.106  0.00  0.00    +0.000 N 
ATOM     19  C   UNL     1      -4.273  11.290  16.455  0.00  0.00    +0.000 A 
ATOM     20  N   UNL     1      -3.413  10.733  15.601  0.00  0.00    +0.000 NA
ATOM     21  C   UNL     1      -2.343  10.156  16.202  0.00  0.00    +0.000 A 
ATOM     22  C   UNL     1      -2.130  10.121  17.587  0.00  0.00    +0.000 A 
ATOM     23  C   UNL     1      -3.066  10.707  18.437  0.00  0.00    +0.000 A 
ATOM     24  C   UNL     1      -4.165  11.290  17.846  0.00  0.00    +0.000 A 
ATOM     25  H   UNL     1      -5.716  12.179  15.167  0.00  0.00    +0.000 HD
ENDBRANCH  10  15
BRANCH  13  26
ATOM     26  C   UNL     1      -2.386  14.337  22.229  0.00  0.00    +0.000 A 
ATOM     27  C   UNL     1      -2.082  15.504  21.507  0.00  0.00    +0.000 A 
ATOM     28  C   UNL     1      -0.798  15.753  20.996  0.00  0.00    +0.000 A 
ATOM     29  C   UNL     1       0.255  14.901  21.300  0.00  0.00    +0.000 A 
ATOM     30  C   UNL     1       0.007  13.774  22.069  0.00  0.00    +0.000 A 
ATOM     31  C   UNL     1      -1.301  13.475  22.473  0.00  0.00    +0.000 A 
ENDBRANCH  13  26
TORSDOF 2
ENDMDL
MODEL 6
REMARK VINA RESULT:      -7.0      2.403      5.748
REMARK  Name = 
REMARK  4 active torsions:
REMARK  status: ('A' for Active; 'I' for Inactive)
REMARK    1  A    between atoms: C_1  and  C_2
REMARK    2  A    between atoms: C_2  and  C_3
REMARK    3  A    between atoms: C_10  and  N_11
REMARK    4  A    between atoms: N_23  and  C_24
REMARK                            x       y       z     vdW  Elec       q    Type
REMARK                         _______ _______ _______ _____ _____    ______ ____
ROOT
ATOM      1  C   UNL     1      -7.161  13.987  21.834  0.00  0.00    +0.000 C 
ATOM      2  C   UNL     1      -6.206  13.634  20.677  0.00  0.00    +0.000 C 
ATOM      3  C   UNL     1      -6.097  14.914  19.809  0.00  0.00    +0.000 C 
ATOM      4  N   UNL     1      -6.874  12.583  19.932  0.00  0.00    +0.000 N 
ATOM      5  C   UNL     1      -6.291  11.966  18.871  0.00  0.00    +0.000 C 
ATOM      6  O   UNL     1      -6.955  11.367  18.035  0.00  0.00    +0.000 OA
ATOM      7  C   UNL     1      -4.824  12.045  18.814  0.00  0.00    +0.000 A 
ATOM      8  C   UNL     1      -4.181  11.524  17.679  0.00  0.00    +0.000 A 
ATOM      9  C   UNL     1      -2.793  11.494  17.620  0.00  0.00    +0.000 A 
ATOM     10  C   UNL     1      -2.053  11.956  18.706  0.00  0.00    +0.000 A 
ATOM     11  C   UNL     1      -2.720  12.458  19.839  0.00  0.00    +0.000 A 
ATOM     12  C   UNL     1      -4.121  12.573  19.915  0.00  0.00    +0.000 A 
ATOM     13  N   UNL     1      -4.825  13.132  21.046  0.00  0.00    +0.000 N 
ATOM     14  H   UNL     1      -7.884  12.565  19.900  0.00  0.00    +0.000 HD
ENDROOT
BRANCH  10  15
ATOM     15  N   UNL     1      -0.650  11.964  18.665  0.00  0.00    +0.000 N 
ATOM     16  C   UNL     1       0.201  10.849  18.480  0.00  0.00    +0.000 A 
ATOM     17  O   UNL     1      -0.098   9.661  18.346  0.00  0.00    +0.000 OA
ATOM     18  N   UNL     1       1.515  11.341  18.499  0.00  0.00    +0.000 N 
ATOM     19  C   UNL     1       1.477  12.726  18.650  0.00  0.00    +0.000 A 
ATOM     20  N   UNL     1       2.534  13.539  18.647  0.00  0.00    +0.000 NA
ATOM     21  C   UNL     1       2.213  14.854  18.719  0.00  0.00    +0.000 A 
ATOM     22  C   UNL     1       0.905  15.351  18.796  0.00  0.00    +0.000 A 
ATOM     23  C   UNL     1      -0.166  14.458  18.808  0.00  0.00    +0.000 A 
ATOM     24  C   UNL     1       0.142  13.117  18.745  0.00  0.00    +0.000 A 
ATOM     25  H   UNL     1       2.354  10.801  18.406  0.00  0.00    +0.000 HD
ENDBRANCH  10  15
BRANCH  13  26
ATOM     26  C   UNL     1      -4.252  13.538  22.284  0.00  0.00    +0.000 A 
ATOM     27  C   UNL     1      -4.221  12.719  23.426  0.00  0.00    +0.000 A 
ATOM     28  C   UNL     1      -3.788  13.194  24.674  0.00  0.00    +0.000 A 
ATOM     29  C   UNL     1      -3.251  14.469  24.791  0.00  0.00    +0.000 A 
ATOM     30  C   UNL     1      -3.201  15.283  23.670  0.00  0.00    +0.000 A 
ATOM     31  C   UNL     1      -3.746  14.839  22.457  0.00  0.00    +0.000 A 
ENDBRANCH  13  26
TORSDOF 2
ENDMDL
MODEL 7
REMARK VINA RESULT:      -7.0      2.557      4.957
REMARK  Name = 
REMARK  4 active torsions:
REMARK  status: ('A' for Active; 'I' for Inactive)
REMARK    1  A    between atoms: C_1  and  C_2
REMARK    2  A    between atoms: C_2  and  C_3
REMARK    3  A    between atoms: C_10  and  N_11
REMARK    4  A    between atoms: N_23  and  C_24
REMARK                            x       y       z     vdW  Elec       q    Type
REMARK                         _______ _______ _______ _____ _____    ______ ____
ROOT
ATOM      1  C   UNL     1       1.635  13.531  18.523  0.00  0.00    +0.000 C 
ATOM      2  C   UNL     1       0.641  14.028  19.591  0.00  0.00    +0.000 C 
ATOM      3  C   UNL     1      -0.038  15.285  18.989  0.00  0.00    +0.000 C 
ATOM      4  N   UNL     1       1.457  14.401  20.732  0.00  0.00    +0.000 N 
ATOM      5  C   UNL     1       0.911  14.823  21.903  0.00  0.00    +0.000 C 
ATOM      6  O   UNL     1       1.559  15.471  22.714  0.00  0.00    +0.000 OA
ATOM      7  C   UNL     1      -0.485  14.426  22.136  0.00  0.00    +0.000 A 
ATOM      8  C   UNL     1      -1.132  14.933  23.276  0.00  0.00    +0.000 A 
ATOM      9  C   UNL     1      -2.420  14.516  23.586  0.00  0.00    +0.000 A 
ATOM     10  C   UNL     1      -3.047  13.573  22.774  0.00  0.00    +0.000 A 
ATOM     11  C   UNL     1      -2.373  13.068  21.647  0.00  0.00    +0.000 A 
ATOM     12  C   UNL     1      -1.096  13.513  21.254  0.00  0.00    +0.000 A 
ATOM     13  N   UNL     1      -0.407  13.047  20.074  0.00  0.00    +0.000 N 
ATOM     14  H   UNL     1       2.392  14.750  20.578  0.00  0.00    +0.000 HD
ENDROOT
BRANCH  10  15
ATOM     15  N   UNL     1      -4.358  13.153  23.046  0.00  0.00    +0.000 N 
ATOM     16  C   UNL     1      -4.832  12.566  24.244  0.00  0.00    +0.000 A 
ATOM     17  O   UNL     1      -4.205  12.280  25.266  0.00  0.00    +0.000 OA
ATOM     18  N   UNL     1      -6.201  12.327  24.057  0.00  0.00    +0.000 N 
ATOM     19  C   UNL     1      -6.575  12.791  22.797  0.00  0.00    +0.000 A 
ATOM     20  N   UNL     1      -7.813  12.787  22.301  0.00  0.00    +0.000 NA
ATOM     21  C   UNL     1      -7.917  13.381  21.087  0.00  0.00    +0.000 A 
ATOM     22  C   UNL     1      -6.846  13.951  20.385  0.00  0.00    +0.000 A 
ATOM     23  C   UNL     1      -5.569  13.917  20.942  0.00  0.00    +0.000 A 
ATOM     24  C   UNL     1      -5.441  13.309  22.171  0.00  0.00    +0.000 A 
ATOM     25  H   UNL     1      -6.827  11.906  24.717  0.00  0.00    +0.000 HD
ENDBRANCH  10  15
BRANCH  13  26
ATOM     26  C   UNL     1      -0.832  12.007  19.200  0.00  0.00    +0.000 A 
ATOM     27  C   UNL     1      -0.256  10.725  19.187  0.00  0.00    +0.000 A 
ATOM     28  C   UNL     1      -0.588   9.766  18.217  0.00  0.00    +0.000 A 
ATOM     29  C   UNL     1      -1.602  10.016  17.303  0.00  0.00    +0.000 A 
ATOM     30  C   UNL     1      -2.243  11.246  17.329  0.00  0.00    +0.000 A 
ATOM     31  C   UNL     1      -1.820  12.237  18.225  0.00  0.00    +0.000 A 
ENDBRANCH  13  26
TORSDOF 2
ENDMDL
MODEL 8
REMARK VINA RESULT:      -7.0      2.807      6.319
REMARK  Name = 
REMARK  4 active torsions:
REMARK  status: ('A' for Active; 'I' for Inactive)
REMARK    1  A    between atoms: C_1  and  C_2
REMARK    2  A    between atoms: C_2  and  C_3
REMARK    3  A    between atoms: C_10  and  N_11
REMARK    4  A    between atoms: N_23  and  C_24
REMARK                            x       y       z     vdW  Elec       q    Type
REMARK                         _______ _______ _______ _____ _____    ______ ____
ROOT
ATOM      1  C   UNL     1      -7.390  14.437  22.016  0.00  0.00    +0.000 C 
ATOM      2  C   UNL     1      -6.001  14.029  22.546  0.00  0.00    +0.000 C 
ATOM      3  C   UNL     1      -6.263  13.164  23.806  0.00  0.00    +0.000 C 
ATOM      4  N   UNL     1      -5.352  15.272  22.921  0.00  0.00    +0.000 N 
ATOM      5  C   UNL     1      -4.070  15.310  23.368  0.00  0.00    +0.000 C 
ATOM      6  O   UNL     1      -3.647  16.258  24.017  0.00  0.00    +0.000 OA
ATOM      7  C   UNL     1      -3.230  14.161  23.000  0.00  0.00    +0.000 A 
ATOM      8  C   UNL     1      -1.933  14.096  23.534  0.00  0.00    +0.000 A 
ATOM      9  C   UNL     1      -1.072  13.078  23.145  0.00  0.00    +0.000 A 
ATOM     10  C   UNL     1      -1.499  12.145  22.201  0.00  0.00    +0.000 A 
ATOM     11  C   UNL     1      -2.798  12.240  21.668  0.00  0.00    +0.000 A 
ATOM     12  C   UNL     1      -3.728  13.212  22.085  0.00  0.00    +0.000 A 
ATOM     13  N   UNL     1      -5.082  13.297  21.590  0.00  0.00    +0.000 N 
ATOM     14  H   UNL     1      -5.915  16.043  23.250  0.00  0.00    +0.000 HD
ENDROOT
BRANCH  10  15
ATOM     15  N   UNL     1      -0.662  11.089  21.809  0.00  0.00    +0.000 N 
ATOM     16  C   UNL     1      -0.129  10.073  22.638  0.00  0.00    +0.000 A 
ATOM     17  O   UNL     1      -0.260   9.919  23.854  0.00  0.00    +0.000 OA
ATOM     18  N   UNL     1       0.634   9.239  21.808  0.00  0.00    +0.000 N 
ATOM     19  C   UNL     1       0.542   9.699  20.496  0.00  0.00    +0.000 A 
ATOM     20  N   UNL     1       1.087   9.118  19.426  0.00  0.00    +0.000 NA
ATOM     21  C   UNL     1       0.768   9.721  18.255  0.00  0.00    +0.000 A 
ATOM     22  C   UNL     1      -0.050  10.853  18.138  0.00  0.00    +0.000 A 
ATOM     23  C   UNL     1      -0.585  11.430  19.288  0.00  0.00    +0.000 A 
ATOM     24  C   UNL     1      -0.264  10.838  20.489  0.00  0.00    +0.000 A 
ATOM     25  H   UNL     1       1.154   8.431  22.093  0.00  0.00    +0.000 HD
ENDBRANCH  10  15
BRANCH  13  26
ATOM     26  C   UNL     1      -5.653  12.516  20.546  0.00  0.00    +0.000 A 
ATOM     27  C   UNL     1      -6.598  11.500  20.770  0.00  0.00    +0.000 A 
ATOM     28  C   UNL     1      -7.031  10.644  19.745  0.00  0.00    +0.000 A 
ATOM     29  C   UNL     1      -6.629  10.861  18.434  0.00  0.00    +0.000 A 
ATOM     30  C   UNL     1      -5.750  11.899  18.163  0.00  0.00    +0.000 A 
ATOM     31  C   UNL     1      -5.232  12.669  19.212  0.00  0.00    +0.000 A 
ENDBRANCH  13  26
TORSDOF 2
ENDMDL
MODEL 9
REMARK VINA RESULT:      -7.0      2.508      5.054
REMARK  Name = 
REMARK  4 active torsions:
REMARK  status: ('A' for Active; 'I' for Inactive)
REMARK    1  A    between atoms: C_1  and  C_2
REMARK    2  A    between atoms: C_2  and  C_3
REMARK    3  A    between atoms: C_10  and  N_11
REMARK    4  A    between atoms: N_23  and  C_24
REMARK                            x       y       z     vdW  Elec       q    Type
REMARK                         _______ _______ _______ _____ _____    ______ ____
ROOT
ATOM      1  C   UNL     1       1.750  13.330  18.199  0.00  0.00    +0.000 C 
ATOM      2  C   UNL     1       0.811  13.796  19.329  0.00  0.00    +0.000 C 
ATOM      3  C   UNL     1       0.201  15.138  18.849  0.00  0.00    +0.000 C 
ATOM      4  N   UNL     1       1.670  14.022  20.477  0.00  0.00    +0.000 N 
ATOM      5  C   UNL     1       1.175  14.377  21.691  0.00  0.00    +0.000 C 
ATOM      6  O   UNL     1       1.879  14.914  22.536  0.00  0.00    +0.000 OA
ATOM      7  C   UNL     1      -0.239  14.049  21.925  0.00  0.00    +0.000 A 
ATOM      8  C   UNL     1      -0.829  14.497  23.118  0.00  0.00    +0.000 A 
ATOM      9  C   UNL     1      -2.135  14.135  23.425  0.00  0.00    +0.000 A 
ATOM     10  C   UNL     1      -2.836  13.304  22.553  0.00  0.00    +0.000 A 
ATOM     11  C   UNL     1      -2.218  12.854  21.372  0.00  0.00    +0.000 A 
ATOM     12  C   UNL     1      -0.923  13.251  20.986  0.00  0.00    +0.000 A 
ATOM     13  N   UNL     1      -0.288  12.844  19.755  0.00  0.00    +0.000 N 
ATOM     14  H   UNL     1       2.623  14.324  20.328  0.00  0.00    +0.000 HD
ENDROOT
BRANCH  10  15
ATOM     15  N   UNL     1      -4.166  12.944  22.822  0.00  0.00    +0.000 N 
ATOM     16  C   UNL     1      -4.720  12.616  24.083  0.00  0.00    +0.000 A 
ATOM     17  O   UNL     1      -4.162  12.552  25.180  0.00  0.00    +0.000 OA
ATOM     18  N   UNL     1      -6.077  12.338  23.863  0.00  0.00    +0.000 N 
ATOM     19  C   UNL     1      -6.366  12.528  22.513  0.00  0.00    +0.000 A 
ATOM     20  N   UNL     1      -7.569  12.417  21.950  0.00  0.00    +0.000 NA
ATOM     21  C   UNL     1      -7.591  12.745  20.635  0.00  0.00    +0.000 A 
ATOM     22  C   UNL     1      -6.472  13.162  19.900  0.00  0.00    +0.000 A 
ATOM     23  C   UNL     1      -5.233  13.250  20.532  0.00  0.00    +0.000 A 
ATOM     24  C   UNL     1      -5.190  12.910  21.866  0.00  0.00    +0.000 A 
ATOM     25  H   UNL     1      -6.747  12.061  24.555  0.00  0.00    +0.000 HD
ENDBRANCH  10  15
BRANCH  13  26
ATOM     26  C   UNL     1      -0.795  11.909  18.809  0.00  0.00    +0.000 A 
ATOM     27  C   UNL     1      -1.842  12.203  17.918  0.00  0.00    +0.000 A 
ATOM     28  C   UNL     1      -2.426  11.221  17.102  0.00  0.00    +0.000 A 
ATOM     29  C   UNL     1      -1.894   9.940  17.058  0.00  0.00    +0.000 A 
ATOM     30  C   UNL     1      -0.816   9.631  17.872  0.00  0.00    +0.000 A 
ATOM     31  C   UNL     1      -0.319  10.586  18.769  0.00  0.00    +0.000 A 
ENDBRANCH  13  26
TORSDOF 2
ENDMDL
