MODEL 1
REMARK VINA RESULT:      -7.4      0.000      0.000
REMARK  Name = 
REMARK  6 active torsions:
REMARK  status: ('A' for Active; 'I' for Inactive)
REMARK    1  A    between atoms: C_1  and  C_2
REMARK    2  A    between atoms: C_5  and  P_6
REMARK    3  A    between atoms: P_6  and  C_7
REMARK    4  A    between atoms: P_6  and  C_14
REMARK    5  A    between atoms: P_6  and  C_20
REMARK    6  A    between atoms: C_7  and  C_8
REMARK                            x       y       z     vdW  Elec       q    Type
REMARK                         _______ _______ _______ _____ _____    ______ ____
ROOT
ATOM      1  P   UNL     1      -0.071  11.224  20.007  0.00  0.00    +0.000 P 
ENDROOT
BRANCH   1   6
ATOM      2  C   UNL     1       3.275   6.422  18.233  0.00  0.00    +0.000 C 
ATOM      3  C   UNL     1       2.457   7.606  18.641  0.00  0.00    +0.000 A 
ATOM      4  C   UNL     1       2.235   8.674  17.767  0.00  0.00    +0.000 A 
ATOM      5  C   UNL     1       1.475   9.779  18.166  0.00  0.00    +0.000 A 
ATOM      6  C   UNL     1       0.916   9.843  19.445  0.00  0.00    +0.000 A 
ATOM      7  C   UNL     1       1.165   8.777  20.323  0.00  0.00    +0.000 A 
ATOM      8  C   UNL     1       1.918   7.670  19.929  0.00  0.00    +0.000 A 
ENDBRANCH   1   6
BRANCH   1   9
ATOM      9  C   UNL     1       0.728  12.797  19.716  0.00  0.00    +0.000 A 
ATOM     10  C   UNL     1       1.994  13.094  20.237  0.00  0.00    +0.000 A 
ATOM     11  C   UNL     1       2.542  14.372  20.110  0.00  0.00    +0.000 A 
ATOM     12  C   UNL     1       1.828  15.374  19.462  0.00  0.00    +0.000 A 
ATOM     13  C   UNL     1       0.577  15.091  18.918  0.00  0.00    +0.000 A 
ATOM     14  C   UNL     1       0.037  13.809  19.033  0.00  0.00    +0.000 A 
ENDBRANCH   1   9
BRANCH   1  15
ATOM     15  C   UNL     1      -1.614  11.144  19.088  0.00  0.00    +0.000 A 
ATOM     16  C   UNL     1      -2.677  12.014  19.358  0.00  0.00    +0.000 A 
ATOM     17  C   UNL     1      -3.917  11.847  18.731  0.00  0.00    +0.000 A 
ATOM     18  C   UNL     1      -4.114  10.800  17.834  0.00  0.00    +0.000 A 
ATOM     19  C   UNL     1      -3.063   9.935  17.542  0.00  0.00    +0.000 A 
ATOM     20  C   UNL     1      -1.822  10.113  18.158  0.00  0.00    +0.000 A 
ENDBRANCH   1  15
BRANCH   1  21
ATOM     21  C   UNL     1      -0.419  11.109  21.805  0.00  0.00    +0.000 C 
BRANCH  21  22
ATOM     22  C   UNL     1      -1.184  12.202  22.528  0.00  0.00    +0.000 A 
ATOM     23  C   UNL     1      -0.673  13.492  22.714  0.00  0.00    +0.000 A 
ATOM     24  C   UNL     1      -1.378  14.451  23.444  0.00  0.00    +0.000 A 
ATOM     25  C   UNL     1      -2.622  14.144  23.981  0.00  0.00    +0.000 A 
ATOM     26  C   UNL     1      -3.177  12.886  23.758  0.00  0.00    +0.000 A 
ATOM     27  C   UNL     1      -2.468  11.928  23.029  0.00  0.00    +0.000 A 
ENDBRANCH  21  22
ENDBRANCH   1  21
TORSDOF 5
ENDMDL
MODEL 2
REMARK VINA RESULT:      -7.3      0.172      1.611
REMARK  Name = 
REMARK  6 active torsions:
REMARK  status: ('A' for Active; 'I' for Inactive)
REMARK    1  A    between atoms: C_1  and  C_2
REMARK    2  A    between atoms: C_5  and  P_6
REMARK    3  A    between atoms: P_6  and  C_7
REMARK    4  A    between atoms: P_6  and  C_14
REMARK    5  A    between atoms: P_6  and  C_20
REMARK    6  A    between atoms: C_7  and  C_8
REMARK                            x       y       z     vdW  Elec       q    Type
REMARK                         _______ _______ _______ _____ _____    ______ ____
ROOT
ATOM      1  P   UNL     1      -0.068  11.217  20.105  0.00  0.00    +0.000 P 
ENDROOT
BRANCH   1   6
ATOM      2  C   UNL     1       3.335   6.578  18.029  0.00  0.00    +0.000 C 
ATOM      3  C   UNL     1       2.502   7.702  18.562  0.00  0.00    +0.000 A 
ATOM      4  C   UNL     1       1.957   7.658  19.848  0.00  0.00    +0.000 A 
ATOM      5  C   UNL     1       1.174   8.712  20.329  0.00  0.00    +0.000 A 
ATOM      6  C   UNL     1       0.918   9.837  19.540  0.00  0.00    +0.000 A 
ATOM      7  C   UNL     1       1.449   9.859  18.241  0.00  0.00    +0.000 A 
ATOM      8  C   UNL     1       2.236   8.814  17.758  0.00  0.00    +0.000 A 
ENDBRANCH   1   6
BRANCH   1   9
ATOM      9  C   UNL     1       0.744  12.788  19.844  0.00  0.00    +0.000 A 
ATOM     10  C   UNL     1       0.143  13.823  19.114  0.00  0.00    +0.000 A 
ATOM     11  C   UNL     1       0.846  14.990  18.809  0.00  0.00    +0.000 A 
ATOM     12  C   UNL     1       2.165  15.137  19.228  0.00  0.00    +0.000 A 
ATOM     13  C   UNL     1       2.771  14.129  19.973  0.00  0.00    +0.000 A 
ATOM     14  C   UNL     1       2.062  12.968  20.290  0.00  0.00    +0.000 A 
ENDBRANCH   1   9
BRANCH   1  15
ATOM     15  C   UNL     1      -1.598  11.158  19.164  0.00  0.00    +0.000 A 
ATOM     16  C   UNL     1      -2.657  12.035  19.426  0.00  0.00    +0.000 A 
ATOM     17  C   UNL     1      -3.891  11.884  18.780  0.00  0.00    +0.000 A 
ATOM     18  C   UNL     1      -4.084  10.846  17.873  0.00  0.00    +0.000 A 
ATOM     19  C   UNL     1      -3.036   9.973  17.590  0.00  0.00    +0.000 A 
ATOM     20  C   UNL     1      -1.802  10.135  18.224  0.00  0.00    +0.000 A 
ENDBRANCH   1  15
BRANCH   1  21
ATOM     21  C   UNL     1      -0.441  11.083  21.897  0.00  0.00    +0.000 C 
BRANCH  21  22
ATOM     22  C   UNL     1      -1.253  12.148  22.612  0.00  0.00    +0.000 A 
ATOM     23  C   UNL     1      -2.531  11.909  23.129  0.00  0.00    +0.000 A 
ATOM     24  C   UNL     1      -3.274  12.933  23.720  0.00  0.00    +0.000 A 
ATOM     25  C   UNL     1      -2.741  14.211  23.829  0.00  0.00    +0.000 A 
ATOM     26  C   UNL     1      -1.447  14.457  23.375  0.00  0.00    +0.000 A 
ATOM     27  C   UNL     1      -0.706  13.432  22.782  0.00  0.00    +0.000 A 
ENDBRANCH  21  22
ENDBRANCH   1  21
TORSDOF 5
ENDMDL
MODEL 3
REMARK VINA RESULT:      -7.3      0.352      5.017
REMARK  Name = 
REMARK  6 active torsions:
REMARK  status: ('A' for Active; 'I' for Inactive)
REMARK    1  A    between atoms: C_1  and  C_2
REMARK    2  A    between atoms: C_5  and  P_6
REMARK    3  A    between atoms: P_6  and  C_7
REMARK    4  A    between atoms: P_6  and  C_14
REMARK    5  A    between atoms: P_6  and  C_20
REMARK    6  A    between atoms: C_7  and  C_8
REMARK                            x       y       z     vdW  Elec       q    Type
REMARK                         _______ _______ _______ _____ _____    ______ ____
ROOT
ATOM      1  P   UNL     1      -0.215  11.263  20.005  0.00  0.00    +0.000 P 
ENDROOT
BRANCH   1   6
ATOM      2  C   UNL     1       2.923  16.429  19.069  0.00  0.00    +0.000 C 
ATOM      3  C   UNL     1       2.136  15.174  19.281  0.00  0.00    +0.000 A 
ATOM      4  C   UNL     1       0.837  15.036  18.784  0.00  0.00    +0.000 A 
ATOM      5  C   UNL     1       0.110  13.860  18.998  0.00  0.00    +0.000 A 
ATOM      6  C   UNL     1       0.662  12.792  19.709  0.00  0.00    +0.000 A 
ATOM      7  C   UNL     1       1.958  12.950  20.225  0.00  0.00    +0.000 A 
ATOM      8  C   UNL     1       2.690  14.119  20.010  0.00  0.00    +0.000 A 
ENDBRANCH   1   6
BRANCH   1   9
ATOM      9  C   UNL     1      -1.732  11.154  19.066  0.00  0.00    +0.000 A 
ATOM     10  C   UNL     1      -2.819  12.004  19.310  0.00  0.00    +0.000 A 
ATOM     11  C   UNL     1      -4.039  11.817  18.658  0.00  0.00    +0.000 A 
ATOM     12  C   UNL     1      -4.191  10.771  17.753  0.00  0.00    +0.000 A 
ATOM     13  C   UNL     1      -3.115   9.929  17.482  0.00  0.00    +0.000 A 
ATOM     14  C   UNL     1      -1.891  10.126  18.125  0.00  0.00    +0.000 A 
ENDBRANCH   1   9
BRANCH   1  15
ATOM     15  C   UNL     1       0.902   9.942  19.516  0.00  0.00    +0.000 A 
ATOM     16  C   UNL     1       1.461   9.889  18.234  0.00  0.00    +0.000 A 
ATOM     17  C   UNL     1       2.215   8.782  17.826  0.00  0.00    +0.000 A 
ATOM     18  C   UNL     1       2.410   7.709  18.692  0.00  0.00    +0.000 A 
ATOM     19  C   UNL     1       1.874   7.753  19.976  0.00  0.00    +0.000 A 
ATOM     20  C   UNL     1       1.134   8.865  20.386  0.00  0.00    +0.000 A 
ENDBRANCH   1  15
BRANCH   1  21
ATOM     21  C   UNL     1      -0.652  11.076  21.778  0.00  0.00    +0.000 C 
BRANCH  21  22
ATOM     22  C   UNL     1      -1.330  12.198  22.542  0.00  0.00    +0.000 A 
ATOM     23  C   UNL     1      -0.730  13.444  22.753  0.00  0.00    +0.000 A 
ATOM     24  C   UNL     1      -1.357  14.428  23.519  0.00  0.00    +0.000 A 
ATOM     25  C   UNL     1      -2.611  14.193  24.069  0.00  0.00    +0.000 A 
ATOM     26  C   UNL     1      -3.253  12.982  23.821  0.00  0.00    +0.000 A 
ATOM     27  C   UNL     1      -2.622  11.998  23.056  0.00  0.00    +0.000 A 
ENDBRANCH  21  22
ENDBRANCH   1  21
TORSDOF 5
ENDMDL
MODEL 4
REMARK VINA RESULT:      -7.3      0.140      1.315
REMARK  Name = 
REMARK  6 active torsions:
REMARK  status: ('A' for Active; 'I' for Inactive)
REMARK    1  A    between atoms: C_1  and  C_2
REMARK    2  A    between atoms: C_5  and  P_6
REMARK    3  A    between atoms: P_6  and  C_7
REMARK    4  A    between atoms: P_6  and  C_14
REMARK    5  A    between atoms: P_6  and  C_20
REMARK    6  A    between atoms: C_7  and  C_8
REMARK                            x       y       z     vdW  Elec       q    Type
REMARK                         _______ _______ _______ _____ _____    ______ ____
ROOT
ATOM      1  P   UNL     1      -0.077  11.168  20.031  0.00  0.00    +0.000 P 
ENDROOT
BRANCH   1   6
ATOM      2  C   UNL     1       3.366   6.519  18.042  0.00  0.00    +0.000 C 
ATOM      3  C   UNL     1       2.524   7.646  18.554  0.00  0.00    +0.000 A 
ATOM      4  C   UNL     1       1.989   7.627  19.845  0.00  0.00    +0.000 A 
ATOM      5  C   UNL     1       1.196   8.683  20.306  0.00  0.00    +0.000 A 
ATOM      6  C   UNL     1       0.921   9.785  19.493  0.00  0.00    +0.000 A 
ATOM      7  C   UNL     1       1.443   9.783  18.190  0.00  0.00    +0.000 A 
ATOM      8  C   UNL     1       2.239   8.735  17.726  0.00  0.00    +0.000 A 
ENDBRANCH   1   6
BRANCH   1   9
ATOM      9  C   UNL     1       0.674  12.743  19.643  0.00  0.00    +0.000 A 
ATOM     10  C   UNL     1       1.972  13.070  20.057  0.00  0.00    +0.000 A 
ATOM     11  C   UNL     1       2.490  14.351  19.858  0.00  0.00    +0.000 A 
ATOM     12  C   UNL     1       1.712  15.327  19.243  0.00  0.00    +0.000 A 
ATOM     13  C   UNL     1       0.428  15.015  18.805  0.00  0.00    +0.000 A 
ATOM     14  C   UNL     1      -0.083  13.728  18.992  0.00  0.00    +0.000 A 
ENDBRANCH   1   9
BRANCH   1  15
ATOM     15  C   UNL     1      -1.649  11.013  19.176  0.00  0.00    +0.000 A 
ATOM     16  C   UNL     1      -1.840  10.080  18.150  0.00  0.00    +0.000 A 
ATOM     17  C   UNL     1      -3.023  10.068  17.402  0.00  0.00    +0.000 A 
ATOM     18  C   UNL     1      -4.027  10.998  17.663  0.00  0.00    +0.000 A 
ATOM     19  C   UNL     1      -3.860  11.923  18.690  0.00  0.00    +0.000 A 
ATOM     20  C   UNL     1      -2.684  11.923  19.445  0.00  0.00    +0.000 A 
ENDBRANCH   1  15
BRANCH   1  21
ATOM     21  C   UNL     1      -0.354  11.125  21.845  0.00  0.00    +0.000 C 
BRANCH  21  22
ATOM     22  C   UNL     1      -1.148  12.213  22.544  0.00  0.00    +0.000 A 
ATOM     23  C   UNL     1      -0.671  13.519  22.702  0.00  0.00    +0.000 A 
ATOM     24  C   UNL     1      -1.401  14.475  23.410  0.00  0.00    +0.000 A 
ATOM     25  C   UNL     1      -2.638  14.148  23.953  0.00  0.00    +0.000 A 
ATOM     26  C   UNL     1      -3.160  12.872  23.756  0.00  0.00    +0.000 A 
ATOM     27  C   UNL     1      -2.426  11.917  23.049  0.00  0.00    +0.000 A 
ENDBRANCH  21  22
ENDBRANCH   1  21
TORSDOF 5
ENDMDL
MODEL 5
REMARK VINA RESULT:      -7.3      0.706      1.447
REMARK  Name = 
REMARK  6 active torsions:
REMARK  status: ('A' for Active; 'I' for Inactive)
REMARK    1  A    between atoms: C_1  and  C_2
REMARK    2  A    between atoms: C_5  and  P_6
REMARK    3  A    between atoms: P_6  and  C_7
REMARK    4  A    between atoms: P_6  and  C_14
REMARK    5  A    between atoms: P_6  and  C_20
REMARK    6  A    between atoms: C_7  and  C_8
REMARK                            x       y       z     vdW  Elec       q    Type
REMARK                         _______ _______ _______ _____ _____    ______ ____
ROOT
ATOM      1  P   UNL     1      -0.300  11.044  19.561  0.00  0.00    +0.000 P 
ENDROOT
BRANCH   1   6
ATOM      2  C   UNL     1       3.496   6.366  18.502  0.00  0.00    +0.000 C 
ATOM      3  C   UNL     1       2.568   7.518  18.735  0.00  0.00    +0.000 A 
ATOM      4  C   UNL     1       2.336   8.476  17.745  0.00  0.00    +0.000 A 
ATOM      5  C   UNL     1       1.473   9.552  17.980  0.00  0.00    +0.000 A 
ATOM      6  C   UNL     1       0.820   9.696  19.207  0.00  0.00    +0.000 A 
ATOM      7  C   UNL     1       1.080   8.741  20.202  0.00  0.00    +0.000 A 
ATOM      8  C   UNL     1       1.935   7.663  19.972  0.00  0.00    +0.000 A 
ENDBRANCH   1   6
BRANCH   1   9
ATOM      9  C   UNL     1       0.445  12.643  19.272  0.00  0.00    +0.000 A 
ATOM     10  C   UNL     1       1.794  12.897  19.558  0.00  0.00    +0.000 A 
ATOM     11  C   UNL     1       2.321  14.185  19.449  0.00  0.00    +0.000 A 
ATOM     12  C   UNL     1       1.505  15.241  19.056  0.00  0.00    +0.000 A 
ATOM     13  C   UNL     1       0.168  15.003  18.746  0.00  0.00    +0.000 A 
ATOM     14  C   UNL     1      -0.355  13.712  18.841  0.00  0.00    +0.000 A 
ENDBRANCH   1   9
BRANCH   1  15
ATOM     15  C   UNL     1      -1.711  10.822  18.472  0.00  0.00    +0.000 A 
ATOM     16  C   UNL     1      -1.643  10.008  17.335  0.00  0.00    +0.000 A 
ATOM     17  C   UNL     1      -2.704   9.958  16.423  0.00  0.00    +0.000 A 
ATOM     18  C   UNL     1      -3.844  10.730  16.632  0.00  0.00    +0.000 A 
ATOM     19  C   UNL     1      -3.935  11.533  17.765  0.00  0.00    +0.000 A 
ATOM     20  C   UNL     1      -2.881  11.571  18.680  0.00  0.00    +0.000 A 
ENDBRANCH   1  15
BRANCH   1  21
ATOM     21  C   UNL     1      -0.858  11.007  21.309  0.00  0.00    +0.000 C 
BRANCH  21  22
ATOM     22  C   UNL     1      -1.399  12.252  21.987  0.00  0.00    +0.000 A 
ATOM     23  C   UNL     1      -2.767  12.512  22.120  0.00  0.00    +0.000 A 
ATOM     24  C   UNL     1      -3.226  13.701  22.689  0.00  0.00    +0.000 A 
ATOM     25  C   UNL     1      -2.321  14.644  23.162  0.00  0.00    +0.000 A 
ATOM     26  C   UNL     1      -0.955  14.379  23.096  0.00  0.00    +0.000 A 
ATOM     27  C   UNL     1      -0.499  13.190  22.523  0.00  0.00    +0.000 A 
ENDBRANCH  21  22
ENDBRANCH   1  21
TORSDOF 5
ENDMDL
MODEL 6
REMARK VINA RESULT:      -7.2      0.367      5.040
REMARK  Name = 
REMARK  6 active torsions:
REMARK  status: ('A' for Active; 'I' for Inactive)
REMARK    1  A    between atoms: C_1  and  C_2
REMARK    2  A    between atoms: C_5  and  P_6
REMARK    3  A    between atoms: P_6  and  C_7
REMARK    4  A    between atoms: P_6  and  C_14
REMARK    5  A    between atoms: P_6  and  C_20
REMARK    6  A    between atoms: C_7  and  C_8
REMARK                            x       y       z     vdW  Elec       q    Type
REMARK                         _______ _______ _______ _____ _____    ______ ____
ROOT
ATOM      1  P   UNL     1      -0.240  11.173  19.974  0.00  0.00    +0.000 P 
ENDROOT
BRANCH   1   6
ATOM      2  C   UNL     1       2.486  16.515  18.769  0.00  0.00    +0.000 C 
ATOM      3  C   UNL     1       1.840  15.201  19.080  0.00  0.00    +0.000 A 
ATOM      4  C   UNL     1       2.534  14.189  19.748  0.00  0.00    +0.000 A 
ATOM      5  C   UNL     1       1.920  12.962  20.023  0.00  0.00    +0.000 A 
ATOM      6  C   UNL     1       0.599  12.717  19.641  0.00  0.00    +0.000 A 
ATOM      7  C   UNL     1      -0.081  13.731  18.949  0.00  0.00    +0.000 A 
ATOM      8  C   UNL     1       0.524  14.958  18.676  0.00  0.00    +0.000 A 
ENDBRANCH   1   6
BRANCH   1   9
ATOM      9  C   UNL     1      -1.763  11.013  19.053  0.00  0.00    +0.000 A 
ATOM     10  C   UNL     1      -1.906  10.089  18.008  0.00  0.00    +0.000 A 
ATOM     11  C   UNL     1      -3.055  10.070  17.217  0.00  0.00    +0.000 A 
ATOM     12  C   UNL     1      -4.080  10.981  17.456  0.00  0.00    +0.000 A 
ATOM     13  C   UNL     1      -3.965  11.891  18.503  0.00  0.00    +0.000 A 
ATOM     14  C   UNL     1      -2.821  11.899  19.304  0.00  0.00    +0.000 A 
ENDBRANCH   1   9
BRANCH   1  15
ATOM     15  C   UNL     1       0.902   9.870  19.497  0.00  0.00    +0.000 A 
ATOM     16  C   UNL     1       1.453   9.809  18.212  0.00  0.00    +0.000 A 
ATOM     17  C   UNL     1       2.228   8.712  17.815  0.00  0.00    +0.000 A 
ATOM     18  C   UNL     1       2.453   7.657  18.696  0.00  0.00    +0.000 A 
ATOM     19  C   UNL     1       1.924   7.709  19.983  0.00  0.00    +0.000 A 
ATOM     20  C   UNL     1       1.164   8.811  20.381  0.00  0.00    +0.000 A 
ENDBRANCH   1  15
BRANCH   1  21
ATOM     21  C   UNL     1      -0.655  11.009  21.754  0.00  0.00    +0.000 C 
BRANCH  21  22
ATOM     22  C   UNL     1      -1.310  12.146  22.516  0.00  0.00    +0.000 A 
ATOM     23  C   UNL     1      -0.681  13.378  22.731  0.00  0.00    +0.000 A 
ATOM     24  C   UNL     1      -1.289  14.376  23.495  0.00  0.00    +0.000 A 
ATOM     25  C   UNL     1      -2.551  14.169  24.038  0.00  0.00    +0.000 A 
ATOM     26  C   UNL     1      -3.221  12.974  23.787  0.00  0.00    +0.000 A 
ATOM     27  C   UNL     1      -2.609  11.976  23.024  0.00  0.00    +0.000 A 
ENDBRANCH  21  22
ENDBRANCH   1  21
TORSDOF 5
ENDMDL
MODEL 7
REMARK VINA RESULT:      -7.2      0.376      5.071
REMARK  Name = 
REMARK  6 active torsions:
REMARK  status: ('A' for Active; 'I' for Inactive)
REMARK    1  A    between atoms: C_1  and  C_2
REMARK    2  A    between atoms: C_5  and  P_6
REMARK    3  A    between atoms: P_6  and  C_7
REMARK    4  A    between atoms: P_6  and  C_14
REMARK    5  A    between atoms: P_6  and  C_20
REMARK    6  A    between atoms: C_7  and  C_8
REMARK                            x       y       z     vdW  Elec       q    Type
REMARK                         _______ _______ _______ _____ _____    ______ ____
ROOT
ATOM      1  P   UNL     1      -0.238  11.138  19.942  0.00  0.00    +0.000 P 
ENDROOT
BRANCH   1   6
ATOM      2  C   UNL     1       2.735  16.373  18.862  0.00  0.00    +0.000 C 
ATOM      3  C   UNL     1       1.987  15.101  19.111  0.00  0.00    +0.000 A 
ATOM      4  C   UNL     1       0.643  14.965  18.751  0.00  0.00    +0.000 A 
ATOM      5  C   UNL     1      -0.046  13.773  18.999  0.00  0.00    +0.000 A 
ATOM      6  C   UNL     1       0.589  12.688  19.609  0.00  0.00    +0.000 A 
ATOM      7  C   UNL     1       1.931  12.845  19.989  0.00  0.00    +0.000 A 
ATOM      8  C   UNL     1       2.625  14.029  19.740  0.00  0.00    +0.000 A 
ENDBRANCH   1   6
BRANCH   1   9
ATOM      9  C   UNL     1      -1.769  10.973  19.035  0.00  0.00    +0.000 A 
ATOM     10  C   UNL     1      -1.917  10.051  17.989  0.00  0.00    +0.000 A 
ATOM     11  C   UNL     1      -3.074  10.030  17.209  0.00  0.00    +0.000 A 
ATOM     12  C   UNL     1      -4.101  10.934  17.461  0.00  0.00    +0.000 A 
ATOM     13  C   UNL     1      -3.980  11.842  18.510  0.00  0.00    +0.000 A 
ATOM     14  C   UNL     1      -2.829  11.853  19.299  0.00  0.00    +0.000 A 
ENDBRANCH   1   9
BRANCH   1  15
ATOM     15  C   UNL     1       0.907   9.844  19.448  0.00  0.00    +0.000 A 
ATOM     16  C   UNL     1       1.444   9.790  18.156  0.00  0.00    +0.000 A 
ATOM     17  C   UNL     1       2.221   8.700  17.747  0.00  0.00    +0.000 A 
ATOM     18  C   UNL     1       2.462   7.643  18.622  0.00  0.00    +0.000 A 
ATOM     19  C   UNL     1       1.949   7.688  19.915  0.00  0.00    +0.000 A 
ATOM     20  C   UNL     1       1.186   8.784  20.326  0.00  0.00    +0.000 A 
ENDBRANCH   1  15
BRANCH   1  21
ATOM     21  C   UNL     1      -0.634  10.962  21.726  0.00  0.00    +0.000 C 
BRANCH  21  22
ATOM     22  C   UNL     1      -1.303  12.086  22.496  0.00  0.00    +0.000 A 
ATOM     23  C   UNL     1      -2.576  11.965  23.065  0.00  0.00    +0.000 A 
ATOM     24  C   UNL     1      -3.186  13.044  23.707  0.00  0.00    +0.000 A 
ATOM     25  C   UNL     1      -2.522  14.259  23.816  0.00  0.00    +0.000 A 
ATOM     26  C   UNL     1      -1.230  14.385  23.310  0.00  0.00    +0.000 A 
ATOM     27  C   UNL     1      -0.623  13.304  22.665  0.00  0.00    +0.000 A 
ENDBRANCH  21  22
ENDBRANCH   1  21
TORSDOF 5
ENDMDL
MODEL 8
REMARK VINA RESULT:      -7.2      0.742      5.277
REMARK  Name = 
REMARK  6 active torsions:
REMARK  status: ('A' for Active; 'I' for Inactive)
REMARK    1  A    between atoms: C_1  and  C_2
REMARK    2  A    between atoms: C_5  and  P_6
REMARK    3  A    between atoms: P_6  and  C_7
REMARK    4  A    between atoms: P_6  and  C_14
REMARK    5  A    between atoms: P_6  and  C_20
REMARK    6  A    between atoms: C_7  and  C_8
REMARK                            x       y       z     vdW  Elec       q    Type
REMARK                         _______ _______ _______ _____ _____    ______ ____
ROOT
ATOM      1  P   UNL     1       0.247  11.017  20.176  0.00  0.00    +0.000 P 
ENDROOT
BRANCH   1   6
ATOM      2  C   UNL     1      -5.003  11.311  17.052  0.00  0.00    +0.000 C 
ATOM      3  C   UNL     1      -3.728  11.257  17.834  0.00  0.00    +0.000 A 
ATOM      4  C   UNL     1      -3.472  12.159  18.870  0.00  0.00    +0.000 A 
ATOM      5  C   UNL     1      -2.272  12.103  19.587  0.00  0.00    +0.000 A 
ATOM      6  C   UNL     1      -1.301  11.144  19.289  0.00  0.00    +0.000 A 
ATOM      7  C   UNL     1      -1.558  10.258  18.230  0.00  0.00    +0.000 A 
ATOM      8  C   UNL     1      -2.755  10.307  17.516  0.00  0.00    +0.000 A 
ENDBRANCH   1   6
BRANCH   1   9
ATOM      9  C   UNL     1       1.172   9.555  19.729  0.00  0.00    +0.000 A 
ATOM     10  C   UNL     1       1.704   9.376  18.444  0.00  0.00    +0.000 A 
ATOM     11  C   UNL     1       2.308   8.173  18.077  0.00  0.00    +0.000 A 
ATOM     12  C   UNL     1       2.385   7.126  18.990  0.00  0.00    +0.000 A 
ATOM     13  C   UNL     1       1.881   7.292  20.278  0.00  0.00    +0.000 A 
ATOM     14  C   UNL     1       1.291   8.502  20.648  0.00  0.00    +0.000 A 
ENDBRANCH   1   9
BRANCH   1  15
ATOM     15  C   UNL     1       1.188  12.488  19.752  0.00  0.00    +0.000 A 
ATOM     16  C   UNL     1       1.118  13.065  18.479  0.00  0.00    +0.000 A 
ATOM     17  C   UNL     1       1.962  14.124  18.123  0.00  0.00    +0.000 A 
ATOM     18  C   UNL     1       2.895  14.613  19.035  0.00  0.00    +0.000 A 
ATOM     19  C   UNL     1       2.967  14.061  20.311  0.00  0.00    +0.000 A 
ATOM     20  C   UNL     1       2.114  13.014  20.668  0.00  0.00    +0.000 A 
ENDBRANCH   1  15
BRANCH   1  21
ATOM     21  C   UNL     1      -0.025  10.961  21.990  0.00  0.00    +0.000 C 
BRANCH  21  22
ATOM     22  C   UNL     1      -1.022  11.886  22.664  0.00  0.00    +0.000 A 
ATOM     23  C   UNL     1      -2.239  11.437  23.191  0.00  0.00    +0.000 A 
ATOM     24  C   UNL     1      -3.160  12.330  23.742  0.00  0.00    +0.000 A 
ATOM     25  C   UNL     1      -2.870  13.687  23.800  0.00  0.00    +0.000 A 
ATOM     26  C   UNL     1      -1.641  14.148  23.336  0.00  0.00    +0.000 A 
ATOM     27  C   UNL     1      -0.721  13.254  22.783  0.00  0.00    +0.000 A 
ENDBRANCH  21  22
ENDBRANCH   1  21
TORSDOF 5
ENDMDL
MODEL 9
REMARK VINA RESULT:      -7.1      0.556      5.211
REMARK  Name = 
REMARK  6 active torsions:
REMARK  status: ('A' for Active; 'I' for Inactive)
REMARK    1  A    between atoms: C_1  and  C_2
REMARK    2  A    between atoms: C_5  and  P_6
REMARK    3  A    between atoms: P_6  and  C_7
REMARK    4  A    between atoms: P_6  and  C_14
REMARK    5  A    between atoms: P_6  and  C_20
REMARK    6  A    between atoms: C_7  and  C_8
REMARK                            x       y       z     vdW  Elec       q    Type
REMARK                         _______ _______ _______ _____ _____    ______ ____
ROOT
ATOM      1  P   UNL     1       0.209  10.998  20.074  0.00  0.00    +0.000 P 
ENDROOT
BRANCH   1   6
ATOM      2  C   UNL     1      -5.136  11.443  17.133  0.00  0.00    +0.000 C 
ATOM      3  C   UNL     1      -3.819  11.316  17.833  0.00  0.00    +0.000 A 
ATOM      4  C   UNL     1      -2.879  10.356  17.449  0.00  0.00    +0.000 A 
ATOM      5  C   UNL     1      -1.657  10.244  18.119  0.00  0.00    +0.000 A 
ATOM      6  C   UNL     1      -1.341  11.089  19.186  0.00  0.00    +0.000 A 
ATOM      7  C   UNL     1      -2.302  12.033  19.580  0.00  0.00    +0.000 A 
ATOM      8  C   UNL     1      -3.521  12.153  18.912  0.00  0.00    +0.000 A 
ENDBRANCH   1   6
BRANCH   1   9
ATOM      9  C   UNL     1       1.186   9.579  19.597  0.00  0.00    +0.000 A 
ATOM     10  C   UNL     1       1.710   9.438  18.305  0.00  0.00    +0.000 A 
ATOM     11  C   UNL     1       2.356   8.264  17.915  0.00  0.00    +0.000 A 
ATOM     12  C   UNL     1       2.485   7.209  18.813  0.00  0.00    +0.000 A 
ATOM     13  C   UNL     1       1.990   7.339  20.108  0.00  0.00    +0.000 A 
ATOM     14  C   UNL     1       1.356   8.520  20.501  0.00  0.00    +0.000 A 
ENDBRANCH   1   9
BRANCH   1  15
ATOM     15  C   UNL     1       1.098  12.510  19.684  0.00  0.00    +0.000 A 
ATOM     16  C   UNL     1       2.142  12.978  20.492  0.00  0.00    +0.000 A 
ATOM     17  C   UNL     1       2.728  14.227  20.253  0.00  0.00    +0.000 A 
ATOM     18  C   UNL     1       2.271  15.028  19.209  0.00  0.00    +0.000 A 
ATOM     19  C   UNL     1       1.245  14.571  18.387  0.00  0.00    +0.000 A 
ATOM     20  C   UNL     1       0.671  13.318  18.619  0.00  0.00    +0.000 A 
ENDBRANCH   1  15
BRANCH   1  21
ATOM     21  C   UNL     1      -0.064  10.893  21.886  0.00  0.00    +0.000 C 
BRANCH  21  22
ATOM     22  C   UNL     1      -1.010  11.845  22.594  0.00  0.00    +0.000 A 
ATOM     23  C   UNL     1      -2.215  11.430  23.171  0.00  0.00    +0.000 A 
ATOM     24  C   UNL     1      -3.091  12.347  23.754  0.00  0.00    +0.000 A 
ATOM     25  C   UNL     1      -2.765  13.697  23.794  0.00  0.00    +0.000 A 
ATOM     26  C   UNL     1      -1.543  14.125  23.280  0.00  0.00    +0.000 A 
ATOM     27  C   UNL     1      -0.670  13.205  22.694  0.00  0.00    +0.000 A 
ENDBRANCH  21  22
ENDBRANCH   1  21
TORSDOF 5
ENDMDL
