MODEL 1
REMARK VINA RESULT:      -6.9      0.000      0.000
REMARK  Name = 
REMARK  5 active torsions:
REMARK  status: ('A' for Active; 'I' for Inactive)
REMARK    1  A    between atoms: C_1  and  N_2
REMARK    2  A    between atoms: C_5  and  C_6
REMARK    3  A    between atoms: C_6  and  O_7
REMARK    4  A    between atoms: O_7  and  C_8
REMARK    5  A    between atoms: N_10  and  C_11
REMARK                            x       y       z     vdW  Elec       q    Type
REMARK                         _______ _______ _______ _____ _____    ______ ____
ROOT
ATOM      1  C   UNL     1       7.717   7.689  17.850  0.00  0.00    +0.000 C 
ATOM      2  O   UNL     1       8.138   6.905  18.686  0.00  0.00    +0.000 OA
ATOM      3  N   UNL     1       6.634   7.510  17.025  0.00  0.00    +0.000 N 
ATOM      4  H   UNL     1       6.517   8.218  16.313  0.00  0.00    +0.000 HD
ENDROOT
BRANCH   3   5
ATOM      5  C   UNL     1       5.740   6.421  17.060  0.00  0.00    +0.000 A 
ATOM      6  C   UNL     1       5.991   5.214  16.396  0.00  0.00    +0.000 A 
ATOM      7  C   UNL     1       5.046   4.185  16.393  0.00  0.00    +0.000 A 
ATOM      8  C   UNL     1       3.844   4.353  17.068  0.00  0.00    +0.000 A 
ATOM      9 CL   UNL     1       2.657   3.110  17.017  0.00  0.00    +0.000 Cl
ATOM     10  C   UNL     1       3.599   5.527  17.777  0.00  0.00    +0.000 A 
ATOM     11  C   UNL     1       4.551   6.556  17.784  0.00  0.00    +0.000 A 
ENDBRANCH   3   5
BRANCH   1  12
ATOM     12  O   UNL     1       8.274   8.910  17.617  0.00  0.00    +0.000 OA
BRANCH  12  13
ATOM     13  C   UNL     1       8.851   9.518  18.783  0.00  0.00    +0.000 C 
BRANCH  13  18
ATOM     14  C   UNL     1      11.356  13.924  16.863  0.00  0.00    +0.000 C 
ATOM     15  N   UNL     1      10.492  13.577  17.977  0.00  0.00    +0.000 NA
ATOM     16  C   UNL     1       9.142  13.210  17.575  0.00  0.00    +0.000 C 
ATOM     17  C   UNL     1       8.721  11.794  17.793  0.00  0.00    +0.000 C 
ATOM     18  C   UNL     1       9.413  10.886  18.495  0.00  0.00    +0.000 C 
ATOM     19  C   UNL     1      10.725  11.259  19.125  0.00  0.00    +0.000 C 
ATOM     20  C   UNL     1      11.129  12.744  18.998  0.00  0.00    +0.000 C 
ENDBRANCH  13  18
ENDBRANCH  12  13
ENDBRANCH   1  12
TORSDOF 4
ENDMDL
MODEL 2
REMARK VINA RESULT:      -6.8      0.443      1.190
REMARK  Name = 
REMARK  5 active torsions:
REMARK  status: ('A' for Active; 'I' for Inactive)
REMARK    1  A    between atoms: C_1  and  N_2
REMARK    2  A    between atoms: C_5  and  C_6
REMARK    3  A    between atoms: C_6  and  O_7
REMARK    4  A    between atoms: O_7  and  C_8
REMARK    5  A    between atoms: N_10  and  C_11
REMARK                            x       y       z     vdW  Elec       q    Type
REMARK                         _______ _______ _______ _____ _____    ______ ____
ROOT
ATOM      1  C   UNL     1       7.876   7.892  17.908  0.00  0.00    +0.000 C 
ATOM      2  O   UNL     1       8.218   7.078  18.751  0.00  0.00    +0.000 OA
ATOM      3  N   UNL     1       6.830   7.774  17.026  0.00  0.00    +0.000 N 
ATOM      4  H   UNL     1       6.781   8.496  16.320  0.00  0.00    +0.000 HD
ENDROOT
BRANCH   3   5
ATOM      5  C   UNL     1       5.888   6.726  16.998  0.00  0.00    +0.000 A 
ATOM      6  C   UNL     1       4.646   6.806  17.640  0.00  0.00    +0.000 A 
ATOM      7  C   UNL     1       3.770   5.718  17.650  0.00  0.00    +0.000 A 
ATOM      8  C   UNL     1       4.126   4.542  17.005  0.00  0.00    +0.000 A 
ATOM      9 CL   UNL     1       3.074   3.183  17.066  0.00  0.00    +0.000 Cl
ATOM     10  C   UNL     1       5.336   4.461  16.317  0.00  0.00    +0.000 A 
ATOM     11  C   UNL     1       6.210   5.557  16.302  0.00  0.00    +0.000 A 
ENDBRANCH   3   5
BRANCH   1  12
ATOM     12  O   UNL     1       8.499   9.090  17.722  0.00  0.00    +0.000 OA
BRANCH  12  13
ATOM     13  C   UNL     1       8.905   9.728  18.943  0.00  0.00    +0.000 C 
BRANCH  13  18
ATOM     14  C   UNL     1      12.136  13.749  17.277  0.00  0.00    +0.000 C 
ATOM     15  N   UNL     1      11.073  13.554  18.247  0.00  0.00    +0.000 NA
ATOM     16  C   UNL     1       9.773  13.297  17.644  0.00  0.00    +0.000 C 
ATOM     17  C   UNL     1       9.176  11.944  17.848  0.00  0.00    +0.000 C 
ATOM     18  C   UNL     1       9.647  11.016  18.694  0.00  0.00    +0.000 C 
ATOM     19  C   UNL     1      10.872  11.296  19.515  0.00  0.00    +0.000 C 
ATOM     20  C   UNL     1      11.446  12.725  19.394  0.00  0.00    +0.000 C 
ENDBRANCH  13  18
ENDBRANCH  12  13
ENDBRANCH   1  12
TORSDOF 4
ENDMDL
MODEL 3
REMARK VINA RESULT:      -6.8      4.696      6.880
REMARK  Name = 
REMARK  5 active torsions:
REMARK  status: ('A' for Active; 'I' for Inactive)
REMARK    1  A    between atoms: C_1  and  N_2
REMARK    2  A    between atoms: C_5  and  C_6
REMARK    3  A    between atoms: C_6  and  O_7
REMARK    4  A    between atoms: O_7  and  C_8
REMARK    5  A    between atoms: N_10  and  C_11
REMARK                            x       y       z     vdW  Elec       q    Type
REMARK                         _______ _______ _______ _____ _____    ______ ____
ROOT
ATOM      1  C   UNL     1       2.706   5.133  19.183  0.00  0.00    +0.000 C 
ATOM      2  O   UNL     1       1.865   4.891  18.331  0.00  0.00    +0.000 OA
ATOM      3  N   UNL     1       2.960   6.351  19.766  0.00  0.00    +0.000 N 
ATOM      4  H   UNL     1       3.778   6.379  20.359  0.00  0.00    +0.000 HD
ENDROOT
BRANCH   3   5
ATOM      5  C   UNL     1       2.226   7.536  19.558  0.00  0.00    +0.000 A 
ATOM      6  C   UNL     1       1.458   8.137  20.563  0.00  0.00    +0.000 A 
ATOM      7  C   UNL     1       0.686   9.271  20.297  0.00  0.00    +0.000 A 
ATOM      8  C   UNL     1       0.687   9.820  19.021  0.00  0.00    +0.000 A 
ATOM      9 CL   UNL     1      -0.307  11.180  18.678  0.00  0.00    +0.000 Cl
ATOM     10  C   UNL     1       1.485   9.265  18.022  0.00  0.00    +0.000 A 
ATOM     11  C   UNL     1       2.265   8.132  18.294  0.00  0.00    +0.000 A 
ENDBRANCH   3   5
BRANCH   1  12
ATOM     12  O   UNL     1       3.534   4.190  19.712  0.00  0.00    +0.000 OA
BRANCH  12  13
ATOM     13  C   UNL     1       4.434   3.606  18.757  0.00  0.00    +0.000 C 
BRANCH  13  18
ATOM     14  C   UNL     1       7.577   7.817  17.428  0.00  0.00    +0.000 C 
ATOM     15  N   UNL     1       7.700   6.374  17.538  0.00  0.00    +0.000 NA
ATOM     16  C   UNL     1       7.592   5.882  18.904  0.00  0.00    +0.000 C 
ATOM     17  C   UNL     1       6.402   5.046  19.240  0.00  0.00    +0.000 C 
ATOM     18  C   UNL     1       5.529   4.557  18.348  0.00  0.00    +0.000 C 
ATOM     19  C   UNL     1       5.702   4.848  16.885  0.00  0.00    +0.000 C 
ATOM     20  C   UNL     1       6.982   5.626  16.506  0.00  0.00    +0.000 C 
ENDBRANCH  13  18
ENDBRANCH  12  13
ENDBRANCH   1  12
TORSDOF 4
ENDMDL
MODEL 4
REMARK VINA RESULT:      -6.7      4.034      8.585
REMARK  Name = 
REMARK  5 active torsions:
REMARK  status: ('A' for Active; 'I' for Inactive)
REMARK    1  A    between atoms: C_1  and  N_2
REMARK    2  A    between atoms: C_5  and  C_6
REMARK    3  A    between atoms: C_6  and  O_7
REMARK    4  A    between atoms: O_7  and  C_8
REMARK    5  A    between atoms: N_10  and  C_11
REMARK                            x       y       z     vdW  Elec       q    Type
REMARK                         _______ _______ _______ _____ _____    ______ ____
ROOT
ATOM      1  C   UNL     1       9.242  10.099  19.189  0.00  0.00    +0.000 C 
ATOM      2  O   UNL     1       9.313  10.577  20.311  0.00  0.00    +0.000 OA
ATOM      3  N   UNL     1       9.562  10.722  18.008  0.00  0.00    +0.000 N 
ATOM      4  H   UNL     1       9.318  10.207  17.173  0.00  0.00    +0.000 HD
ENDROOT
BRANCH   3   5
ATOM      5  C   UNL     1      10.130  12.005  17.877  0.00  0.00    +0.000 A 
ATOM      6  C   UNL     1       9.365  13.178  17.899  0.00  0.00    +0.000 A 
ATOM      7  C   UNL     1       9.957  14.427  17.692  0.00  0.00    +0.000 A 
ATOM      8  C   UNL     1      11.326  14.511  17.474  0.00  0.00    +0.000 A 
ATOM      9 CL   UNL     1      12.046  16.041  17.162  0.00  0.00    +0.000 Cl
ATOM     10  C   UNL     1      12.110  13.360  17.500  0.00  0.00    +0.000 A 
ATOM     11  C   UNL     1      11.515  12.109  17.715  0.00  0.00    +0.000 A 
ENDBRANCH   3   5
BRANCH   1  12
ATOM     12  O   UNL     1       8.834   8.824  18.940  0.00  0.00    +0.000 OA
BRANCH  12  13
ATOM     13  C   UNL     1       7.950   8.706  17.815  0.00  0.00    +0.000 C 
BRANCH  13  18
ATOM     14  C   UNL     1       5.030   4.165  18.289  0.00  0.00    +0.000 C 
ATOM     15  N   UNL     1       6.148   4.648  17.499  0.00  0.00    +0.000 NA
ATOM     16  C   UNL     1       5.790   5.711  16.571  0.00  0.00    +0.000 C 
ATOM     17  C   UNL     1       6.365   7.066  16.826  0.00  0.00    +0.000 C 
ATOM     18  C   UNL     1       7.327   7.337  17.719  0.00  0.00    +0.000 C 
ATOM     19  C   UNL     1       7.900   6.238  18.568  0.00  0.00    +0.000 C 
ATOM     20  C   UNL     1       7.392   4.815  18.251  0.00  0.00    +0.000 C 
ENDBRANCH  13  18
ENDBRANCH  12  13
ENDBRANCH   1  12
TORSDOF 4
ENDMDL
MODEL 5
REMARK VINA RESULT:      -6.6      0.638      1.765
REMARK  Name = 
REMARK  5 active torsions:
REMARK  status: ('A' for Active; 'I' for Inactive)
REMARK    1  A    between atoms: C_1  and  N_2
REMARK    2  A    between atoms: C_5  and  C_6
REMARK    3  A    between atoms: C_6  and  O_7
REMARK    4  A    between atoms: O_7  and  C_8
REMARK    5  A    between atoms: N_10  and  C_11
REMARK                            x       y       z     vdW  Elec       q    Type
REMARK                         _______ _______ _______ _____ _____    ______ ____
ROOT
ATOM      1  C   UNL     1       7.649   7.601  17.852  0.00  0.00    +0.000 C 
ATOM      2  O   UNL     1       8.059   6.716  18.587  0.00  0.00    +0.000 OA
ATOM      3  N   UNL     1       6.520   7.566  17.071  0.00  0.00    +0.000 N 
ATOM      4  H   UNL     1       6.415   8.345  16.436  0.00  0.00    +0.000 HD
ENDROOT
BRANCH   3   5
ATOM      5  C   UNL     1       5.564   6.532  17.047  0.00  0.00    +0.000 A 
ATOM      6  C   UNL     1       4.362   6.595  17.764  0.00  0.00    +0.000 A 
ATOM      7  C   UNL     1       3.473   5.517  17.773  0.00  0.00    +0.000 A 
ATOM      8  C   UNL     1       3.776   4.369  17.053  0.00  0.00    +0.000 A 
ATOM      9 CL   UNL     1       2.710   3.021  17.111  0.00  0.00    +0.000 Cl
ATOM     10  C   UNL     1       4.943   4.308  16.293  0.00  0.00    +0.000 A 
ATOM     11  C   UNL     1       5.830   5.394  16.279  0.00  0.00    +0.000 A 
ENDBRANCH   3   5
BRANCH   1  12
ATOM     12  O   UNL     1       8.269   8.806  17.707  0.00  0.00    +0.000 OA
BRANCH  12  13
ATOM     13  C   UNL     1       8.959   9.250  18.886  0.00  0.00    +0.000 C 
BRANCH  13  18
ATOM     14  C   UNL     1       9.541  14.613  19.403  0.00  0.00    +0.000 C 
ATOM     15  N   UNL     1      10.122  13.538  18.619  0.00  0.00    +0.000 NA
ATOM     16  C   UNL     1      10.893  12.590  19.411  0.00  0.00    +0.000 C 
ATOM     17  C   UNL     1      10.362  11.200  19.525  0.00  0.00    +0.000 C 
ATOM     18  C   UNL     1       9.342  10.705  18.809  0.00  0.00    +0.000 C 
ATOM     19  C   UNL     1       8.632  11.572  17.809  0.00  0.00    +0.000 C 
ATOM     20  C   UNL     1       9.230  12.981  17.603  0.00  0.00    +0.000 C 
ENDBRANCH  13  18
ENDBRANCH  12  13
ENDBRANCH   1  12
TORSDOF 4
ENDMDL
MODEL 6
REMARK VINA RESULT:      -6.6      4.855      6.969
REMARK  Name = 
REMARK  5 active torsions:
REMARK  status: ('A' for Active; 'I' for Inactive)
REMARK    1  A    between atoms: C_1  and  N_2
REMARK    2  A    between atoms: C_5  and  C_6
REMARK    3  A    between atoms: C_6  and  O_7
REMARK    4  A    between atoms: O_7  and  C_8
REMARK    5  A    between atoms: N_10  and  C_11
REMARK                            x       y       z     vdW  Elec       q    Type
REMARK                         _______ _______ _______ _____ _____    ______ ____
ROOT
ATOM      1  C   UNL     1       2.472   4.914  18.503  0.00  0.00    +0.000 C 
ATOM      2  O   UNL     1       1.555   4.832  17.701  0.00  0.00    +0.000 OA
ATOM      3  N   UNL     1       2.890   6.045  19.162  0.00  0.00    +0.000 N 
ATOM      4  H   UNL     1       3.745   5.940  19.691  0.00  0.00    +0.000 HD
ENDROOT
BRANCH   3   5
ATOM      5  C   UNL     1       2.270   7.309  19.108  0.00  0.00    +0.000 A 
ATOM      6  C   UNL     1       2.258   8.099  17.951  0.00  0.00    +0.000 A 
ATOM      7  C   UNL     1       1.697   9.378  17.960  0.00  0.00    +0.000 A 
ATOM      8  C   UNL     1       1.131   9.874  19.127  0.00  0.00    +0.000 A 
ATOM      9 CL   UNL     1       0.493  11.470  19.153  0.00  0.00    +0.000 Cl
ATOM     10  C   UNL     1       1.088   9.082  20.274  0.00  0.00    +0.000 A 
ATOM     11  C   UNL     1       1.645   7.796  20.261  0.00  0.00    +0.000 A 
ENDBRANCH   3   5
BRANCH   1  12
ATOM     12  O   UNL     1       3.233   3.852  18.888  0.00  0.00    +0.000 OA
BRANCH  12  13
ATOM     13  C   UNL     1       4.130   3.381  17.872  0.00  0.00    +0.000 C 
BRANCH  13  18
ATOM     14  C   UNL     1       7.555   7.554  17.397  0.00  0.00    +0.000 C 
ATOM     15  N   UNL     1       7.579   6.115  17.205  0.00  0.00    +0.000 NA
ATOM     16  C   UNL     1       7.437   5.360  18.441  0.00  0.00    +0.000 C 
ATOM     17  C   UNL     1       6.192   4.554  18.614  0.00  0.00    +0.000 C 
ATOM     18  C   UNL     1       5.288   4.320  17.652  0.00  0.00    +0.000 C 
ATOM     19  C   UNL     1       5.482   4.896  16.279  0.00  0.00    +0.000 C 
ATOM     20  C   UNL     1       6.812   5.647  16.051  0.00  0.00    +0.000 C 
ENDBRANCH  13  18
ENDBRANCH  12  13
ENDBRANCH   1  12
TORSDOF 4
ENDMDL
MODEL 7
REMARK VINA RESULT:      -6.5      4.010      8.458
REMARK  Name = 
REMARK  5 active torsions:
REMARK  status: ('A' for Active; 'I' for Inactive)
REMARK    1  A    between atoms: C_1  and  N_2
REMARK    2  A    between atoms: C_5  and  C_6
REMARK    3  A    between atoms: C_6  and  O_7
REMARK    4  A    between atoms: O_7  and  C_8
REMARK    5  A    between atoms: N_10  and  C_11
REMARK                            x       y       z     vdW  Elec       q    Type
REMARK                         _______ _______ _______ _____ _____    ______ ____
ROOT
ATOM      1  C   UNL     1       9.190  10.182  19.162  0.00  0.00    +0.000 C 
ATOM      2  O   UNL     1       9.431  10.622  20.276  0.00  0.00    +0.000 OA
ATOM      3  N   UNL     1       9.263  10.867  17.974  0.00  0.00    +0.000 N 
ATOM      4  H   UNL     1       8.904  10.368  17.171  0.00  0.00    +0.000 HD
ENDROOT
BRANCH   3   5
ATOM      5  C   UNL     1       9.729  12.186  17.807  0.00  0.00    +0.000 A 
ATOM      6  C   UNL     1      11.028  12.481  17.373  0.00  0.00    +0.000 A 
ATOM      7  C   UNL     1      11.475  13.802  17.291  0.00  0.00    +0.000 A 
ATOM      8  C   UNL     1      10.620  14.841  17.632  0.00  0.00    +0.000 A 
ATOM      9 CL   UNL     1      11.188  16.463  17.586  0.00  0.00    +0.000 Cl
ATOM     10  C   UNL     1       9.308  14.569  18.016  0.00  0.00    +0.000 A 
ATOM     11  C   UNL     1       8.859  13.243  18.091  0.00  0.00    +0.000 A 
ENDBRANCH   3   5
BRANCH   1  12
ATOM     12  O   UNL     1       8.813   8.894  18.928  0.00  0.00    +0.000 OA
BRANCH  12  13
ATOM     13  C   UNL     1       7.947   8.740  17.793  0.00  0.00    +0.000 C 
BRANCH  13  18
ATOM     14  C   UNL     1       5.096   4.178  18.458  0.00  0.00    +0.000 C 
ATOM     15  N   UNL     1       6.139   4.677  17.580  0.00  0.00    +0.000 NA
ATOM     16  C   UNL     1       5.698   5.751  16.702  0.00  0.00    +0.000 C 
ATOM     17  C   UNL     1       6.289   7.105  16.923  0.00  0.00    +0.000 C 
ATOM     18  C   UNL     1       7.323   7.369  17.734  0.00  0.00    +0.000 C 
ATOM     19  C   UNL     1       7.972   6.262  18.514  0.00  0.00    +0.000 C 
ATOM     20  C   UNL     1       7.443   4.840  18.224  0.00  0.00    +0.000 C 
ENDBRANCH  13  18
ENDBRANCH  12  13
ENDBRANCH   1  12
TORSDOF 4
ENDMDL
MODEL 8
REMARK VINA RESULT:      -6.4      6.031      8.597
REMARK  Name = 
REMARK  5 active torsions:
REMARK  status: ('A' for Active; 'I' for Inactive)
REMARK    1  A    between atoms: C_1  and  N_2
REMARK    2  A    between atoms: C_5  and  C_6
REMARK    3  A    between atoms: C_6  and  O_7
REMARK    4  A    between atoms: O_7  and  C_8
REMARK    5  A    between atoms: N_10  and  C_11
REMARK                            x       y       z     vdW  Elec       q    Type
REMARK                         _______ _______ _______ _____ _____    ______ ____
ROOT
ATOM      1  C   UNL     1       4.420   6.414  17.225  0.00  0.00    +0.000 C 
ATOM      2  O   UNL     1       5.288   7.196  17.581  0.00  0.00    +0.000 OA
ATOM      3  N   UNL     1       3.098   6.428  17.596  0.00  0.00    +0.000 N 
ATOM      4  H   UNL     1       2.562   5.625  17.296  0.00  0.00    +0.000 HD
ENDROOT
BRANCH   3   5
ATOM      5  C   UNL     1       2.471   7.411  18.386  0.00  0.00    +0.000 A 
ATOM      6  C   UNL     1       2.235   7.246  19.757  0.00  0.00    +0.000 A 
ATOM      7  C   UNL     1       1.545   8.214  20.490  0.00  0.00    +0.000 A 
ATOM      8  C   UNL     1       1.095   9.365  19.857  0.00  0.00    +0.000 A 
ATOM      9 CL   UNL     1       0.195  10.530  20.745  0.00  0.00    +0.000 Cl
ATOM     10  C   UNL     1       1.366   9.571  18.505  0.00  0.00    +0.000 A 
ATOM     11  C   UNL     1       2.065   8.601  17.773  0.00  0.00    +0.000 A 
ENDBRANCH   3   5
BRANCH   1  12
ATOM     12  O   UNL     1       4.644   5.386  16.360  0.00  0.00    +0.000 OA
BRANCH  12  13
ATOM     13  C   UNL     1       5.181   4.209  16.983  0.00  0.00    +0.000 C 
BRANCH  13  18
ATOM     14  C   UNL     1       1.212   2.894  20.432  0.00  0.00    +0.000 C 
ATOM     15  N   UNL     1       2.287   2.224  19.721  0.00  0.00    +0.000 NA
ATOM     16  C   UNL     1       2.104   2.200  18.277  0.00  0.00    +0.000 C 
ATOM     17  C   UNL     1       3.068   2.985  17.451  0.00  0.00    +0.000 C 
ATOM     18  C   UNL     1       4.193   3.552  17.911  0.00  0.00    +0.000 C 
ATOM     19  C   UNL     1       4.557   3.433  19.363  0.00  0.00    +0.000 C 
ATOM     20  C   UNL     1       3.627   2.541  20.215  0.00  0.00    +0.000 C 
ENDBRANCH  13  18
ENDBRANCH  12  13
ENDBRANCH   1  12
TORSDOF 4
ENDMDL
MODEL 9
REMARK VINA RESULT:      -6.4      6.170      7.794
REMARK  Name = 
REMARK  5 active torsions:
REMARK  status: ('A' for Active; 'I' for Inactive)
REMARK    1  A    between atoms: C_1  and  N_2
REMARK    2  A    between atoms: C_5  and  C_6
REMARK    3  A    between atoms: C_6  and  O_7
REMARK    4  A    between atoms: O_7  and  C_8
REMARK    5  A    between atoms: N_10  and  C_11
REMARK                            x       y       z     vdW  Elec       q    Type
REMARK                         _______ _______ _______ _____ _____    ______ ____
ROOT
ATOM      1  C   UNL     1       2.184   4.891  20.221  0.00  0.00    +0.000 C 
ATOM      2  O   UNL     1       1.033   4.634  19.904  0.00  0.00    +0.000 OA
ATOM      3  N   UNL     1       2.792   6.122  20.186  0.00  0.00    +0.000 N 
ATOM      4  H   UNL     1       3.787   6.113  20.367  0.00  0.00    +0.000 HD
ENDROOT
BRANCH   3   5
ATOM      5  C   UNL     1       2.167   7.344  19.868  0.00  0.00    +0.000 A 
ATOM      6  C   UNL     1       1.405   8.068  20.794  0.00  0.00    +0.000 A 
ATOM      7  C   UNL     1       0.740   9.239  20.419  0.00  0.00    +0.000 A 
ATOM      8  C   UNL     1       0.843   9.700  19.114  0.00  0.00    +0.000 A 
ATOM      9 CL   UNL     1      -0.021  11.108  18.637  0.00  0.00    +0.000 Cl
ATOM     10  C   UNL     1       1.639   9.021  18.192  0.00  0.00    +0.000 A 
ATOM     11  C   UNL     1       2.311   7.851  18.573  0.00  0.00    +0.000 A 
ENDBRANCH   3   5
BRANCH   1  12
ATOM     12  O   UNL     1       3.061   3.960  20.690  0.00  0.00    +0.000 OA
BRANCH  12  13
ATOM     13  C   UNL     1       3.504   3.026  19.693  0.00  0.00    +0.000 C 
BRANCH  13  18
ATOM     14  C   UNL     1       7.068   4.388  15.844  0.00  0.00    +0.000 C 
ATOM     15  N   UNL     1       5.972   5.010  16.565  0.00  0.00    +0.000 NA
ATOM     16  C   UNL     1       4.670   4.437  16.254  0.00  0.00    +0.000 C 
ATOM     17  C   UNL     1       3.968   3.699  17.345  0.00  0.00    +0.000 C 
ATOM     18  C   UNL     1       4.348   3.682  18.631  0.00  0.00    +0.000 C 
ATOM     19  C   UNL     1       5.573   4.435  19.065  0.00  0.00    +0.000 C 
ATOM     20  C   UNL     1       6.256   5.287  17.973  0.00  0.00    +0.000 C 
ENDBRANCH  13  18
ENDBRANCH  12  13
ENDBRANCH   1  12
TORSDOF 4
ENDMDL
