MODEL 1
REMARK VINA RESULT:      -9.5      0.000      0.000
REMARK  Name = 
REMARK  7 active torsions:
REMARK  status: ('A' for Active; 'I' for Inactive)
REMARK    1  A    between atoms: C_1  and  O_2
REMARK    2  A    between atoms: O_2  and  C_3
REMARK    3  A    between atoms: C_6  and  C_7
REMARK    4  A    between atoms: C_13  and  C_14
REMARK    5  A    between atoms: C_23  and  C_24
REMARK    6  A    between atoms: C_24  and  C_25
REMARK    7  A    between atoms: C_24  and  C_26
REMARK                            x       y       z     vdW  Elec       q    Type
REMARK                         _______ _______ _______ _____ _____    ______ ____
ROOT
ATOM      1  C   UNL     1       2.435   5.852  19.602  0.00  0.00    +0.000 C 
ATOM      2  N   UNL     1       3.655   5.507  19.264  0.00  0.00    +0.000 NA
ATOM      3  N   UNL     1       4.035   4.226  19.592  0.00  0.00    +0.000 N 
ATOM      4  C   UNL     1       3.516   3.386  20.544  0.00  0.00    +0.000 A 
ATOM      5  N   UNL     1       4.144   2.238  20.554  0.00  0.00    +0.000 NA
ATOM      6  N   UNL     1       5.139   2.319  19.598  0.00  0.00    +0.000 NA
ATOM      7  C   UNL     1       5.087   3.521  19.052  0.00  0.00    +0.000 A 
ATOM      8  S   UNL     1       2.156   3.885  21.477  0.00  0.00    +0.000 S 
ATOM      9  C   UNL     1       1.361   4.867  20.130  0.00  0.00    +0.000 C 
ENDROOT
BRANCH   7  10
ATOM     10  C   UNL     1       5.979   4.014  18.062  0.00  0.00    +0.000 A 
ATOM     11  N   UNL     1       7.318   4.278  18.279  0.00  0.00    +0.000 N 
ATOM     12  N   UNL     1       7.999   4.660  17.164  0.00  0.00    +0.000 NA
ATOM     13  C   UNL     1       7.038   4.659  16.249  0.00  0.00    +0.000 A 
ATOM     14  C   UNL     1       5.788   4.298  16.741  0.00  0.00    +0.000 A 
ATOM     15  C   UNL     1       4.752   4.294  15.699  0.00  0.00    +0.000 C 
ATOM     16  C   UNL     1       5.622   4.348  14.397  0.00  0.00    +0.000 C 
ATOM     17  C   UNL     1       7.026   4.922  14.800  0.00  0.00    +0.000 C 
ATOM     18  H   UNL     1       7.825   4.190  19.156  0.00  0.00    +0.000 HD
ENDBRANCH   7  10
BRANCH   1  22
ATOM     19  C   UNL     1       1.264   9.945  18.929  0.00  0.00    +0.000 A 
ATOM     20  C   UNL     1       1.056   9.358  20.175  0.00  0.00    +0.000 A 
ATOM     21  C   UNL     1       1.477   8.053  20.422  0.00  0.00    +0.000 A 
ATOM     22  C   UNL     1       2.059   7.292  19.409  0.00  0.00    +0.000 A 
ATOM     23  C   UNL     1       2.261   7.881  18.152  0.00  0.00    +0.000 A 
ATOM     24  C   UNL     1       1.869   9.205  17.916  0.00  0.00    +0.000 A 
BRANCH  19  26
ATOM     25  C   UNL     1      -0.560  11.412  19.192  0.00  0.00    +0.000 C 
ATOM     26  O   UNL     1       0.796  11.221  18.809  0.00  0.00    +0.000 OA
ENDBRANCH  19  26
ENDBRANCH   1  22
BRANCH   9  27
ATOM     27  C   UNL     1       0.794   3.933  19.014  0.00  0.00    +0.000 C 
ATOM     28  C   UNL     1       1.488   4.154  17.662  0.00  0.00    +0.000 C 
ATOM     29  C   UNL     1       0.888   2.444  19.360  0.00  0.00    +0.000 C 
ENDBRANCH   9  27
TORSDOF 4
ENDMDL
MODEL 2
REMARK VINA RESULT:      -9.3      0.429      1.004
REMARK  Name = 
REMARK  7 active torsions:
REMARK  status: ('A' for Active; 'I' for Inactive)
REMARK    1  A    between atoms: C_1  and  O_2
REMARK    2  A    between atoms: O_2  and  C_3
REMARK    3  A    between atoms: C_6  and  C_7
REMARK    4  A    between atoms: C_13  and  C_14
REMARK    5  A    between atoms: C_23  and  C_24
REMARK    6  A    between atoms: C_24  and  C_25
REMARK    7  A    between atoms: C_24  and  C_26
REMARK                            x       y       z     vdW  Elec       q    Type
REMARK                         _______ _______ _______ _____ _____    ______ ____
ROOT
ATOM      1  C   UNL     1       2.340   5.755  19.701  0.00  0.00    +0.000 C 
ATOM      2  N   UNL     1       3.568   5.445  19.361  0.00  0.00    +0.000 NA
ATOM      3  N   UNL     1       3.977   4.168  19.668  0.00  0.00    +0.000 N 
ATOM      4  C   UNL     1       3.475   3.299  20.602  0.00  0.00    +0.000 A 
ATOM      5  N   UNL     1       4.129   2.166  20.594  0.00  0.00    +0.000 NA
ATOM      6  N   UNL     1       5.126   2.287  19.643  0.00  0.00    +0.000 NA
ATOM      7  C   UNL     1       5.047   3.498  19.118  0.00  0.00    +0.000 A 
ATOM      8  S   UNL     1       2.101   3.748  21.539  0.00  0.00    +0.000 S 
ATOM      9  C   UNL     1       1.288   4.737  20.207  0.00  0.00    +0.000 C 
ENDROOT
BRANCH   7  10
ATOM     10  C   UNL     1       5.930   4.029  18.141  0.00  0.00    +0.000 A 
ATOM     11  N   UNL     1       7.249   4.367  18.381  0.00  0.00    +0.000 N 
ATOM     12  N   UNL     1       7.930   4.776  17.276  0.00  0.00    +0.000 NA
ATOM     13  C   UNL     1       6.989   4.715  16.343  0.00  0.00    +0.000 A 
ATOM     14  C   UNL     1       5.751   4.291  16.814  0.00  0.00    +0.000 A 
ATOM     15  C   UNL     1       4.737   4.223  15.752  0.00  0.00    +0.000 C 
ATOM     16  C   UNL     1       5.628   4.312  14.467  0.00  0.00    +0.000 C 
ATOM     17  C   UNL     1       6.992   4.964  14.891  0.00  0.00    +0.000 C 
ATOM     18  H   UNL     1       7.742   4.314  19.268  0.00  0.00    +0.000 HD
ENDBRANCH   7  10
BRANCH   1  22
ATOM     19  C   UNL     1       1.260   9.913  19.337  0.00  0.00    +0.000 A 
ATOM     20  C   UNL     1       1.807   9.239  18.249  0.00  0.00    +0.000 A 
ATOM     21  C   UNL     1       2.112   7.881  18.335  0.00  0.00    +0.000 A 
ATOM     22  C   UNL     1       1.931   7.190  19.533  0.00  0.00    +0.000 A 
ATOM     23  C   UNL     1       1.388   7.872  20.632  0.00  0.00    +0.000 A 
ATOM     24  C   UNL     1       1.049   9.226  20.532  0.00  0.00    +0.000 A 
BRANCH  19  26
ATOM     25  C   UNL     1       1.005  12.046  20.301  0.00  0.00    +0.000 C 
ATOM     26  O   UNL     1       1.017  11.239  19.130  0.00  0.00    +0.000 OA
ENDBRANCH  19  26
ENDBRANCH   1  22
BRANCH   9  27
ATOM     27  C   UNL     1       0.746   3.810  19.072  0.00  0.00    +0.000 C 
ATOM     28  C   UNL     1       1.424   4.087  17.722  0.00  0.00    +0.000 C 
ATOM     29  C   UNL     1       0.894   2.317  19.382  0.00  0.00    +0.000 C 
ENDBRANCH   9  27
TORSDOF 4
ENDMDL
MODEL 3
REMARK VINA RESULT:      -7.8      1.208      1.627
REMARK  Name = 
REMARK  7 active torsions:
REMARK  status: ('A' for Active; 'I' for Inactive)
REMARK    1  A    between atoms: C_1  and  O_2
REMARK    2  A    between atoms: O_2  and  C_3
REMARK    3  A    between atoms: C_6  and  C_7
REMARK    4  A    between atoms: C_13  and  C_14
REMARK    5  A    between atoms: C_23  and  C_24
REMARK    6  A    between atoms: C_24  and  C_25
REMARK    7  A    between atoms: C_24  and  C_26
REMARK                            x       y       z     vdW  Elec       q    Type
REMARK                         _______ _______ _______ _____ _____    ______ ____
ROOT
ATOM      1  C   UNL     1       2.277   5.671  20.010  0.00  0.00    +0.000 C 
ATOM      2  N   UNL     1       3.469   5.417  19.524  0.00  0.00    +0.000 NA
ATOM      3  N   UNL     1       3.923   4.127  19.679  0.00  0.00    +0.000 N 
ATOM      4  C   UNL     1       3.529   3.173  20.581  0.00  0.00    +0.000 A 
ATOM      5  N   UNL     1       4.194   2.059  20.412  0.00  0.00    +0.000 NA
ATOM      6  N   UNL     1       5.088   2.280  19.380  0.00  0.00    +0.000 NA
ATOM      7  C   UNL     1       4.941   3.529  18.971  0.00  0.00    +0.000 A 
ATOM      8  S   UNL     1       2.251   3.513  21.685  0.00  0.00    +0.000 S 
ATOM      9  C   UNL     1       1.295   4.591  20.529  0.00  0.00    +0.000 C 
ENDROOT
BRANCH   7  10
ATOM     10  C   UNL     1       5.714   4.158  17.960  0.00  0.00    +0.000 A 
ATOM     11  N   UNL     1       5.674   3.818  16.620  0.00  0.00    +0.000 N 
ATOM     12  N   UNL     1       6.435   4.613  15.819  0.00  0.00    +0.000 NA
ATOM     13  C   UNL     1       6.979   5.441  16.702  0.00  0.00    +0.000 A 
ATOM     14  C   UNL     1       6.596   5.197  18.017  0.00  0.00    +0.000 A 
ATOM     15  C   UNL     1       7.206   6.141  18.965  0.00  0.00    +0.000 C 
ATOM     16  C   UNL     1       7.740   7.251  17.998  0.00  0.00    +0.000 C 
ATOM     17  C   UNL     1       7.878   6.601  16.575  0.00  0.00    +0.000 C 
ATOM     18  H   UNL     1       5.129   3.074  16.194  0.00  0.00    +0.000 HD
ENDBRANCH   7  10
BRANCH   1  22
ATOM     19  C   UNL     1       0.918   9.759  19.874  0.00  0.00    +0.000 A 
ATOM     20  C   UNL     1       0.726   9.001  21.026  0.00  0.00    +0.000 A 
ATOM     21  C   UNL     1       1.207   7.694  21.103  0.00  0.00    +0.000 A 
ATOM     22  C   UNL     1       1.835   7.105  20.006  0.00  0.00    +0.000 A 
ATOM     23  C   UNL     1       2.020   7.867  18.843  0.00  0.00    +0.000 A 
ATOM     24  C   UNL     1       1.568   9.191  18.780  0.00  0.00    +0.000 A 
BRANCH  19  26
ATOM     25  C   UNL     1      -0.838  11.188  19.223  0.00  0.00    +0.000 C 
ATOM     26  O   UNL     1       0.391  11.017  19.919  0.00  0.00    +0.000 OA
ENDBRANCH  19  26
ENDBRANCH   1  22
BRANCH   9  27
ATOM     27  C   UNL     1       0.653   3.751  19.379  0.00  0.00    +0.000 C 
ATOM     28  C   UNL     1       1.236   4.108  18.004  0.00  0.00    +0.000 C 
ATOM     29  C   UNL     1       0.793   2.239  19.578  0.00  0.00    +0.000 C 
ENDBRANCH   9  27
TORSDOF 4
ENDMDL
MODEL 4
REMARK VINA RESULT:      -7.8      4.367      7.459
REMARK  Name = 
REMARK  7 active torsions:
REMARK  status: ('A' for Active; 'I' for Inactive)
REMARK    1  A    between atoms: C_1  and  O_2
REMARK    2  A    between atoms: O_2  and  C_3
REMARK    3  A    between atoms: C_6  and  C_7
REMARK    4  A    between atoms: C_13  and  C_14
REMARK    5  A    between atoms: C_23  and  C_24
REMARK    6  A    between atoms: C_24  and  C_25
REMARK    7  A    between atoms: C_24  and  C_26
REMARK                            x       y       z     vdW  Elec       q    Type
REMARK                         _______ _______ _______ _____ _____    ______ ____
ROOT
ATOM      1  C   UNL     1       0.033  12.821  20.146  0.00  0.00    +0.000 C 
ATOM      2  N   UNL     1       0.721  11.718  19.972  0.00  0.00    +0.000 NA
ATOM      3  N   UNL     1       0.336  10.638  20.733  0.00  0.00    +0.000 N 
ATOM      4  C   UNL     1      -0.370  10.614  21.907  0.00  0.00    +0.000 A 
ATOM      5  N   UNL     1      -0.547   9.389  22.328  0.00  0.00    +0.000 NA
ATOM      6  N   UNL     1       0.090   8.560  21.423  0.00  0.00    +0.000 NA
ATOM      7  C   UNL     1       0.642   9.317  20.491  0.00  0.00    +0.000 A 
ATOM      8  S   UNL     1      -0.959  12.086  22.583  0.00  0.00    +0.000 S 
ATOM      9  C   UNL     1      -1.280  12.914  20.963  0.00  0.00    +0.000 C 
ENDROOT
BRANCH   7  10
ATOM     10  C   UNL     1       1.431   8.845  19.409  0.00  0.00    +0.000 A 
ATOM     11  N   UNL     1       1.698   9.569  18.262  0.00  0.00    +0.000 N 
ATOM     12  N   UNL     1       2.548   8.951  17.397  0.00  0.00    +0.000 NA
ATOM     13  C   UNL     1       2.779   7.804  18.021  0.00  0.00    +0.000 A 
ATOM     14  C   UNL     1       2.110   7.675  19.234  0.00  0.00    +0.000 A 
ATOM     15  C   UNL     1       2.401   6.399  19.904  0.00  0.00    +0.000 C 
ATOM     16  C   UNL     1       3.650   5.904  19.100  0.00  0.00    +0.000 C 
ATOM     17  C   UNL     1       3.636   6.646  17.716  0.00  0.00    +0.000 C 
ATOM     18  H   UNL     1       1.350  10.496  18.029  0.00  0.00    +0.000 HD
ENDBRANCH   7  10
BRANCH   1  22
ATOM     19  C   UNL     1       1.444  16.446  18.288  0.00  0.00    +0.000 A 
ATOM     20  C   UNL     1       2.327  15.395  18.521  0.00  0.00    +0.000 A 
ATOM     21  C   UNL     1       1.874  14.197  19.073  0.00  0.00    +0.000 A 
ATOM     22  C   UNL     1       0.541  14.054  19.456  0.00  0.00    +0.000 A 
ATOM     23  C   UNL     1      -0.346  15.116  19.229  0.00  0.00    +0.000 A 
ATOM     24  C   UNL     1       0.104  16.305  18.642  0.00  0.00    +0.000 A 
BRANCH  19  26
ATOM     25  C   UNL     1       1.116  18.439  17.078  0.00  0.00    +0.000 C 
ATOM     26  O   UNL     1       2.012  17.567  17.756  0.00  0.00    +0.000 OA
ENDBRANCH  19  26
ENDBRANCH   1  22
BRANCH   9  27
ATOM     27  C   UNL     1      -2.498  12.263  20.231  0.00  0.00    +0.000 C 
ATOM     28  C   UNL     1      -3.796  13.055  20.445  0.00  0.00    +0.000 C 
ATOM     29  C   UNL     1      -2.284  12.095  18.724  0.00  0.00    +0.000 C 
ENDBRANCH   9  27
TORSDOF 4
ENDMDL
MODEL 5
REMARK VINA RESULT:      -7.7      7.881     11.204
REMARK  Name = 
REMARK  7 active torsions:
REMARK  status: ('A' for Active; 'I' for Inactive)
REMARK    1  A    between atoms: C_1  and  O_2
REMARK    2  A    between atoms: O_2  and  C_3
REMARK    3  A    between atoms: C_6  and  C_7
REMARK    4  A    between atoms: C_13  and  C_14
REMARK    5  A    between atoms: C_23  and  C_24
REMARK    6  A    between atoms: C_24  and  C_25
REMARK    7  A    between atoms: C_24  and  C_26
REMARK                            x       y       z     vdW  Elec       q    Type
REMARK                         _______ _______ _______ _____ _____    ______ ____
ROOT
ATOM      1  C   UNL     1      -1.632  11.154  19.089  0.00  0.00    +0.000 C 
ATOM      2  N   UNL     1      -2.366  11.508  20.118  0.00  0.00    +0.000 NA
ATOM      3  N   UNL     1      -1.704  11.635  21.318  0.00  0.00    +0.000 N 
ATOM      4  C   UNL     1      -0.511  11.086  21.711  0.00  0.00    +0.000 A 
ATOM      5  N   UNL     1      -0.206  11.444  22.932  0.00  0.00    +0.000 NA
ATOM      6  N   UNL     1      -1.243  12.237  23.387  0.00  0.00    +0.000 NA
ATOM      7  C   UNL     1      -2.149  12.318  22.427  0.00  0.00    +0.000 A 
ATOM      8  S   UNL     1       0.400  10.132  20.603  0.00  0.00    +0.000 S 
ATOM      9  C   UNL     1      -0.084  11.089  19.099  0.00  0.00    +0.000 C 
ENDROOT
BRANCH   7  10
ATOM     10  C   UNL     1      -3.390  13.002  22.524  0.00  0.00    +0.000 A 
ATOM     11  N   UNL     1      -4.591  12.512  22.046  0.00  0.00    +0.000 N 
ATOM     12  N   UNL     1      -5.666  13.299  22.327  0.00  0.00    +0.000 NA
ATOM     13  C   UNL     1      -5.096  14.312  22.966  0.00  0.00    +0.000 A 
ATOM     14  C   UNL     1      -3.716  14.197  23.095  0.00  0.00    +0.000 A 
ATOM     15  C   UNL     1      -3.122  15.329  23.821  0.00  0.00    +0.000 C 
ATOM     16  C   UNL     1      -4.392  15.991  24.455  0.00  0.00    +0.000 C 
ATOM     17  C   UNL     1      -5.630  15.524  23.612  0.00  0.00    +0.000 C 
ATOM     18  H   UNL     1      -4.740  11.640  21.546  0.00  0.00    +0.000 HD
ENDBRANCH   7  10
BRANCH   1  22
ATOM     19  C   UNL     1      -3.714  10.413  15.388  0.00  0.00    +0.000 A 
ATOM     20  C   UNL     1      -2.510   9.764  15.651  0.00  0.00    +0.000 A 
ATOM     21  C   UNL     1      -1.853   9.954  16.865  0.00  0.00    +0.000 A 
ATOM     22  C   UNL     1      -2.358  10.843  17.813  0.00  0.00    +0.000 A 
ATOM     23  C   UNL     1      -3.566  11.503  17.544  0.00  0.00    +0.000 A 
ATOM     24  C   UNL     1      -4.243  11.284  16.338  0.00  0.00    +0.000 A 
BRANCH  19  26
ATOM     25  C   UNL     1      -3.321   9.768  13.157  0.00  0.00    +0.000 C 
ATOM     26  O   UNL     1      -4.252  10.154  14.161  0.00  0.00    +0.000 OA
ENDBRANCH  19  26
ENDBRANCH   1  22
BRANCH   9  27
ATOM     27  C   UNL     1       0.582  12.502  19.094  0.00  0.00    +0.000 C 
ATOM     28  C   UNL     1       1.999  12.475  18.502  0.00  0.00    +0.000 C 
ATOM     29  C   UNL     1      -0.231  13.556  18.337  0.00  0.00    +0.000 C 
ENDBRANCH   9  27
TORSDOF 4
ENDMDL
MODEL 6
REMARK VINA RESULT:      -7.7      7.903     11.201
REMARK  Name = 
REMARK  7 active torsions:
REMARK  status: ('A' for Active; 'I' for Inactive)
REMARK    1  A    between atoms: C_1  and  O_2
REMARK    2  A    between atoms: O_2  and  C_3
REMARK    3  A    between atoms: C_6  and  C_7
REMARK    4  A    between atoms: C_13  and  C_14
REMARK    5  A    between atoms: C_23  and  C_24
REMARK    6  A    between atoms: C_24  and  C_25
REMARK    7  A    between atoms: C_24  and  C_26
REMARK                            x       y       z     vdW  Elec       q    Type
REMARK                         _______ _______ _______ _____ _____    ______ ____
ROOT
ATOM      1  C   UNL     1      -1.647  11.269  19.051  0.00  0.00    +0.000 C 
ATOM      2  N   UNL     1      -2.390  11.717  20.035  0.00  0.00    +0.000 NA
ATOM      3  N   UNL     1      -1.771  11.825  21.260  0.00  0.00    +0.000 N 
ATOM      4  C   UNL     1      -0.648  11.189  21.722  0.00  0.00    +0.000 A 
ATOM      5  N   UNL     1      -0.364  11.559  22.944  0.00  0.00    +0.000 NA
ATOM      6  N   UNL     1      -1.347  12.451  23.330  0.00  0.00    +0.000 NA
ATOM      7  C   UNL     1      -2.201  12.579  22.329  0.00  0.00    +0.000 A 
ATOM      8  S   UNL     1       0.224  10.127  20.682  0.00  0.00    +0.000 S 
ATOM      9  C   UNL     1      -0.112  11.073  19.132  0.00  0.00    +0.000 C 
ENDROOT
BRANCH   7  10
ATOM     10  C   UNL     1      -3.382  13.368  22.351  0.00  0.00    +0.000 A 
ATOM     11  N   UNL     1      -3.659  14.385  21.457  0.00  0.00    +0.000 N 
ATOM     12  N   UNL     1      -4.888  14.948  21.615  0.00  0.00    +0.000 NA
ATOM     13  C   UNL     1      -5.359  14.275  22.656  0.00  0.00    +0.000 A 
ATOM     14  C   UNL     1      -4.480  13.321  23.159  0.00  0.00    +0.000 A 
ATOM     15  C   UNL     1      -5.040  12.586  24.302  0.00  0.00    +0.000 C 
ATOM     16  C   UNL     1      -6.555  12.971  24.205  0.00  0.00    +0.000 C 
ATOM     17  C   UNL     1      -6.646  14.298  23.372  0.00  0.00    +0.000 C 
ATOM     18  H   UNL     1      -3.061  14.718  20.705  0.00  0.00    +0.000 HD
ENDBRANCH   7  10
BRANCH   1  22
ATOM     19  C   UNL     1      -3.645  10.288  15.359  0.00  0.00    +0.000 A 
ATOM     20  C   UNL     1      -4.232  11.180  16.252  0.00  0.00    +0.000 A 
ATOM     21  C   UNL     1      -3.574  11.547  17.425  0.00  0.00    +0.000 A 
ATOM     22  C   UNL     1      -2.343  10.980  17.753  0.00  0.00    +0.000 A 
ATOM     23  C   UNL     1      -1.755  10.076  16.857  0.00  0.00    +0.000 A 
ATOM     24  C   UNL     1      -2.402   9.736  15.662  0.00  0.00    +0.000 A 
BRANCH  19  26
ATOM     25  C   UNL     1      -3.659   9.822  13.051  0.00  0.00    +0.000 C 
ATOM     26  O   UNL     1      -4.394  10.001  14.256  0.00  0.00    +0.000 OA
ENDBRANCH  19  26
ENDBRANCH   1  22
BRANCH   9  27
ATOM     27  C   UNL     1       0.673  12.424  19.117  0.00  0.00    +0.000 C 
ATOM     28  C   UNL     1       2.075  12.275  18.507  0.00  0.00    +0.000 C 
ATOM     29  C   UNL     1      -0.056  13.544  18.370  0.00  0.00    +0.000 C 
ENDBRANCH   9  27
TORSDOF 4
ENDMDL
MODEL 7
REMARK VINA RESULT:      -7.7      5.892     10.516
REMARK  Name = 
REMARK  7 active torsions:
REMARK  status: ('A' for Active; 'I' for Inactive)
REMARK    1  A    between atoms: C_1  and  O_2
REMARK    2  A    between atoms: O_2  and  C_3
REMARK    3  A    between atoms: C_6  and  C_7
REMARK    4  A    between atoms: C_13  and  C_14
REMARK    5  A    between atoms: C_23  and  C_24
REMARK    6  A    between atoms: C_24  and  C_25
REMARK    7  A    between atoms: C_24  and  C_26
REMARK                            x       y       z     vdW  Elec       q    Type
REMARK                         _______ _______ _______ _____ _____    ______ ____
ROOT
ATOM      1  C   UNL     1       0.204  11.383  19.921  0.00  0.00    +0.000 C 
ATOM      2  N   UNL     1      -1.106  11.416  19.884  0.00  0.00    +0.000 NA
ATOM      3  N   UNL     1      -1.696  12.573  20.339  0.00  0.00    +0.000 N 
ATOM      4  C   UNL     1      -1.189  13.531  21.178  0.00  0.00    +0.000 A 
ATOM      5  N   UNL     1      -2.053  14.493  21.375  0.00  0.00    +0.000 NA
ATOM      6  N   UNL     1      -3.193  14.156  20.669  0.00  0.00    +0.000 NA
ATOM      7  C   UNL     1      -2.982  12.991  20.081  0.00  0.00    +0.000 A 
ATOM      8  S   UNL     1       0.429  13.395  21.756  0.00  0.00    +0.000 S 
ATOM      9  C   UNL     1       1.103  12.608  20.227  0.00  0.00    +0.000 C 
ENDROOT
BRANCH   7  10
ATOM     10  C   UNL     1      -3.933  12.279  19.303  0.00  0.00    +0.000 A 
ATOM     11  N   UNL     1      -3.687  11.769  18.041  0.00  0.00    +0.000 N 
ATOM     12  N   UNL     1      -4.717  11.048  17.520  0.00  0.00    +0.000 NA
ATOM     13  C   UNL     1      -5.628  11.149  18.480  0.00  0.00    +0.000 A 
ATOM     14  C   UNL     1      -5.216  11.903  19.574  0.00  0.00    +0.000 A 
ATOM     15  C   UNL     1      -6.244  11.981  20.622  0.00  0.00    +0.000 C 
ATOM     16  C   UNL     1      -7.228  10.846  20.177  0.00  0.00    +0.000 C 
ATOM     17  C   UNL     1      -6.979  10.589  18.648  0.00  0.00    +0.000 C 
ATOM     18  H   UNL     1      -2.831  11.860  17.502  0.00  0.00    +0.000 HD
ENDBRANCH   7  10
BRANCH   1  22
ATOM     19  C   UNL     1       2.211   7.699  18.928  0.00  0.00    +0.000 A 
ATOM     20  C   UNL     1       1.782   7.927  20.233  0.00  0.00    +0.000 A 
ATOM     21  C   UNL     1       1.085   9.091  20.557  0.00  0.00    +0.000 A 
ATOM     22  C   UNL     1       0.860  10.073  19.594  0.00  0.00    +0.000 A 
ATOM     23  C   UNL     1       1.300   9.846  18.281  0.00  0.00    +0.000 A 
ATOM     24  C   UNL     1       1.968   8.661  17.950  0.00  0.00    +0.000 A 
BRANCH  19  26
ATOM     25  C   UNL     1       2.664   5.531  19.725  0.00  0.00    +0.000 C 
ATOM     26  O   UNL     1       2.891   6.531  18.741  0.00  0.00    +0.000 OA
ENDBRANCH  19  26
ENDBRANCH   1  22
BRANCH   9  27
ATOM     27  C   UNL     1       1.156  13.630  19.047  0.00  0.00    +0.000 C 
ATOM     28  C   UNL     1       1.362  15.071  19.535  0.00  0.00    +0.000 C 
ATOM     29  C   UNL     1       2.245  13.315  18.017  0.00  0.00    +0.000 C 
ENDBRANCH   9  27
TORSDOF 4
ENDMDL
MODEL 8
REMARK VINA RESULT:      -7.6      4.223      7.177
REMARK  Name = 
REMARK  7 active torsions:
REMARK  status: ('A' for Active; 'I' for Inactive)
REMARK    1  A    between atoms: C_1  and  O_2
REMARK    2  A    between atoms: O_2  and  C_3
REMARK    3  A    between atoms: C_6  and  C_7
REMARK    4  A    between atoms: C_13  and  C_14
REMARK    5  A    between atoms: C_23  and  C_24
REMARK    6  A    between atoms: C_24  and  C_25
REMARK    7  A    between atoms: C_24  and  C_26
REMARK                            x       y       z     vdW  Elec       q    Type
REMARK                         _______ _______ _______ _____ _____    ______ ____
ROOT
ATOM      1  C   UNL     1       0.425  12.613  20.230  0.00  0.00    +0.000 C 
ATOM      2  N   UNL     1       1.046  11.473  20.042  0.00  0.00    +0.000 NA
ATOM      3  N   UNL     1       0.549  10.393  20.735  0.00  0.00    +0.000 N 
ATOM      4  C   UNL     1      -0.218  10.371  21.871  0.00  0.00    +0.000 A 
ATOM      5  N   UNL     1      -0.499   9.145  22.229  0.00  0.00    +0.000 NA
ATOM      6  N   UNL     1       0.127   8.311  21.321  0.00  0.00    +0.000 NA
ATOM      7  C   UNL     1       0.778   9.065  20.452  0.00  0.00    +0.000 A 
ATOM      8  S   UNL     1      -0.742  11.852  22.580  0.00  0.00    +0.000 S 
ATOM      9  C   UNL     1      -0.920  12.765  20.984  0.00  0.00    +0.000 C 
ENDROOT
BRANCH   7  10
ATOM     10  C   UNL     1       1.589   8.582  19.391  0.00  0.00    +0.000 A 
ATOM     11  N   UNL     1       1.889   9.300  18.248  0.00  0.00    +0.000 N 
ATOM     12  N   UNL     1       2.755   8.673  17.406  0.00  0.00    +0.000 NA
ATOM     13  C   UNL     1       2.962   7.526  18.040  0.00  0.00    +0.000 A 
ATOM     14  C   UNL     1       2.264   7.407  19.237  0.00  0.00    +0.000 A 
ATOM     15  C   UNL     1       2.529   6.132  19.919  0.00  0.00    +0.000 C 
ATOM     16  C   UNL     1       3.794   5.625  19.147  0.00  0.00    +0.000 C 
ATOM     17  C   UNL     1       3.819   6.361  17.761  0.00  0.00    +0.000 C 
ATOM     18  H   UNL     1       1.553  10.228  18.003  0.00  0.00    +0.000 HD
ENDBRANCH   7  10
BRANCH   1  22
ATOM     19  C   UNL     1       2.205  16.055  18.340  0.00  0.00    +0.000 A 
ATOM     20  C   UNL     1       1.084  16.209  19.152  0.00  0.00    +0.000 A 
ATOM     21  C   UNL     1       0.529  15.113  19.811  0.00  0.00    +0.000 A 
ATOM     22  C   UNL     1       1.051  13.834  19.621  0.00  0.00    +0.000 A 
ATOM     23  C   UNL     1       2.176  13.679  18.797  0.00  0.00    +0.000 A 
ATOM     24  C   UNL     1       2.753  14.786  18.164  0.00  0.00    +0.000 A 
BRANCH  19  26
ATOM     25  C   UNL     1       1.680  17.883  16.951  0.00  0.00    +0.000 C 
ATOM     26  O   UNL     1       2.644  17.200  17.743  0.00  0.00    +0.000 OA
ENDBRANCH  19  26
ENDBRANCH   1  22
BRANCH   9  27
ATOM     27  C   UNL     1      -2.138  12.230  20.164  0.00  0.00    +0.000 C 
ATOM     28  C   UNL     1      -3.422  13.023  20.447  0.00  0.00    +0.000 C 
ATOM     29  C   UNL     1      -1.901  12.229  18.651  0.00  0.00    +0.000 C 
ENDBRANCH   9  27
TORSDOF 4
ENDMDL
MODEL 9
REMARK VINA RESULT:      -7.6      5.539      9.579
REMARK  Name = 
REMARK  7 active torsions:
REMARK  status: ('A' for Active; 'I' for Inactive)
REMARK    1  A    between atoms: C_1  and  O_2
REMARK    2  A    between atoms: O_2  and  C_3
REMARK    3  A    between atoms: C_6  and  C_7
REMARK    4  A    between atoms: C_13  and  C_14
REMARK    5  A    between atoms: C_23  and  C_24
REMARK    6  A    between atoms: C_24  and  C_25
REMARK    7  A    between atoms: C_24  and  C_26
REMARK                            x       y       z     vdW  Elec       q    Type
REMARK                         _______ _______ _______ _____ _____    ______ ____
ROOT
ATOM      1  C   UNL     1       0.004  10.713  20.054  0.00  0.00    +0.000 C 
ATOM      2  N   UNL     1      -1.221  10.799  19.592  0.00  0.00    +0.000 NA
ATOM      3  N   UNL     1      -2.023  11.753  20.177  0.00  0.00    +0.000 N 
ATOM      4  C   UNL     1      -1.900  12.353  21.403  0.00  0.00    +0.000 A 
ATOM      5  N   UNL     1      -2.860  13.219  21.603  0.00  0.00    +0.000 NA
ATOM      6  N   UNL     1      -3.675  13.178  20.487  0.00  0.00    +0.000 NA
ATOM      7  C   UNL     1      -3.185  12.275  19.655  0.00  0.00    +0.000 A 
ATOM      8  S   UNL     1      -0.554  11.977  22.411  0.00  0.00    +0.000 S 
ATOM      9  C   UNL     1       0.646  11.733  21.028  0.00  0.00    +0.000 C 
ENDROOT
BRANCH   7  10
ATOM     10  C   UNL     1      -3.766  11.899  18.415  0.00  0.00    +0.000 A 
ATOM     11  N   UNL     1      -4.932  12.437  17.903  0.00  0.00    +0.000 N 
ATOM     12  N   UNL     1      -5.255  11.989  16.659  0.00  0.00    +0.000 NA
ATOM     13  C   UNL     1      -4.273  11.129  16.421  0.00  0.00    +0.000 A 
ATOM     14  C   UNL     1      -3.355  11.016  17.459  0.00  0.00    +0.000 A 
ATOM     15  C   UNL     1      -2.275  10.066  17.155  0.00  0.00    +0.000 C 
ATOM     16  C   UNL     1      -2.454   9.878  15.611  0.00  0.00    +0.000 C 
ATOM     17  C   UNL     1      -3.926  10.293  15.259  0.00  0.00    +0.000 C 
ATOM     18  H   UNL     1      -5.531  13.130  18.345  0.00  0.00    +0.000 HD
ENDBRANCH   7  10
BRANCH   1  22
ATOM     19  C   UNL     1       2.512   7.536  18.571  0.00  0.00    +0.000 A 
ATOM     20  C   UNL     1       2.108   7.539  19.903  0.00  0.00    +0.000 A 
ATOM     21  C   UNL     1       1.255   8.531  20.384  0.00  0.00    +0.000 A 
ATOM     22  C   UNL     1       0.839   9.571  19.553  0.00  0.00    +0.000 A 
ATOM     23  C   UNL     1       1.253   9.572  18.213  0.00  0.00    +0.000 A 
ATOM     24  C   UNL     1       2.081   8.555  17.723  0.00  0.00    +0.000 A 
BRANCH  19  26
ATOM     25  C   UNL     1       2.732   5.263  17.996  0.00  0.00    +0.000 C 
ATOM     26  O   UNL     1       3.355   6.520  18.227  0.00  0.00    +0.000 OA
ENDBRANCH  19  26
ENDBRANCH   1  22
BRANCH   9  27
ATOM     27  C   UNL     1       0.994  13.092  20.341  0.00  0.00    +0.000 C 
ATOM     28  C   UNL     1       1.365  14.180  21.359  0.00  0.00    +0.000 C 
ATOM     29  C   UNL     1       2.132  12.985  19.321  0.00  0.00    +0.000 C 
ENDBRANCH   9  27
TORSDOF 4
ENDMDL
