MODEL 1
REMARK VINA RESULT:      -6.0      0.000      0.000
REMARK  Name = 
REMARK  18 active torsions:
REMARK  status: ('A' for Active; 'I' for Inactive)
REMARK    1  A    between atoms: C_1  and  C_2
REMARK    2  A    between atoms: C_2  and  C_3
REMARK    3  A    between atoms: C_3  and  C_4
REMARK    4  A    between atoms: C_4  and  C_5
REMARK    5  A    between atoms: C_5  and  C_6
REMARK    6  A    between atoms: C_6  and  C_7
REMARK    7  A    between atoms: C_7  and  C_8
REMARK    8  A    between atoms: C_8  and  C_9
REMARK    9  A    between atoms: C_9  and  C_10
REMARK   10  A    between atoms: C_10  and  C_11
REMARK   11  A    between atoms: C_11  and  C_12
REMARK   12  A    between atoms: C_12  and  C_13
REMARK   13  A    between atoms: C_13  and  C_14
REMARK   14  A    between atoms: C_14  and  C_15
REMARK   15  A    between atoms: C_15  and  C_16
REMARK   16  A    between atoms: N_18  and  C_19
REMARK   17  A    between atoms: C_19  and  C_20
REMARK   18  A    between atoms: C_20  and  N_21
REMARK                            x       y       z     vdW  Elec       q    Type
REMARK                         _______ _______ _______ _____ _____    ______ ____
ROOT
ATOM      1  C   UNL     1       7.791   7.593  18.103  0.00  0.00    +0.000 C 
ENDROOT
BRANCH   1   2
ATOM      2  C   UNL     1       7.397   6.874  16.821  0.00  0.00    +0.000 C 
BRANCH   2   3
ATOM      3  C   UNL     1       6.945   5.461  17.122  0.00  0.00    +0.000 C 
ATOM      4  O   UNL     1       7.657   4.468  17.058  0.00  0.00    +0.000 OA
ATOM      5  N   UNL     1       5.628   5.372  17.521  0.00  0.00    +0.000 N 
ATOM      6  H   UNL     1       5.024   6.179  17.385  0.00  0.00    +0.000 HD
BRANCH   5   7
ATOM      7  C   UNL     1       5.062   4.062  17.781  0.00  0.00    +0.000 C 
BRANCH   7   8
ATOM      8  C   UNL     1       4.968   3.757  19.280  0.00  0.00    +0.000 C 
BRANCH   8   9
ATOM      9  N   UNL     1       3.557   3.767  19.715  0.00  0.00    +0.000 N 
ATOM     10  C   UNL     1       2.837   2.623  19.681  0.00  0.00    +0.000 A 
ATOM     11  C   UNL     1       1.480   2.630  19.990  0.00  0.00    +0.000 A 
ATOM     12  C   UNL     1       0.870   3.826  20.348  0.00  0.00    +0.000 A 
ATOM     13  C   UNL     1       1.632   4.987  20.406  0.00  0.00    +0.000 A 
ATOM     14  C   UNL     1       2.985   4.937  20.084  0.00  0.00    +0.000 A 
ENDBRANCH   8   9
ENDBRANCH   7   8
ENDBRANCH   5   7
ENDBRANCH   2   3
ENDBRANCH   1   2
BRANCH   1  15
ATOM     15  C   UNL     1       8.220   9.028  17.831  0.00  0.00    +0.000 C 
BRANCH  15  16
ATOM     16  C   UNL     1       9.081   9.534  18.981  0.00  0.00    +0.000 C 
BRANCH  16  17
ATOM     17  C   UNL     1       9.243  11.043  18.918  0.00  0.00    +0.000 C 
BRANCH  17  18
ATOM     18  C   UNL     1      10.307  11.409  17.892  0.00  0.00    +0.000 C 
BRANCH  18  19
ATOM     19  C   UNL     1      11.642  11.618  18.584  0.00  0.00    +0.000 C 
BRANCH  19  20
ATOM     20  C   UNL     1      11.463  12.298  19.938  0.00  0.00    +0.000 C 
BRANCH  20  21
ATOM     21  C   UNL     1      11.646  13.810  19.841  0.00  0.00    +0.000 C 
BRANCH  21  22
ATOM     22  C   UNL     1      10.672  14.564  20.740  0.00  0.00    +0.000 C 
BRANCH  22  23
ATOM     23  C   UNL     1       9.817  13.608  21.556  0.00  0.00    +0.000 C 
BRANCH  23  24
ATOM     24  C   UNL     1       8.348  13.758  21.174  0.00  0.00    +0.000 C 
BRANCH  24  25
ATOM     25  C   UNL     1       8.098  15.109  20.516  0.00  0.00    +0.000 C 
BRANCH  25  27
ATOM     26  C   UNL     1       7.971  14.358  18.122  0.00  0.00    +0.000 C 
ATOM     27  C   UNL     1       7.206  14.952  19.289  0.00  0.00    +0.000 C 
ENDBRANCH  25  27
ENDBRANCH  24  25
ENDBRANCH  23  24
ENDBRANCH  22  23
ENDBRANCH  21  22
ENDBRANCH  20  21
ENDBRANCH  19  20
ENDBRANCH  18  19
ENDBRANCH  17  18
ENDBRANCH  16  17
ENDBRANCH  15  16
ENDBRANCH   1  15
TORSDOF 17
ENDMDL
MODEL 2
REMARK VINA RESULT:      -5.9      2.563      9.747
REMARK  Name = 
REMARK  18 active torsions:
REMARK  status: ('A' for Active; 'I' for Inactive)
REMARK    1  A    between atoms: C_1  and  C_2
REMARK    2  A    between atoms: C_2  and  C_3
REMARK    3  A    between atoms: C_3  and  C_4
REMARK    4  A    between atoms: C_4  and  C_5
REMARK    5  A    between atoms: C_5  and  C_6
REMARK    6  A    between atoms: C_6  and  C_7
REMARK    7  A    between atoms: C_7  and  C_8
REMARK    8  A    between atoms: C_8  and  C_9
REMARK    9  A    between atoms: C_9  and  C_10
REMARK   10  A    between atoms: C_10  and  C_11
REMARK   11  A    between atoms: C_11  and  C_12
REMARK   12  A    between atoms: C_12  and  C_13
REMARK   13  A    between atoms: C_13  and  C_14
REMARK   14  A    between atoms: C_14  and  C_15
REMARK   15  A    between atoms: C_15  and  C_16
REMARK   16  A    between atoms: N_18  and  C_19
REMARK   17  A    between atoms: C_19  and  C_20
REMARK   18  A    between atoms: C_20  and  N_21
REMARK                            x       y       z     vdW  Elec       q    Type
REMARK                         _______ _______ _______ _____ _____    ______ ____
ROOT
ATOM      1  C   UNL     1       6.816   4.807  18.463  0.00  0.00    +0.000 C 
ENDROOT
BRANCH   1   2
ATOM      2  C   UNL     1       7.733   5.892  19.009  0.00  0.00    +0.000 C 
BRANCH   2   3
ATOM      3  C   UNL     1       7.756   7.085  18.078  0.00  0.00    +0.000 C 
ATOM      4  O   UNL     1       7.256   7.115  16.962  0.00  0.00    +0.000 OA
ATOM      5  N   UNL     1       8.378   8.195  18.613  0.00  0.00    +0.000 N 
ATOM      6  H   UNL     1       8.936   8.080  19.454  0.00  0.00    +0.000 HD
BRANCH   5   7
ATOM      7  C   UNL     1       8.514   9.384  17.793  0.00  0.00    +0.000 C 
BRANCH   7   8
ATOM      8  C   UNL     1       8.411  10.673  18.616  0.00  0.00    +0.000 C 
BRANCH   8   9
ATOM      9  N   UNL     1       9.754  11.245  18.838  0.00  0.00    +0.000 N 
ATOM     10  C   UNL     1      10.548  11.521  17.780  0.00  0.00    +0.000 A 
ATOM     11  C   UNL     1      11.853  11.965  17.970  0.00  0.00    +0.000 A 
ATOM     12  C   UNL     1      12.332  12.136  19.263  0.00  0.00    +0.000 A 
ATOM     13  C   UNL     1      11.493  11.875  20.339  0.00  0.00    +0.000 A 
ATOM     14  C   UNL     1      10.195  11.427  20.105  0.00  0.00    +0.000 A 
ENDBRANCH   8   9
ENDBRANCH   7   8
ENDBRANCH   5   7
ENDBRANCH   2   3
ENDBRANCH   1   2
BRANCH   1  15
ATOM     15  C   UNL     1       5.406   4.931  19.022  0.00  0.00    +0.000 C 
BRANCH  15  16
ATOM     16  C   UNL     1       4.628   3.651  18.747  0.00  0.00    +0.000 C 
BRANCH  16  17
ATOM     17  C   UNL     1       4.090   3.634  17.327  0.00  0.00    +0.000 C 
BRANCH  17  18
ATOM     18  C   UNL     1       2.661   3.108  17.320  0.00  0.00    +0.000 C 
BRANCH  18  19
ATOM     19  C   UNL     1       1.782   3.986  18.192  0.00  0.00    +0.000 C 
BRANCH  19  20
ATOM     20  C   UNL     1       1.024   3.158  19.225  0.00  0.00    +0.000 C 
BRANCH  20  21
ATOM     21  C   UNL     1       1.098   3.783  20.616  0.00  0.00    +0.000 C 
BRANCH  21  22
ATOM     22  C   UNL     1       2.075   4.953  20.668  0.00  0.00    +0.000 C 
BRANCH  22  23
ATOM     23  C   UNL     1       1.398   6.258  20.277  0.00  0.00    +0.000 C 
BRANCH  23  24
ATOM     24  C   UNL     1       2.443   7.301  19.899  0.00  0.00    +0.000 C 
BRANCH  24  25
ATOM     25  C   UNL     1       2.504   7.480  18.388  0.00  0.00    +0.000 C 
BRANCH  25  27
ATOM     26  C   UNL     1       2.014   9.901  17.929  0.00  0.00    +0.000 C 
ATOM     27  C   UNL     1       1.458   8.489  17.924  0.00  0.00    +0.000 C 
ENDBRANCH  25  27
ENDBRANCH  24  25
ENDBRANCH  23  24
ENDBRANCH  22  23
ENDBRANCH  21  22
ENDBRANCH  20  21
ENDBRANCH  19  20
ENDBRANCH  18  19
ENDBRANCH  17  18
ENDBRANCH  16  17
ENDBRANCH  15  16
ENDBRANCH   1  15
TORSDOF 17
ENDMDL
MODEL 3
REMARK VINA RESULT:      -5.8      1.690      2.469
REMARK  Name = 
REMARK  18 active torsions:
REMARK  status: ('A' for Active; 'I' for Inactive)
REMARK    1  A    between atoms: C_1  and  C_2
REMARK    2  A    between atoms: C_2  and  C_3
REMARK    3  A    between atoms: C_3  and  C_4
REMARK    4  A    between atoms: C_4  and  C_5
REMARK    5  A    between atoms: C_5  and  C_6
REMARK    6  A    between atoms: C_6  and  C_7
REMARK    7  A    between atoms: C_7  and  C_8
REMARK    8  A    between atoms: C_8  and  C_9
REMARK    9  A    between atoms: C_9  and  C_10
REMARK   10  A    between atoms: C_10  and  C_11
REMARK   11  A    between atoms: C_11  and  C_12
REMARK   12  A    between atoms: C_12  and  C_13
REMARK   13  A    between atoms: C_13  and  C_14
REMARK   14  A    between atoms: C_14  and  C_15
REMARK   15  A    between atoms: C_15  and  C_16
REMARK   16  A    between atoms: N_18  and  C_19
REMARK   17  A    between atoms: C_19  and  C_20
REMARK   18  A    between atoms: C_20  and  N_21
REMARK                            x       y       z     vdW  Elec       q    Type
REMARK                         _______ _______ _______ _____ _____    ______ ____
ROOT
ATOM      1  C   UNL     1       7.550   5.616  19.115  0.00  0.00    +0.000 C 
ENDROOT
BRANCH   1   2
ATOM      2  C   UNL     1       7.170   4.872  17.843  0.00  0.00    +0.000 C 
BRANCH   2   3
ATOM      3  C   UNL     1       5.679   4.615  17.803  0.00  0.00    +0.000 C 
ATOM      4  O   UNL     1       4.831   5.327  18.324  0.00  0.00    +0.000 OA
ATOM      5  N   UNL     1       5.327   3.494  17.081  0.00  0.00    +0.000 N 
ATOM      6  H   UNL     1       6.056   2.834  16.824  0.00  0.00    +0.000 HD
BRANCH   5   7
ATOM      7  C   UNL     1       3.928   3.112  17.019  0.00  0.00    +0.000 C 
BRANCH   7   8
ATOM      8  C   UNL     1       3.601   1.951  17.965  0.00  0.00    +0.000 C 
BRANCH   8   9
ATOM      9  N   UNL     1       2.794   2.433  19.104  0.00  0.00    +0.000 N 
ATOM     10  C   UNL     1       3.373   2.596  20.314  0.00  0.00    +0.000 A 
ATOM     11  C   UNL     1       2.611   2.951  21.422  0.00  0.00    +0.000 A 
ATOM     12  C   UNL     1       1.244   3.150  21.273  0.00  0.00    +0.000 A 
ATOM     13  C   UNL     1       0.669   3.006  20.015  0.00  0.00    +0.000 A 
ATOM     14  C   UNL     1       1.468   2.645  18.933  0.00  0.00    +0.000 A 
ENDBRANCH   8   9
ENDBRANCH   7   8
ENDBRANCH   5   7
ENDBRANCH   2   3
ENDBRANCH   1   2
BRANCH   1  15
ATOM     15  C   UNL     1       8.261   6.926  18.807  0.00  0.00    +0.000 C 
BRANCH  15  16
ATOM     16  C   UNL     1       7.502   7.682  17.725  0.00  0.00    +0.000 C 
BRANCH  16  17
ATOM     17  C   UNL     1       8.098   9.062  17.503  0.00  0.00    +0.000 C 
BRANCH  17  18
ATOM     18  C   UNL     1       8.802   9.532  18.768  0.00  0.00    +0.000 C 
BRANCH  18  19
ATOM     19  C   UNL     1       9.157  11.003  18.645  0.00  0.00    +0.000 C 
BRANCH  19  20
ATOM     20  C   UNL     1      10.581  11.270  19.123  0.00  0.00    +0.000 C 
BRANCH  20  21
ATOM     21  C   UNL     1      11.496  11.682  17.972  0.00  0.00    +0.000 C 
BRANCH  21  22
ATOM     22  C   UNL     1      11.866  13.161  18.035  0.00  0.00    +0.000 C 
BRANCH  22  23
ATOM     23  C   UNL     1      12.295  13.565  19.437  0.00  0.00    +0.000 C 
BRANCH  23  24
ATOM     24  C   UNL     1      11.327  14.597  20.006  0.00  0.00    +0.000 C 
BRANCH  24  25
ATOM     25  C   UNL     1      11.037  15.686  18.980  0.00  0.00    +0.000 C 
BRANCH  25  27
ATOM     26  C   UNL     1       8.764  16.250  18.068  0.00  0.00    +0.000 C 
ATOM     27  C   UNL     1       9.691  16.347  19.265  0.00  0.00    +0.000 C 
ENDBRANCH  25  27
ENDBRANCH  24  25
ENDBRANCH  23  24
ENDBRANCH  22  23
ENDBRANCH  21  22
ENDBRANCH  20  21
ENDBRANCH  19  20
ENDBRANCH  18  19
ENDBRANCH  17  18
ENDBRANCH  16  17
ENDBRANCH  15  16
ENDBRANCH   1  15
TORSDOF 17
ENDMDL
MODEL 4
REMARK VINA RESULT:      -5.7      5.967      9.733
REMARK  Name = 
REMARK  18 active torsions:
REMARK  status: ('A' for Active; 'I' for Inactive)
REMARK    1  A    between atoms: C_1  and  C_2
REMARK    2  A    between atoms: C_2  and  C_3
REMARK    3  A    between atoms: C_3  and  C_4
REMARK    4  A    between atoms: C_4  and  C_5
REMARK    5  A    between atoms: C_5  and  C_6
REMARK    6  A    between atoms: C_6  and  C_7
REMARK    7  A    between atoms: C_7  and  C_8
REMARK    8  A    between atoms: C_8  and  C_9
REMARK    9  A    between atoms: C_9  and  C_10
REMARK   10  A    between atoms: C_10  and  C_11
REMARK   11  A    between atoms: C_11  and  C_12
REMARK   12  A    between atoms: C_12  and  C_13
REMARK   13  A    between atoms: C_13  and  C_14
REMARK   14  A    between atoms: C_14  and  C_15
REMARK   15  A    between atoms: C_15  and  C_16
REMARK   16  A    between atoms: N_18  and  C_19
REMARK   17  A    between atoms: C_19  and  C_20
REMARK   18  A    between atoms: C_20  and  N_21
REMARK                            x       y       z     vdW  Elec       q    Type
REMARK                         _______ _______ _______ _____ _____    ______ ____
ROOT
ATOM      1  C   UNL     1       2.644   6.974  18.080  0.00  0.00    +0.000 C 
ENDROOT
BRANCH   1   2
ATOM      2  C   UNL     1       2.475   8.402  17.583  0.00  0.00    +0.000 C 
BRANCH   2   3
ATOM      3  C   UNL     1       1.581   9.188  18.518  0.00  0.00    +0.000 C 
ATOM      4  O   UNL     1       1.446   8.963  19.714  0.00  0.00    +0.000 OA
ATOM      5  N   UNL     1       0.927  10.239  17.910  0.00  0.00    +0.000 N 
ATOM      6  H   UNL     1       0.917  10.281  16.894  0.00  0.00    +0.000 HD
BRANCH   5   7
ATOM      7  C   UNL     1      -0.005  11.030  18.692  0.00  0.00    +0.000 C 
BRANCH   7   8
ATOM      8  C   UNL     1      -1.296  10.267  19.005  0.00  0.00    +0.000 C 
BRANCH   8   9
ATOM      9  N   UNL     1      -2.277  10.457  17.918  0.00  0.00    +0.000 N 
ATOM     10  C   UNL     1      -2.110   9.809  16.744  0.00  0.00    +0.000 A 
ATOM     11  C   UNL     1      -2.965  10.051  15.673  0.00  0.00    +0.000 A 
ATOM     12  C   UNL     1      -4.006  10.959  15.825  0.00  0.00    +0.000 A 
ATOM     13  C   UNL     1      -4.181  11.594  17.048  0.00  0.00    +0.000 A 
ATOM     14  C   UNL     1      -3.299  11.327  18.092  0.00  0.00    +0.000 A 
ENDBRANCH   8   9
ENDBRANCH   7   8
ENDBRANCH   5   7
ENDBRANCH   2   3
ENDBRANCH   1   2
BRANCH   1  15
ATOM     15  C   UNL     1       4.085   6.682  18.471  0.00  0.00    +0.000 C 
BRANCH  15  16
ATOM     16  C   UNL     1       5.019   7.087  17.338  0.00  0.00    +0.000 C 
BRANCH  16  17
ATOM     17  C   UNL     1       6.427   6.571  17.581  0.00  0.00    +0.000 C 
BRANCH  17  18
ATOM     18  C   UNL     1       6.760   5.479  16.574  0.00  0.00    +0.000 C 
BRANCH  18  19
ATOM     19  C   UNL     1       5.642   5.359  15.553  0.00  0.00    +0.000 C 
BRANCH  19  20
ATOM     20  C   UNL     1       5.056   3.951  15.538  0.00  0.00    +0.000 C 
BRANCH  20  21
ATOM     21  C   UNL     1       4.541   3.537  16.914  0.00  0.00    +0.000 C 
BRANCH  21  22
ATOM     22  C   UNL     1       3.020   3.435  16.950  0.00  0.00    +0.000 C 
BRANCH  22  23
ATOM     23  C   UNL     1       2.561   2.313  17.869  0.00  0.00    +0.000 C 
BRANCH  23  24
ATOM     24  C   UNL     1       1.493   2.824  18.830  0.00  0.00    +0.000 C 
BRANCH  24  25
ATOM     25  C   UNL     1       1.809   2.403  20.260  0.00  0.00    +0.000 C 
BRANCH  25  27
ATOM     26  C   UNL     1       1.390   4.854  20.627  0.00  0.00    +0.000 C 
ATOM     27  C   UNL     1       2.126   3.622  21.121  0.00  0.00    +0.000 C 
ENDBRANCH  25  27
ENDBRANCH  24  25
ENDBRANCH  23  24
ENDBRANCH  22  23
ENDBRANCH  21  22
ENDBRANCH  20  21
ENDBRANCH  19  20
ENDBRANCH  18  19
ENDBRANCH  17  18
ENDBRANCH  16  17
ENDBRANCH  15  16
ENDBRANCH   1  15
TORSDOF 17
ENDMDL
MODEL 5
REMARK VINA RESULT:      -5.7      1.374      2.116
REMARK  Name = 
REMARK  18 active torsions:
REMARK  status: ('A' for Active; 'I' for Inactive)
REMARK    1  A    between atoms: C_1  and  C_2
REMARK    2  A    between atoms: C_2  and  C_3
REMARK    3  A    between atoms: C_3  and  C_4
REMARK    4  A    between atoms: C_4  and  C_5
REMARK    5  A    between atoms: C_5  and  C_6
REMARK    6  A    between atoms: C_6  and  C_7
REMARK    7  A    between atoms: C_7  and  C_8
REMARK    8  A    between atoms: C_8  and  C_9
REMARK    9  A    between atoms: C_9  and  C_10
REMARK   10  A    between atoms: C_10  and  C_11
REMARK   11  A    between atoms: C_11  and  C_12
REMARK   12  A    between atoms: C_12  and  C_13
REMARK   13  A    between atoms: C_13  and  C_14
REMARK   14  A    between atoms: C_14  and  C_15
REMARK   15  A    between atoms: C_15  and  C_16
REMARK   16  A    between atoms: N_18  and  C_19
REMARK   17  A    between atoms: C_19  and  C_20
REMARK   18  A    between atoms: C_20  and  N_21
REMARK                            x       y       z     vdW  Elec       q    Type
REMARK                         _______ _______ _______ _____ _____    ______ ____
ROOT
ATOM      1  C   UNL     1       7.729   8.491  17.656  0.00  0.00    +0.000 C 
ENDROOT
BRANCH   1   2
ATOM      2  C   UNL     1       8.182   7.286  18.468  0.00  0.00    +0.000 C 
BRANCH   2   3
ATOM      3  C   UNL     1       7.420   6.047  18.049  0.00  0.00    +0.000 C 
ATOM      4  O   UNL     1       7.631   5.405  17.029  0.00  0.00    +0.000 OA
ATOM      5  N   UNL     1       6.452   5.658  18.952  0.00  0.00    +0.000 N 
ATOM      6  H   UNL     1       6.181   6.309  19.684  0.00  0.00    +0.000 HD
BRANCH   5   7
ATOM      7  C   UNL     1       5.615   4.517  18.632  0.00  0.00    +0.000 C 
BRANCH   7   8
ATOM      8  C   UNL     1       4.292   4.931  17.978  0.00  0.00    +0.000 C 
BRANCH   8   9
ATOM      9  N   UNL     1       3.152   4.461  18.790  0.00  0.00    +0.000 N 
ATOM     10  C   UNL     1       2.322   3.516  18.296  0.00  0.00    +0.000 A 
ATOM     11  C   UNL     1       1.185   3.133  19.000  0.00  0.00    +0.000 A 
ATOM     12  C   UNL     1       0.915   3.722  20.229  0.00  0.00    +0.000 A 
ATOM     13  C   UNL     1       1.795   4.671  20.736  0.00  0.00    +0.000 A 
ATOM     14  C   UNL     1       2.918   5.030  19.996  0.00  0.00    +0.000 A 
ENDBRANCH   8   9
ENDBRANCH   7   8
ENDBRANCH   5   7
ENDBRANCH   2   3
ENDBRANCH   1   2
BRANCH   1  15
ATOM     15  C   UNL     1       8.576   9.720  17.956  0.00  0.00    +0.000 C 
BRANCH  15  16
ATOM     16  C   UNL     1       9.083   9.658  19.391  0.00  0.00    +0.000 C 
BRANCH  16  17
ATOM     17  C   UNL     1       9.469  11.038  19.894  0.00  0.00    +0.000 C 
BRANCH  17  18
ATOM     18  C   UNL     1      10.985  11.168  19.942  0.00  0.00    +0.000 C 
BRANCH  18  19
ATOM     19  C   UNL     1      11.420  12.429  19.216  0.00  0.00    +0.000 C 
BRANCH  19  20
ATOM     20  C   UNL     1      11.066  12.364  17.734  0.00  0.00    +0.000 C 
BRANCH  20  21
ATOM     21  C   UNL     1      10.269  13.587  17.288  0.00  0.00    +0.000 C 
BRANCH  21  22
ATOM     22  C   UNL     1       8.767  13.384  17.457  0.00  0.00    +0.000 C 
BRANCH  22  23
ATOM     23  C   UNL     1       8.213  14.251  18.577  0.00  0.00    +0.000 C 
BRANCH  23  24
ATOM     24  C   UNL     1       8.340  15.726  18.213  0.00  0.00    +0.000 C 
BRANCH  24  25
ATOM     25  C   UNL     1       8.887  16.526  19.388  0.00  0.00    +0.000 C 
BRANCH  25  27
ATOM     26  C   UNL     1      11.246  15.976  20.059  0.00  0.00    +0.000 C 
ATOM     27  C   UNL     1      10.365  16.844  19.180  0.00  0.00    +0.000 C 
ENDBRANCH  25  27
ENDBRANCH  24  25
ENDBRANCH  23  24
ENDBRANCH  22  23
ENDBRANCH  21  22
ENDBRANCH  20  21
ENDBRANCH  19  20
ENDBRANCH  18  19
ENDBRANCH  17  18
ENDBRANCH  16  17
ENDBRANCH  15  16
ENDBRANCH   1  15
TORSDOF 17
ENDMDL
MODEL 6
REMARK VINA RESULT:      -5.7      4.810      9.651
REMARK  Name = 
REMARK  18 active torsions:
REMARK  status: ('A' for Active; 'I' for Inactive)
REMARK    1  A    between atoms: C_1  and  C_2
REMARK    2  A    between atoms: C_2  and  C_3
REMARK    3  A    between atoms: C_3  and  C_4
REMARK    4  A    between atoms: C_4  and  C_5
REMARK    5  A    between atoms: C_5  and  C_6
REMARK    6  A    between atoms: C_6  and  C_7
REMARK    7  A    between atoms: C_7  and  C_8
REMARK    8  A    between atoms: C_8  and  C_9
REMARK    9  A    between atoms: C_9  and  C_10
REMARK   10  A    between atoms: C_10  and  C_11
REMARK   11  A    between atoms: C_11  and  C_12
REMARK   12  A    between atoms: C_12  and  C_13
REMARK   13  A    between atoms: C_13  and  C_14
REMARK   14  A    between atoms: C_14  and  C_15
REMARK   15  A    between atoms: C_15  and  C_16
REMARK   16  A    between atoms: N_18  and  C_19
REMARK   17  A    between atoms: C_19  and  C_20
REMARK   18  A    between atoms: C_20  and  N_21
REMARK                            x       y       z     vdW  Elec       q    Type
REMARK                         _______ _______ _______ _____ _____    ______ ____
ROOT
ATOM      1  C   UNL     1       2.896   6.040  19.768  0.00  0.00    +0.000 C 
ENDROOT
BRANCH   1   2
ATOM      2  C   UNL     1       2.262   6.326  18.414  0.00  0.00    +0.000 C 
BRANCH   2   3
ATOM      3  C   UNL     1       2.336   7.803  18.094  0.00  0.00    +0.000 C 
ATOM      4  O   UNL     1       3.016   8.295  17.204  0.00  0.00    +0.000 OA
ATOM      5  N   UNL     1       1.522   8.585  18.888  0.00  0.00    +0.000 N 
ATOM      6  H   UNL     1       1.120   8.173  19.725  0.00  0.00    +0.000 HD
BRANCH   5   7
ATOM      7  C   UNL     1       1.551  10.026  18.715  0.00  0.00    +0.000 C 
BRANCH   7   8
ATOM      8  C   UNL     1       0.881  10.764  19.878  0.00  0.00    +0.000 C 
BRANCH   8   9
ATOM      9  N   UNL     1       0.817  12.212  19.595  0.00  0.00    +0.000 N 
ATOM     10  C   UNL     1      -0.245  12.717  18.929  0.00  0.00    +0.000 A 
ATOM     11  C   UNL     1      -0.278  14.059  18.562  0.00  0.00    +0.000 A 
ATOM     12  C   UNL     1       0.788  14.884  18.900  0.00  0.00    +0.000 A 
ATOM     13  C   UNL     1       1.859  14.354  19.611  0.00  0.00    +0.000 A 
ATOM     14  C   UNL     1       1.855  13.004  19.952  0.00  0.00    +0.000 A 
ENDBRANCH   8   9
ENDBRANCH   7   8
ENDBRANCH   5   7
ENDBRANCH   2   3
ENDBRANCH   1   2
BRANCH   1  15
ATOM     15  C   UNL     1       1.928   5.325  20.700  0.00  0.00    +0.000 C 
BRANCH  15  16
ATOM     16  C   UNL     1       0.992   4.439  19.890  0.00  0.00    +0.000 C 
BRANCH  16  17
ATOM     17  C   UNL     1       1.304   2.969  20.111  0.00  0.00    +0.000 C 
BRANCH  17  18
ATOM     18  C   UNL     1       1.215   2.216  18.791  0.00  0.00    +0.000 C 
BRANCH  18  19
ATOM     19  C   UNL     1       2.318   2.679  17.856  0.00  0.00    +0.000 C 
BRANCH  19  20
ATOM     20  C   UNL     1       3.695   2.467  18.476  0.00  0.00    +0.000 C 
BRANCH  20  21
ATOM     21  C   UNL     1       4.699   3.514  17.999  0.00  0.00    +0.000 C 
BRANCH  21  22
ATOM     22  C   UNL     1       4.379   4.016  16.595  0.00  0.00    +0.000 C 
BRANCH  22  23
ATOM     23  C   UNL     1       5.204   5.244  16.245  0.00  0.00    +0.000 C 
BRANCH  23  24
ATOM     24  C   UNL     1       6.559   5.184  16.941  0.00  0.00    +0.000 C 
BRANCH  24  25
ATOM     25  C   UNL     1       7.186   6.570  17.021  0.00  0.00    +0.000 C 
BRANCH  25  27
ATOM     26  C   UNL     1       7.701   5.567  19.267  0.00  0.00    +0.000 C 
ATOM     27  C   UNL     1       7.772   6.816  18.409  0.00  0.00    +0.000 C 
ENDBRANCH  25  27
ENDBRANCH  24  25
ENDBRANCH  23  24
ENDBRANCH  22  23
ENDBRANCH  21  22
ENDBRANCH  20  21
ENDBRANCH  19  20
ENDBRANCH  18  19
ENDBRANCH  17  18
ENDBRANCH  16  17
ENDBRANCH  15  16
ENDBRANCH   1  15
TORSDOF 17
ENDMDL
MODEL 7
REMARK VINA RESULT:      -5.7      3.155      9.002
REMARK  Name = 
REMARK  18 active torsions:
REMARK  status: ('A' for Active; 'I' for Inactive)
REMARK    1  A    between atoms: C_1  and  C_2
REMARK    2  A    between atoms: C_2  and  C_3
REMARK    3  A    between atoms: C_3  and  C_4
REMARK    4  A    between atoms: C_4  and  C_5
REMARK    5  A    between atoms: C_5  and  C_6
REMARK    6  A    between atoms: C_6  and  C_7
REMARK    7  A    between atoms: C_7  and  C_8
REMARK    8  A    between atoms: C_8  and  C_9
REMARK    9  A    between atoms: C_9  and  C_10
REMARK   10  A    between atoms: C_10  and  C_11
REMARK   11  A    between atoms: C_11  and  C_12
REMARK   12  A    between atoms: C_12  and  C_13
REMARK   13  A    between atoms: C_13  and  C_14
REMARK   14  A    between atoms: C_14  and  C_15
REMARK   15  A    between atoms: C_15  and  C_16
REMARK   16  A    between atoms: N_18  and  C_19
REMARK   17  A    between atoms: C_19  and  C_20
REMARK   18  A    between atoms: C_20  and  N_21
REMARK                            x       y       z     vdW  Elec       q    Type
REMARK                         _______ _______ _______ _____ _____    ______ ____
ROOT
ATOM      1  C   UNL     1       6.084   4.520  16.885  0.00  0.00    +0.000 C 
ENDROOT
BRANCH   1   2
ATOM      2  C   UNL     1       6.868   5.707  16.346  0.00  0.00    +0.000 C 
BRANCH   2   3
ATOM      3  C   UNL     1       7.510   6.479  17.479  0.00  0.00    +0.000 C 
ATOM      4  O   UNL     1       7.845   5.998  18.553  0.00  0.00    +0.000 OA
ATOM      5  N   UNL     1       7.731   7.810  17.191  0.00  0.00    +0.000 N 
ATOM      6  H   UNL     1       7.278   8.210  16.374  0.00  0.00    +0.000 HD
BRANCH   5   7
ATOM      7  C   UNL     1       8.288   8.666  18.221  0.00  0.00    +0.000 C 
BRANCH   7   8
ATOM      8  C   UNL     1       8.349  10.134  17.786  0.00  0.00    +0.000 C 
BRANCH   8   9
ATOM      9  N   UNL     1       9.427  10.837  18.510  0.00  0.00    +0.000 N 
ATOM     10  C   UNL     1      10.501  11.296  17.830  0.00  0.00    +0.000 A 
ATOM     11  C   UNL     1      11.575  11.870  18.505  0.00  0.00    +0.000 A 
ATOM     12  C   UNL     1      11.527  11.981  19.889  0.00  0.00    +0.000 A 
ATOM     13  C   UNL     1      10.403  11.530  20.569  0.00  0.00    +0.000 A 
ATOM     14  C   UNL     1       9.353  10.956  19.856  0.00  0.00    +0.000 A 
ENDBRANCH   8   9
ENDBRANCH   7   8
ENDBRANCH   5   7
ENDBRANCH   2   3
ENDBRANCH   1   2
BRANCH   1  15
ATOM     15  C   UNL     1       4.771   4.956  17.519  0.00  0.00    +0.000 C 
BRANCH  15  16
ATOM     16  C   UNL     1       4.678   4.414  18.939  0.00  0.00    +0.000 C 
BRANCH  16  17
ATOM     17  C   UNL     1       3.252   4.019  19.280  0.00  0.00    +0.000 C 
BRANCH  17  18
ATOM     18  C   UNL     1       2.720   4.907  20.397  0.00  0.00    +0.000 C 
BRANCH  18  19
ATOM     19  C   UNL     1       1.711   5.893  19.837  0.00  0.00    +0.000 C 
BRANCH  19  20
ATOM     20  C   UNL     1       2.341   7.264  19.613  0.00  0.00    +0.000 C 
BRANCH  20  21
ATOM     21  C   UNL     1       2.407   7.621  18.130  0.00  0.00    +0.000 C 
BRANCH  21  22
ATOM     22  C   UNL     1       2.127   9.100  17.884  0.00  0.00    +0.000 C 
BRANCH  22  23
ATOM     23  C   UNL     1       0.652   9.422  18.059  0.00  0.00    +0.000 C 
BRANCH  23  24
ATOM     24  C   UNL     1       0.486  10.757  18.776  0.00  0.00    +0.000 C 
BRANCH  24  25
ATOM     25  C   UNL     1       0.828  10.622  20.254  0.00  0.00    +0.000 C 
BRANCH  25  27
ATOM     26  C   UNL     1       0.096   8.932  21.965  0.00  0.00    +0.000 C 
ATOM     27  C   UNL     1      -0.351  10.038  21.028  0.00  0.00    +0.000 C 
ENDBRANCH  25  27
ENDBRANCH  24  25
ENDBRANCH  23  24
ENDBRANCH  22  23
ENDBRANCH  21  22
ENDBRANCH  20  21
ENDBRANCH  19  20
ENDBRANCH  18  19
ENDBRANCH  17  18
ENDBRANCH  16  17
ENDBRANCH  15  16
ENDBRANCH   1  15
TORSDOF 17
ENDMDL
MODEL 8
REMARK VINA RESULT:      -5.6      6.462     10.663
REMARK  Name = 
REMARK  18 active torsions:
REMARK  status: ('A' for Active; 'I' for Inactive)
REMARK    1  A    between atoms: C_1  and  C_2
REMARK    2  A    between atoms: C_2  and  C_3
REMARK    3  A    between atoms: C_3  and  C_4
REMARK    4  A    between atoms: C_4  and  C_5
REMARK    5  A    between atoms: C_5  and  C_6
REMARK    6  A    between atoms: C_6  and  C_7
REMARK    7  A    between atoms: C_7  and  C_8
REMARK    8  A    between atoms: C_8  and  C_9
REMARK    9  A    between atoms: C_9  and  C_10
REMARK   10  A    between atoms: C_10  and  C_11
REMARK   11  A    between atoms: C_11  and  C_12
REMARK   12  A    between atoms: C_12  and  C_13
REMARK   13  A    between atoms: C_13  and  C_14
REMARK   14  A    between atoms: C_14  and  C_15
REMARK   15  A    between atoms: C_15  and  C_16
REMARK   16  A    between atoms: N_18  and  C_19
REMARK   17  A    between atoms: C_19  and  C_20
REMARK   18  A    between atoms: C_20  and  N_21
REMARK                            x       y       z     vdW  Elec       q    Type
REMARK                         _______ _______ _______ _____ _____    ______ ____
ROOT
ATOM      1  C   UNL     1       2.012   8.660  17.734  0.00  0.00    +0.000 C 
ENDROOT
BRANCH   1   2
ATOM      2  C   UNL     1       1.908  10.145  18.049  0.00  0.00    +0.000 C 
BRANCH   2   3
ATOM      3  C   UNL     1       0.552  10.468  18.639  0.00  0.00    +0.000 C 
ATOM      4  O   UNL     1       0.058   9.910  19.610  0.00  0.00    +0.000 OA
ATOM      5  N   UNL     1      -0.101  11.502  18.000  0.00  0.00    +0.000 N 
ATOM      6  H   UNL     1       0.250  11.813  17.098  0.00  0.00    +0.000 HD
BRANCH   5   7
ATOM      7  C   UNL     1      -1.435  11.866  18.439  0.00  0.00    +0.000 C 
BRANCH   7   8
ATOM      8  C   UNL     1      -2.511  11.457  17.428  0.00  0.00    +0.000 C 
BRANCH   8   9
ATOM      9  N   UNL     1      -3.853  11.586  18.030  0.00  0.00    +0.000 N 
ATOM     10  C   UNL     1      -4.948  11.283  17.297  0.00  0.00    +0.000 A 
ATOM     11  C   UNL     1      -6.224  11.494  17.810  0.00  0.00    +0.000 A 
ATOM     12  C   UNL     1      -6.366  12.008  19.093  0.00  0.00    +0.000 A 
ATOM     13  C   UNL     1      -5.229  12.287  19.843  0.00  0.00    +0.000 A 
ATOM     14  C   UNL     1      -3.970  12.067  19.290  0.00  0.00    +0.000 A 
ENDBRANCH   8   9
ENDBRANCH   7   8
ENDBRANCH   5   7
ENDBRANCH   2   3
ENDBRANCH   1   2
BRANCH   1  15
ATOM     15  C   UNL     1       2.228   7.834  18.993  0.00  0.00    +0.000 C 
BRANCH  15  16
ATOM     16  C   UNL     1       2.889   6.509  18.635  0.00  0.00    +0.000 C 
BRANCH  16  17
ATOM     17  C   UNL     1       3.803   6.664  17.432  0.00  0.00    +0.000 C 
BRANCH  17  18
ATOM     18  C   UNL     1       5.234   6.318  17.820  0.00  0.00    +0.000 C 
BRANCH  18  19
ATOM     19  C   UNL     1       5.236   5.181  18.827  0.00  0.00    +0.000 C 
BRANCH  19  20
ATOM     20  C   UNL     1       4.980   3.840  18.147  0.00  0.00    +0.000 C 
BRANCH  20  21
ATOM     21  C   UNL     1       4.359   2.828  19.107  0.00  0.00    +0.000 C 
BRANCH  21  22
ATOM     22  C   UNL     1       3.572   1.748  18.371  0.00  0.00    +0.000 C 
BRANCH  22  23
ATOM     23  C   UNL     1       2.226   2.272  17.895  0.00  0.00    +0.000 C 
BRANCH  23  24
ATOM     24  C   UNL     1       1.231   2.291  19.049  0.00  0.00    +0.000 C 
BRANCH  24  25
ATOM     25  C   UNL     1       0.949   3.721  19.494  0.00  0.00    +0.000 C 
BRANCH  25  27
ATOM     26  C   UNL     1       1.613   2.605  21.646  0.00  0.00    +0.000 C 
ATOM     27  C   UNL     1       1.385   3.929  20.941  0.00  0.00    +0.000 C 
ENDBRANCH  25  27
ENDBRANCH  24  25
ENDBRANCH  23  24
ENDBRANCH  22  23
ENDBRANCH  21  22
ENDBRANCH  20  21
ENDBRANCH  19  20
ENDBRANCH  18  19
ENDBRANCH  17  18
ENDBRANCH  16  17
ENDBRANCH  15  16
ENDBRANCH   1  15
TORSDOF 17
ENDMDL
MODEL 9
REMARK VINA RESULT:      -5.6      3.091      9.400
REMARK  Name = 
REMARK  18 active torsions:
REMARK  status: ('A' for Active; 'I' for Inactive)
REMARK    1  A    between atoms: C_1  and  C_2
REMARK    2  A    between atoms: C_2  and  C_3
REMARK    3  A    between atoms: C_3  and  C_4
REMARK    4  A    between atoms: C_4  and  C_5
REMARK    5  A    between atoms: C_5  and  C_6
REMARK    6  A    between atoms: C_6  and  C_7
REMARK    7  A    between atoms: C_7  and  C_8
REMARK    8  A    between atoms: C_8  and  C_9
REMARK    9  A    between atoms: C_9  and  C_10
REMARK   10  A    between atoms: C_10  and  C_11
REMARK   11  A    between atoms: C_11  and  C_12
REMARK   12  A    between atoms: C_12  and  C_13
REMARK   13  A    between atoms: C_13  and  C_14
REMARK   14  A    between atoms: C_14  and  C_15
REMARK   15  A    between atoms: C_15  and  C_16
REMARK   16  A    between atoms: N_18  and  C_19
REMARK   17  A    between atoms: C_19  and  C_20
REMARK   18  A    between atoms: C_20  and  N_21
REMARK                            x       y       z     vdW  Elec       q    Type
REMARK                         _______ _______ _______ _____ _____    ______ ____
ROOT
ATOM      1  C   UNL     1       5.438   5.444  17.675  0.00  0.00    +0.000 C 
ENDROOT
BRANCH   1   2
ATOM      2  C   UNL     1       6.635   6.012  16.925  0.00  0.00    +0.000 C 
BRANCH   2   3
ATOM      3  C   UNL     1       7.520   6.806  17.861  0.00  0.00    +0.000 C 
ATOM      4  O   UNL     1       8.017   6.374  18.892  0.00  0.00    +0.000 OA
ATOM      5  N   UNL     1       7.764   8.095  17.434  0.00  0.00    +0.000 N 
ATOM      6  H   UNL     1       7.195   8.474  16.682  0.00  0.00    +0.000 HD
BRANCH   5   7
ATOM      7  C   UNL     1       8.553   8.974  18.278  0.00  0.00    +0.000 C 
BRANCH   7   8
ATOM      8  C   UNL     1       8.531  10.425  17.786  0.00  0.00    +0.000 C 
BRANCH   8   9
ATOM      9  N   UNL     1       9.422  11.259  18.617  0.00  0.00    +0.000 N 
ATOM     10  C   UNL     1      10.204  12.193  18.032  0.00  0.00    +0.000 A 
ATOM     11  C   UNL     1      11.123  12.920  18.782  0.00  0.00    +0.000 A 
ATOM     12  C   UNL     1      11.223  12.686  20.148  0.00  0.00    +0.000 A 
ATOM     13  C   UNL     1      10.391  11.742  20.739  0.00  0.00    +0.000 A 
ATOM     14  C   UNL     1       9.489  11.033  19.950  0.00  0.00    +0.000 A 
ENDBRANCH   8   9
ENDBRANCH   7   8
ENDBRANCH   5   7
ENDBRANCH   2   3
ENDBRANCH   1   2
BRANCH   1  15
ATOM     15  C   UNL     1       4.569   4.581  16.772  0.00  0.00    +0.000 C 
BRANCH  15  16
ATOM     16  C   UNL     1       4.106   3.345  17.531  0.00  0.00    +0.000 C 
BRANCH  16  17
ATOM     17  C   UNL     1       2.670   2.994  17.179  0.00  0.00    +0.000 C 
BRANCH  17  18
ATOM     18  C   UNL     1       1.712   3.889  17.953  0.00  0.00    +0.000 C 
BRANCH  18  19
ATOM     19  C   UNL     1       2.206   4.063  19.378  0.00  0.00    +0.000 C 
BRANCH  19  20
ATOM     20  C   UNL     1       1.691   5.364  19.987  0.00  0.00    +0.000 C 
BRANCH  20  21
ATOM     21  C   UNL     1       2.633   6.531  19.706  0.00  0.00    +0.000 C 
BRANCH  21  22
ATOM     22  C   UNL     1       2.247   7.287  18.439  0.00  0.00    +0.000 C 
BRANCH  22  23
ATOM     23  C   UNL     1       1.928   8.744  18.738  0.00  0.00    +0.000 C 
BRANCH  23  24
ATOM     24  C   UNL     1       1.211   8.860  20.079  0.00  0.00    +0.000 C 
BRANCH  24  25
ATOM     25  C   UNL     1       0.013   9.794  19.970  0.00  0.00    +0.000 C 
BRANCH  25  27
ATOM     26  C   UNL     1      -1.546  10.425  18.102  0.00  0.00    +0.000 C 
ATOM     27  C   UNL     1      -0.100  10.362  18.558  0.00  0.00    +0.000 C 
ENDBRANCH  25  27
ENDBRANCH  24  25
ENDBRANCH  23  24
ENDBRANCH  22  23
ENDBRANCH  21  22
ENDBRANCH  20  21
ENDBRANCH  19  20
ENDBRANCH  18  19
ENDBRANCH  17  18
ENDBRANCH  16  17
ENDBRANCH  15  16
ENDBRANCH   1  15
TORSDOF 17
ENDMDL
