MODEL 1
REMARK VINA RESULT:      -7.6      0.000      0.000
REMARK  Name = 
REMARK  5 active torsions:
REMARK  status: ('A' for Active; 'I' for Inactive)
REMARK    1  A    between atoms: C_1  and  O_2
REMARK    2  A    between atoms: O_2  and  C_3
REMARK    3  A    between atoms: C_5  and  C_6
REMARK    4  A    between atoms: N_7  and  N_8
REMARK    5  A    between atoms: C_21  and  O_22
REMARK                            x       y       z     vdW  Elec       q    Type
REMARK                         _______ _______ _______ _____ _____    ______ ____
ROOT
ATOM      1  C   UNL     1       2.439   7.135  18.179  0.00  0.00    +0.000 C 
ATOM      2  N   UNL     1       2.222   8.008  19.112  0.00  0.00    +0.000 NA
ENDROOT
BRANCH   2   3
ATOM      3  N   UNL     1       1.564   9.150  18.744  0.00  0.00    +0.000 N 
ATOM      4  C   UNL     1       0.766   9.833  19.598  0.00  0.00    +0.000 A 
ATOM      5  N   UNL     1       0.010  10.886  19.385  0.00  0.00    +0.000 NA
ATOM      6  C   UNL     1      -0.599  11.150  20.598  0.00  0.00    +0.000 A 
ATOM      7  C   UNL     1      -1.507  12.158  20.960  0.00  0.00    +0.000 A 
ATOM      8  C   UNL     1      -1.987  12.195  22.280  0.00  0.00    +0.000 A 
ATOM      9  C   UNL     1      -1.573  11.248  23.221  0.00  0.00    +0.000 A 
ATOM     10  C   UNL     1      -0.665  10.240  22.880  0.00  0.00    +0.000 A 
ATOM     11  C   UNL     1      -0.203  10.229  21.563  0.00  0.00    +0.000 A 
ATOM     12  N   UNL     1       0.667   9.412  20.897  0.00  0.00    +0.000 N 
ATOM     13  H   UNL     1       1.498   9.419  17.764  0.00  0.00    +0.000 HD
ATOM     14  H   UNL     1       1.165   8.608  21.252  0.00  0.00    +0.000 HD
ENDBRANCH   2   3
BRANCH   1  17
ATOM     15  C   UNL     1       5.128   4.609  19.091  0.00  0.00    +0.000 A 
ATOM     16  C   UNL     1       4.476   5.809  18.765  0.00  0.00    +0.000 A 
ATOM     17  C   UNL     1       3.104   5.843  18.487  0.00  0.00    +0.000 A 
ATOM     18  C   UNL     1       2.362   4.661  18.525  0.00  0.00    +0.000 A 
ATOM     19  C   UNL     1       3.008   3.461  18.842  0.00  0.00    +0.000 A 
ATOM     20 BR   UNL     1       1.981   1.862  18.896  0.00  0.00    +0.000 Br
ATOM     21  C   UNL     1       4.383   3.426  19.125  0.00  0.00    +0.000 A 
BRANCH  15  23
ATOM     22  C   UNL     1       7.162   5.793  18.642  0.00  0.00    +0.000 C 
ATOM     23  O   UNL     1       6.461   4.781  19.354  0.00  0.00    +0.000 OA
ENDBRANCH  15  23
BRANCH  21  24
ATOM     24  O   UNL     1       4.979   2.232  19.437  0.00  0.00    +0.000 OA
ATOM     25  H   UNL     1       4.379   1.511  19.172  0.00  0.00    +0.000 HD
ENDBRANCH  21  24
ENDBRANCH   1  17
TORSDOF 4
ENDMDL
MODEL 2
REMARK VINA RESULT:      -7.6      2.651      3.268
REMARK  Name = 
REMARK  5 active torsions:
REMARK  status: ('A' for Active; 'I' for Inactive)
REMARK    1  A    between atoms: C_1  and  O_2
REMARK    2  A    between atoms: O_2  and  C_3
REMARK    3  A    between atoms: C_5  and  C_6
REMARK    4  A    between atoms: N_7  and  N_8
REMARK    5  A    between atoms: C_21  and  O_22
REMARK                            x       y       z     vdW  Elec       q    Type
REMARK                         _______ _______ _______ _____ _____    ______ ____
ROOT
ATOM      1  C   UNL     1       2.236   7.650  18.825  0.00  0.00    +0.000 C 
ATOM      2  N   UNL     1       2.021   8.781  18.231  0.00  0.00    +0.000 NA
ENDROOT
BRANCH   2   3
ATOM      3  N   UNL     1       1.294   9.711  18.924  0.00  0.00    +0.000 N 
ATOM      4  C   UNL     1       0.063  10.108  18.528  0.00  0.00    +0.000 A 
ATOM      5  N   UNL     1      -0.725  11.036  19.024  0.00  0.00    +0.000 NA
ATOM      6  C   UNL     1      -1.849  11.030  18.220  0.00  0.00    +0.000 A 
ATOM      7  C   UNL     1      -3.016  11.809  18.282  0.00  0.00    +0.000 A 
ATOM      8  C   UNL     1      -4.018  11.605  17.320  0.00  0.00    +0.000 A 
ATOM      9  C   UNL     1      -3.864  10.646  16.315  0.00  0.00    +0.000 A 
ATOM     10  C   UNL     1      -2.711   9.857  16.240  0.00  0.00    +0.000 A 
ATOM     11  C   UNL     1      -1.733  10.080  17.211  0.00  0.00    +0.000 A 
ATOM     12  N   UNL     1      -0.511   9.509  17.438  0.00  0.00    +0.000 N 
ATOM     13  H   UNL     1       1.731  10.277  19.649  0.00  0.00    +0.000 HD
ATOM     14  H   UNL     1      -0.055   8.779  16.911  0.00  0.00    +0.000 HD
ENDBRANCH   2   3
BRANCH   1  17
ATOM     15  C   UNL     1       5.056   5.947  16.928  0.00  0.00    +0.000 A 
ATOM     16  C   UNL     1       4.245   6.928  17.524  0.00  0.00    +0.000 A 
ATOM     17  C   UNL     1       3.052   6.593  18.175  0.00  0.00    +0.000 A 
ATOM     18  C   UNL     1       2.646   5.258  18.229  0.00  0.00    +0.000 A 
ATOM     19  C   UNL     1       3.445   4.278  17.631  0.00  0.00    +0.000 A 
ATOM     20 BR   UNL     1       2.882   2.464  17.721  0.00  0.00    +0.000 Br
ATOM     21  C   UNL     1       4.645   4.612  16.982  0.00  0.00    +0.000 A 
BRANCH  15  23
ATOM     22  C   UNL     1       7.256   6.848  17.226  0.00  0.00    +0.000 C 
ATOM     23  O   UNL     1       6.191   6.465  16.365  0.00  0.00    +0.000 OA
ENDBRANCH  15  23
BRANCH  21  24
ATOM     24  O   UNL     1       5.403   3.622  16.412  0.00  0.00    +0.000 OA
ATOM     25  H   UNL     1       5.884   4.001  15.655  0.00  0.00    +0.000 HD
ENDBRANCH  21  24
ENDBRANCH   1  17
TORSDOF 4
ENDMDL
MODEL 3
REMARK VINA RESULT:      -7.6      1.916      2.654
REMARK  Name = 
REMARK  5 active torsions:
REMARK  status: ('A' for Active; 'I' for Inactive)
REMARK    1  A    between atoms: C_1  and  O_2
REMARK    2  A    between atoms: O_2  and  C_3
REMARK    3  A    between atoms: C_5  and  C_6
REMARK    4  A    between atoms: N_7  and  N_8
REMARK    5  A    between atoms: C_21  and  O_22
REMARK                            x       y       z     vdW  Elec       q    Type
REMARK                         _______ _______ _______ _____ _____    ______ ____
ROOT
ATOM      1  C   UNL     1       2.945   8.048  17.965  0.00  0.00    +0.000 C 
ATOM      2  N   UNL     1       1.702   8.363  17.784  0.00  0.00    +0.000 NA
ENDROOT
BRANCH   2   3
ATOM      3  N   UNL     1       1.376   9.685  17.922  0.00  0.00    +0.000 N 
ATOM      4  C   UNL     1       0.801  10.174  19.045  0.00  0.00    +0.000 A 
ATOM      5  N   UNL     1       0.356  11.383  19.307  0.00  0.00    +0.000 NA
ATOM      6  C   UNL     1      -0.147  11.317  20.593  0.00  0.00    +0.000 A 
ATOM      7  C   UNL     1      -0.745  12.308  21.388  0.00  0.00    +0.000 A 
ATOM      8  C   UNL     1      -1.186  11.968  22.677  0.00  0.00    +0.000 A 
ATOM      9  C   UNL     1      -1.037  10.667  23.166  0.00  0.00    +0.000 A 
ATOM     10  C   UNL     1      -0.440   9.667  22.391  0.00  0.00    +0.000 A 
ATOM     11  C   UNL     1      -0.009  10.035  21.116  0.00  0.00    +0.000 A 
ATOM     12  N   UNL     1       0.602   9.337  20.111  0.00  0.00    +0.000 N 
ATOM     13  H   UNL     1       1.377  10.308  17.117  0.00  0.00    +0.000 HD
ATOM     14  H   UNL     1       0.866   8.362  20.098  0.00  0.00    +0.000 HD
ENDBRANCH   2   3
BRANCH   1  17
ATOM     15  C   UNL     1       2.881   4.266  17.581  0.00  0.00    +0.000 A 
ATOM     16  C   UNL     1       2.479   5.598  17.775  0.00  0.00    +0.000 A 
ATOM     17  C   UNL     1       3.407   6.646  17.792  0.00  0.00    +0.000 A 
ATOM     18  C   UNL     1       4.765   6.369  17.623  0.00  0.00    +0.000 A 
ATOM     19  C   UNL     1       5.172   5.043  17.437  0.00  0.00    +0.000 A 
ATOM     20 BR   UNL     1       7.024   4.685  17.201  0.00  0.00    +0.000 Br
ATOM     21  C   UNL     1       4.241   3.992  17.415  0.00  0.00    +0.000 A 
BRANCH  15  23
ATOM     22  C   UNL     1       1.340   2.909  18.816  0.00  0.00    +0.000 C 
ATOM     23  O   UNL     1       1.829   3.390  17.570  0.00  0.00    +0.000 OA
ENDBRANCH  15  23
BRANCH  21  24
ATOM     24  O   UNL     1       4.678   2.707  17.226  0.00  0.00    +0.000 OA
ATOM     25  H   UNL     1       4.016   2.098  17.600  0.00  0.00    +0.000 HD
ENDBRANCH  21  24
ENDBRANCH   1  17
TORSDOF 4
ENDMDL
MODEL 4
REMARK VINA RESULT:      -7.5      1.331      1.349
REMARK  Name = 
REMARK  5 active torsions:
REMARK  status: ('A' for Active; 'I' for Inactive)
REMARK    1  A    between atoms: C_1  and  O_2
REMARK    2  A    between atoms: O_2  and  C_3
REMARK    3  A    between atoms: C_5  and  C_6
REMARK    4  A    between atoms: N_7  and  N_8
REMARK    5  A    between atoms: C_21  and  O_22
REMARK                            x       y       z     vdW  Elec       q    Type
REMARK                         _______ _______ _______ _____ _____    ______ ____
ROOT
ATOM      1  C   UNL     1       3.005   8.043  17.860  0.00  0.00    +0.000 C 
ATOM      2  N   UNL     1       1.767   8.419  17.790  0.00  0.00    +0.000 NA
ENDROOT
BRANCH   2   3
ATOM      3  N   UNL     1       1.525   9.762  17.896  0.00  0.00    +0.000 N 
ATOM      4  C   UNL     1       0.944  10.308  18.990  0.00  0.00    +0.000 A 
ATOM      5  N   UNL     1       0.572  11.548  19.217  0.00  0.00    +0.000 NA
ATOM      6  C   UNL     1       0.020  11.538  20.484  0.00  0.00    +0.000 A 
ATOM      7  C   UNL     1      -0.539  12.580  21.241  0.00  0.00    +0.000 A 
ATOM      8  C   UNL     1      -1.047  12.293  22.518  0.00  0.00    +0.000 A 
ATOM      9  C   UNL     1      -1.001  10.994  23.033  0.00  0.00    +0.000 A 
ATOM     10  C   UNL     1      -0.445   9.944  22.295  0.00  0.00    +0.000 A 
ATOM     11  C   UNL     1       0.055  10.259  21.031  0.00  0.00    +0.000 A 
ATOM     12  N   UNL     1       0.653   9.504  20.060  0.00  0.00    +0.000 N 
ATOM     13  H   UNL     1       1.596  10.369  17.081  0.00  0.00    +0.000 HD
ATOM     14  H   UNL     1       0.851   8.515  20.072  0.00  0.00    +0.000 HD
ENDBRANCH   2   3
BRANCH   1  17
ATOM     15  C   UNL     1       5.031   4.916  17.104  0.00  0.00    +0.000 A 
ATOM     16  C   UNL     1       4.640   6.260  17.226  0.00  0.00    +0.000 A 
ATOM     17  C   UNL     1       3.375   6.612  17.711  0.00  0.00    +0.000 A 
ATOM     18  C   UNL     1       2.472   5.611  18.077  0.00  0.00    +0.000 A 
ATOM     19  C   UNL     1       2.854   4.270  17.950  0.00  0.00    +0.000 A 
ATOM     20 BR   UNL     1       1.616   2.921  18.460  0.00  0.00    +0.000 Br
ATOM     21  C   UNL     1       4.124   3.917  17.468  0.00  0.00    +0.000 A 
BRANCH  15  23
ATOM     22  C   UNL     1       7.368   4.688  17.583  0.00  0.00    +0.000 C 
ATOM     23  O   UNL     1       6.310   4.775  16.636  0.00  0.00    +0.000 OA
ENDBRANCH  15  23
BRANCH  21  24
ATOM     24  O   UNL     1       4.462   2.593  17.363  0.00  0.00    +0.000 OA
ATOM     25  H   UNL     1       4.794   2.291  18.228  0.00  0.00    +0.000 HD
ENDBRANCH  21  24
ENDBRANCH   1  17
TORSDOF 4
ENDMDL
MODEL 5
REMARK VINA RESULT:      -7.4      1.587      2.328
REMARK  Name = 
REMARK  5 active torsions:
REMARK  status: ('A' for Active; 'I' for Inactive)
REMARK    1  A    between atoms: C_1  and  O_2
REMARK    2  A    between atoms: O_2  and  C_3
REMARK    3  A    between atoms: C_5  and  C_6
REMARK    4  A    between atoms: N_7  and  N_8
REMARK    5  A    between atoms: C_21  and  O_22
REMARK                            x       y       z     vdW  Elec       q    Type
REMARK                         _______ _______ _______ _____ _____    ______ ____
ROOT
ATOM      1  C   UNL     1       2.229   7.371  18.077  0.00  0.00    +0.000 C 
ATOM      2  N   UNL     1       2.180   8.402  18.860  0.00  0.00    +0.000 NA
ENDROOT
BRANCH   2   3
ATOM      3  N   UNL     1       1.371   9.435  18.468  0.00  0.00    +0.000 N 
ATOM      4  C   UNL     1       0.568  10.094  19.335  0.00  0.00    +0.000 A 
ATOM      5  N   UNL     1      -0.318  11.039  19.113  0.00  0.00    +0.000 NA
ATOM      6  C   UNL     1      -0.858  11.333  20.351  0.00  0.00    +0.000 A 
ATOM      7  C   UNL     1      -1.845  12.262  20.715  0.00  0.00    +0.000 A 
ATOM      8  C   UNL     1      -2.225  12.353  22.064  0.00  0.00    +0.000 A 
ATOM      9  C   UNL     1      -1.635  11.536  23.032  0.00  0.00    +0.000 A 
ATOM     10  C   UNL     1      -0.647  10.606  22.689  0.00  0.00    +0.000 A 
ATOM     11  C   UNL     1      -0.288  10.540  21.342  0.00  0.00    +0.000 A 
ATOM     12  N   UNL     1       0.617   9.770  20.665  0.00  0.00    +0.000 N 
ATOM     13  H   UNL     1       1.200   9.615  17.480  0.00  0.00    +0.000 HD
ATOM     14  H   UNL     1       1.228   9.056  21.033  0.00  0.00    +0.000 HD
ENDBRANCH   2   3
BRANCH   1  17
ATOM     15  C   UNL     1       3.192   3.962  19.455  0.00  0.00    +0.000 A 
ATOM     16  C   UNL     1       2.458   5.115  19.129  0.00  0.00    +0.000 A 
ATOM     17  C   UNL     1       3.042   6.182  18.436  0.00  0.00    +0.000 A 
ATOM     18  C   UNL     1       4.386   6.111  18.064  0.00  0.00    +0.000 A 
ATOM     19  C   UNL     1       5.124   4.968  18.393  0.00  0.00    +0.000 A 
ATOM     20 BR   UNL     1       6.951   4.884  17.872  0.00  0.00    +0.000 Br
ATOM     21  C   UNL     1       4.538   3.895  19.084  0.00  0.00    +0.000 A 
BRANCH  15  23
ATOM     22  C   UNL     1       2.229   3.182  21.506  0.00  0.00    +0.000 C 
ATOM     23  O   UNL     1       2.443   3.021  20.109  0.00  0.00    +0.000 OA
ENDBRANCH  15  23
BRANCH  21  24
ATOM     24  O   UNL     1       5.293   2.791  19.383  0.00  0.00    +0.000 OA
ATOM     25  H   UNL     1       4.941   2.389  20.198  0.00  0.00    +0.000 HD
ENDBRANCH  21  24
ENDBRANCH   1  17
TORSDOF 4
ENDMDL
MODEL 6
REMARK VINA RESULT:      -7.4      2.971      3.961
REMARK  Name = 
REMARK  5 active torsions:
REMARK  status: ('A' for Active; 'I' for Inactive)
REMARK    1  A    between atoms: C_1  and  O_2
REMARK    2  A    between atoms: O_2  and  C_3
REMARK    3  A    between atoms: C_5  and  C_6
REMARK    4  A    between atoms: N_7  and  N_8
REMARK    5  A    between atoms: C_21  and  O_22
REMARK                            x       y       z     vdW  Elec       q    Type
REMARK                         _______ _______ _______ _____ _____    ______ ____
ROOT
ATOM      1  C   UNL     1       2.208   7.583  18.813  0.00  0.00    +0.000 C 
ATOM      2  N   UNL     1       2.117   8.743  18.243  0.00  0.00    +0.000 NA
ENDROOT
BRANCH   2   3
ATOM      3  N   UNL     1       1.398   9.700  18.906  0.00  0.00    +0.000 N 
ATOM      4  C   UNL     1       0.166  10.089  18.502  0.00  0.00    +0.000 A 
ATOM      5  N   UNL     1      -0.614  11.037  18.970  0.00  0.00    +0.000 NA
ATOM      6  C   UNL     1      -1.743  11.010  18.172  0.00  0.00    +0.000 A 
ATOM      7  C   UNL     1      -2.905  11.797  18.212  0.00  0.00    +0.000 A 
ATOM      8  C   UNL     1      -3.913  11.565  17.262  0.00  0.00    +0.000 A 
ATOM      9  C   UNL     1      -3.767  10.571  16.290  0.00  0.00    +0.000 A 
ATOM     10  C   UNL     1      -2.619   9.775  16.237  0.00  0.00    +0.000 A 
ATOM     11  C   UNL     1      -1.636  10.026  17.195  0.00  0.00    +0.000 A 
ATOM     12  N   UNL     1      -0.416   9.456  17.437  0.00  0.00    +0.000 N 
ATOM     13  H   UNL     1       1.841  10.288  19.610  0.00  0.00    +0.000 HD
ATOM     14  H   UNL     1       0.034   8.706  16.932  0.00  0.00    +0.000 HD
ENDBRANCH   2   3
BRANCH   1  17
ATOM     15  C   UNL     1       3.128   4.210  17.321  0.00  0.00    +0.000 A 
ATOM     16  C   UNL     1       2.411   5.251  17.934  0.00  0.00    +0.000 A 
ATOM     17  C   UNL     1       3.004   6.492  18.195  0.00  0.00    +0.000 A 
ATOM     18  C   UNL     1       4.339   6.706  17.848  0.00  0.00    +0.000 A 
ATOM     19  C   UNL     1       5.060   5.671  17.243  0.00  0.00    +0.000 A 
ATOM     20 BR   UNL     1       6.875   5.982  16.770  0.00  0.00    +0.000 Br
ATOM     21  C   UNL     1       4.465   4.427  16.977  0.00  0.00    +0.000 A 
BRANCH  15  23
ATOM     22  C   UNL     1       1.977   2.335  18.269  0.00  0.00    +0.000 C 
ATOM     23  O   UNL     1       2.372   3.085  17.127  0.00  0.00    +0.000 OA
ENDBRANCH  15  23
BRANCH  21  24
ATOM     24  O   UNL     1       5.203   3.439  16.379  0.00  0.00    +0.000 OA
ATOM     25  H   UNL     1       4.834   3.273  15.493  0.00  0.00    +0.000 HD
ENDBRANCH  21  24
ENDBRANCH   1  17
TORSDOF 4
ENDMDL
MODEL 7
REMARK VINA RESULT:      -7.3      4.859      8.672
REMARK  Name = 
REMARK  5 active torsions:
REMARK  status: ('A' for Active; 'I' for Inactive)
REMARK    1  A    between atoms: C_1  and  O_2
REMARK    2  A    between atoms: O_2  and  C_3
REMARK    3  A    between atoms: C_5  and  C_6
REMARK    4  A    between atoms: N_7  and  N_8
REMARK    5  A    between atoms: C_21  and  O_22
REMARK                            x       y       z     vdW  Elec       q    Type
REMARK                         _______ _______ _______ _____ _____    ______ ____
ROOT
ATOM      1  C   UNL     1       1.394   9.513  18.664  0.00  0.00    +0.000 C 
ATOM      2  N   UNL     1       1.795   8.676  17.760  0.00  0.00    +0.000 NA
ENDROOT
BRANCH   2   3
ATOM      3  N   UNL     1       3.002   8.069  17.978  0.00  0.00    +0.000 N 
ATOM      4  C   UNL     1       3.125   6.727  18.105  0.00  0.00    +0.000 A 
ATOM      5  N   UNL     1       4.181   6.000  18.394  0.00  0.00    +0.000 NA
ATOM      6  C   UNL     1       3.732   4.693  18.411  0.00  0.00    +0.000 A 
ATOM      7  C   UNL     1       4.423   3.496  18.661  0.00  0.00    +0.000 A 
ATOM      8  C   UNL     1       3.713   2.285  18.627  0.00  0.00    +0.000 A 
ATOM      9  C   UNL     1       2.344   2.263  18.351  0.00  0.00    +0.000 A 
ATOM     10  C   UNL     1       1.639   3.444  18.096  0.00  0.00    +0.000 A 
ATOM     11  C   UNL     1       2.370   4.632  18.133  0.00  0.00    +0.000 A 
ATOM     12  N   UNL     1       2.017   5.939  17.938  0.00  0.00    +0.000 N 
ATOM     13  H   UNL     1       3.819   8.616  18.245  0.00  0.00    +0.000 HD
ATOM     14  H   UNL     1       1.105   6.314  17.723  0.00  0.00    +0.000 HD
ENDBRANCH   2   3
BRANCH   1  17
ATOM     15  C   UNL     1      -2.101  10.377  17.442  0.00  0.00    +0.000 A 
ATOM     16  C   UNL     1      -0.835   9.779  17.562  0.00  0.00    +0.000 A 
ATOM     17  C   UNL     1       0.077  10.190  18.542  0.00  0.00    +0.000 A 
ATOM     18  C   UNL     1      -0.268  11.221  19.418  0.00  0.00    +0.000 A 
ATOM     19  C   UNL     1      -1.525  11.825  19.298  0.00  0.00    +0.000 A 
ATOM     20 BR   UNL     1      -1.981  13.222  20.504  0.00  0.00    +0.000 Br
ATOM     21  C   UNL     1      -2.442  11.411  18.318  0.00  0.00    +0.000 A 
BRANCH  15  23
ATOM     22  C   UNL     1      -2.937  10.509  15.200  0.00  0.00    +0.000 C 
ATOM     23  O   UNL     1      -2.858   9.824  16.444  0.00  0.00    +0.000 OA
ENDBRANCH  15  23
BRANCH  21  24
ATOM     24  O   UNL     1      -3.665  12.024  18.236  0.00  0.00    +0.000 OA
ATOM     25  H   UNL     1      -4.223  11.516  17.620  0.00  0.00    +0.000 HD
ENDBRANCH  21  24
ENDBRANCH   1  17
TORSDOF 4
ENDMDL
MODEL 8
REMARK VINA RESULT:      -7.2      1.150      1.247
REMARK  Name = 
REMARK  5 active torsions:
REMARK  status: ('A' for Active; 'I' for Inactive)
REMARK    1  A    between atoms: C_1  and  O_2
REMARK    2  A    between atoms: O_2  and  C_3
REMARK    3  A    between atoms: C_5  and  C_6
REMARK    4  A    between atoms: N_7  and  N_8
REMARK    5  A    between atoms: C_21  and  O_22
REMARK                            x       y       z     vdW  Elec       q    Type
REMARK                         _______ _______ _______ _____ _____    ______ ____
ROOT
ATOM      1  C   UNL     1       2.441   8.085  17.858  0.00  0.00    +0.000 C 
ATOM      2  N   UNL     1       1.739   8.606  18.814  0.00  0.00    +0.000 NA
ENDROOT
BRANCH   2   3
ATOM      3  N   UNL     1       0.982   9.700  18.496  0.00  0.00    +0.000 N 
ATOM      4  C   UNL     1       0.227  10.349  19.412  0.00  0.00    +0.000 A 
ATOM      5  N   UNL     1      -0.610  11.352  19.259  0.00  0.00    +0.000 NA
ATOM      6  C   UNL     1      -1.117  11.601  20.521  0.00  0.00    +0.000 A 
ATOM      7  C   UNL     1      -2.048  12.559  20.954  0.00  0.00    +0.000 A 
ATOM      8  C   UNL     1      -2.404  12.591  22.312  0.00  0.00    +0.000 A 
ATOM      9  C   UNL     1      -1.847  11.688  23.221  0.00  0.00    +0.000 A 
ATOM     10  C   UNL     1      -0.915  10.729  22.809  0.00  0.00    +0.000 A 
ATOM     11  C   UNL     1      -0.578  10.723  21.455  0.00  0.00    +0.000 A 
ATOM     12  N   UNL     1       0.275   9.946  20.720  0.00  0.00    +0.000 N 
ATOM     13  H   UNL     1       0.808   9.947  17.523  0.00  0.00    +0.000 HD
ATOM     14  H   UNL     1       0.852   9.180  21.037  0.00  0.00    +0.000 HD
ENDBRANCH   2   3
BRANCH   1  17
ATOM     15  C   UNL     1       5.340   5.630  17.736  0.00  0.00    +0.000 A 
ATOM     16  C   UNL     1       4.528   6.753  17.508  0.00  0.00    +0.000 A 
ATOM     17  C   UNL     1       3.261   6.869  18.092  0.00  0.00    +0.000 A 
ATOM     18  C   UNL     1       2.782   5.846  18.914  0.00  0.00    +0.000 A 
ATOM     19  C   UNL     1       3.585   4.722  19.139  0.00  0.00    +0.000 A 
ATOM     20 BR   UNL     1       2.921   3.343  20.267  0.00  0.00    +0.000 Br
ATOM     21  C   UNL     1       4.858   4.607  18.557  0.00  0.00    +0.000 A 
BRANCH  15  23
ATOM     22  C   UNL     1       7.453   6.735  17.498  0.00  0.00    +0.000 C 
ATOM     23  O   UNL     1       6.550   5.710  17.101  0.00  0.00    +0.000 OA
ENDBRANCH  15  23
BRANCH  21  24
ATOM     24  O   UNL     1       5.615   3.492  18.806  0.00  0.00    +0.000 OA
ATOM     25  H   UNL     1       5.344   2.791  18.186  0.00  0.00    +0.000 HD
ENDBRANCH  21  24
ENDBRANCH   1  17
TORSDOF 4
ENDMDL
MODEL 9
REMARK VINA RESULT:      -7.1      4.925      8.621
REMARK  Name = 
REMARK  5 active torsions:
REMARK  status: ('A' for Active; 'I' for Inactive)
REMARK    1  A    between atoms: C_1  and  O_2
REMARK    2  A    between atoms: O_2  and  C_3
REMARK    3  A    between atoms: C_5  and  C_6
REMARK    4  A    between atoms: N_7  and  N_8
REMARK    5  A    between atoms: C_21  and  O_22
REMARK                            x       y       z     vdW  Elec       q    Type
REMARK                         _______ _______ _______ _____ _____    ______ ____
ROOT
ATOM      1  C   UNL     1       0.601   9.034  20.695  0.00  0.00    +0.000 C 
ATOM      2  N   UNL     1       1.596   8.292  20.322  0.00  0.00    +0.000 NA
ENDROOT
BRANCH   2   3
ATOM      3  N   UNL     1       1.822   7.155  21.050  0.00  0.00    +0.000 N 
ATOM      4  C   UNL     1       2.030   5.952  20.466  0.00  0.00    +0.000 A 
ATOM      5  N   UNL     1       2.178   4.765  21.010  0.00  0.00    +0.000 NA
ATOM      6  C   UNL     1       2.341   3.894  19.949  0.00  0.00    +0.000 A 
ATOM      7  C   UNL     1       2.540   2.504  19.935  0.00  0.00    +0.000 A 
ATOM      8  C   UNL     1       2.667   1.850  18.699  0.00  0.00    +0.000 A 
ATOM      9  C   UNL     1       2.596   2.564  17.499  0.00  0.00    +0.000 A 
ATOM     10  C   UNL     1       2.403   3.949  17.493  0.00  0.00    +0.000 A 
ATOM     11  C   UNL     1       2.283   4.572  18.736  0.00  0.00    +0.000 A 
ATOM     12  N   UNL     1       2.091   5.877  19.100  0.00  0.00    +0.000 N 
ATOM     13  H   UNL     1       1.649   7.137  22.054  0.00  0.00    +0.000 HD
ATOM     14  H   UNL     1       1.986   6.683  18.502  0.00  0.00    +0.000 HD
ENDBRANCH   2   3
BRANCH   1  17
ATOM     15  C   UNL     1      -1.203  11.409  18.339  0.00  0.00    +0.000 A 
ATOM     16  C   UNL     1      -0.824  10.253  19.041  0.00  0.00    +0.000 A 
ATOM     17  C   UNL     1       0.248  10.265  19.943  0.00  0.00    +0.000 A 
ATOM     18  C   UNL     1       0.965  11.445  20.148  0.00  0.00    +0.000 A 
ATOM     19  C   UNL     1       0.596  12.598  19.446  0.00  0.00    +0.000 A 
ATOM     20 BR   UNL     1       1.578  14.198  19.743  0.00  0.00    +0.000 Br
ATOM     21  C   UNL     1      -0.482  12.588  18.544  0.00  0.00    +0.000 A 
BRANCH  15  23
ATOM     22  C   UNL     1      -2.288  10.062  16.680  0.00  0.00    +0.000 C 
ATOM     23  O   UNL     1      -2.286  11.206  17.526  0.00  0.00    +0.000 OA
ENDBRANCH  15  23
BRANCH  21  24
ATOM     24  O   UNL     1      -0.816  13.739  17.879  0.00  0.00    +0.000 OA
ATOM     25  H   UNL     1      -0.478  14.498  18.388  0.00  0.00    +0.000 HD
ENDBRANCH  21  24
ENDBRANCH   1  17
TORSDOF 4
ENDMDL
