MODEL 1
REMARK VINA RESULT:      -8.6      0.000      0.000
REMARK  Name = 
REMARK  8 active torsions:
REMARK  status: ('A' for Active; 'I' for Inactive)
REMARK    1  A    between atoms: C_2  and  C_24
REMARK    2  A    between atoms: N_3  and  C_4
REMARK    3  A    between atoms: C_4  and  C_5
REMARK    4  A    between atoms: C_5  and  C_6
REMARK    5  A    between atoms: C_5  and  C_14
REMARK    6  A    between atoms: C_6  and  C_7
REMARK    7  A    between atoms: C_7  and  C_8
REMARK    8  A    between atoms: C_17  and  C_18
REMARK                            x       y       z     vdW  Elec       q    Type
REMARK                         _______ _______ _______ _____ _____    ______ ____
ROOT
ATOM      1  C   UNL     1       3.063   6.133  18.257  0.00  0.00    +0.000 C 
ENDROOT
BRANCH   1   2
ATOM      2  C   UNL     1       4.103   5.784  17.215  0.00  0.00    +0.000 A 
ATOM      3  C   UNL     1       4.526   4.484  17.021  0.00  0.00    +0.000 A 
ATOM      4  N   UNL     1       5.414   4.113  16.077  0.00  0.00    +0.000 NA
ATOM      5  C   UNL     1       5.914   5.086  15.277  0.00  0.00    +0.000 A 
ATOM      6  N   UNL     1       5.569   6.393  15.401  0.00  0.00    +0.000 NA
ATOM      7  C   UNL     1       4.680   6.706  16.363  0.00  0.00    +0.000 A 
BRANCH   5   8
ATOM      8  C   UNL     1       6.908   4.698  14.173  0.00  0.00    +0.000 C 
ATOM      9  F   UNL     1       8.199   4.569  14.603  0.00  0.00    +0.000 F 
ATOM     10  F   UNL     1       6.606   3.502  13.579  0.00  0.00    +0.000 F 
ATOM     11  F   UNL     1       6.957   5.609  13.154  0.00  0.00    +0.000 F 
ENDBRANCH   5   8
ENDBRANCH   1   2
BRANCH   1  12
ATOM     12  C   UNL     1       2.684   7.636  18.152  0.00  0.00    +0.000 C 
BRANCH  12  15
ATOM     13  O   UNL     1       0.770   9.770  18.203  0.00  0.00    +0.000 OA
ATOM     14  C   UNL     1       1.102   9.234  19.252  0.00  0.00    +0.000 C 
ATOM     15  N   UNL     1       2.008   8.197  19.311  0.00  0.00    +0.000 N 
ATOM     16  H   UNL     1       2.113   7.708  20.192  0.00  0.00    +0.000 HD
BRANCH  14  17
ATOM     17  C   UNL     1       0.478   9.656  20.544  0.00  0.00    +0.000 A 
ATOM     18  C   UNL     1       0.064   8.629  21.414  0.00  0.00    +0.000 A 
ATOM     19  C   UNL     1      -0.509   8.920  22.655  0.00  0.00    +0.000 A 
ATOM     20  C   UNL     1      -0.686  10.245  23.040  0.00  0.00    +0.000 A 
ATOM     21  C   UNL     1      -0.300  11.266  22.178  0.00  0.00    +0.000 A 
ATOM     22  F   UNL     1      -0.495  12.534  22.573  0.00  0.00    +0.000 F 
ATOM     23  C   UNL     1       0.272  10.990  20.929  0.00  0.00    +0.000 A 
ATOM     24 CL   UNL     1       0.644  12.348  19.920  0.00  0.00    +0.000 Cl
ENDBRANCH  14  17
ENDBRANCH  12  15
ENDBRANCH   1  12
BRANCH   1  25
ATOM     25  C   UNL     1       1.820   5.210  18.157  0.00  0.00    +0.000 C 
BRANCH  25  26
ATOM     26  C   UNL     1       1.703   4.140  19.243  0.00  0.00    +0.000 C 
ATOM     27  C   UNL     1       2.579   4.344  20.479  0.00  0.00    +0.000 C 
ATOM     28  C   UNL     1       1.100   4.522  20.595  0.00  0.00    +0.000 C 
BRANCH  26  29
ATOM     29  C   UNL     1       1.522   2.715  18.752  0.00  0.00    +0.000 C 
ATOM     30  F   UNL     1       0.227   2.331  18.764  0.00  0.00    +0.000 F 
ATOM     31  F   UNL     1       1.969   2.572  17.482  0.00  0.00    +0.000 F 
ATOM     32  F   UNL     1       2.213   1.852  19.532  0.00  0.00    +0.000 F 
ENDBRANCH  26  29
ENDBRANCH  25  26
ENDBRANCH   1  25
TORSDOF 8
ENDMDL
MODEL 2
REMARK VINA RESULT:      -8.5      0.100      1.274
REMARK  Name = 
REMARK  8 active torsions:
REMARK  status: ('A' for Active; 'I' for Inactive)
REMARK    1  A    between atoms: C_2  and  C_24
REMARK    2  A    between atoms: N_3  and  C_4
REMARK    3  A    between atoms: C_4  and  C_5
REMARK    4  A    between atoms: C_5  and  C_6
REMARK    5  A    between atoms: C_5  and  C_14
REMARK    6  A    between atoms: C_6  and  C_7
REMARK    7  A    between atoms: C_7  and  C_8
REMARK    8  A    between atoms: C_17  and  C_18
REMARK                            x       y       z     vdW  Elec       q    Type
REMARK                         _______ _______ _______ _____ _____    ______ ____
ROOT
ATOM      1  C   UNL     1       3.063   6.085  18.237  0.00  0.00    +0.000 C 
ENDROOT
BRANCH   1   2
ATOM      2  C   UNL     1       4.043   5.710  17.148  0.00  0.00    +0.000 A 
ATOM      3  C   UNL     1       4.714   6.669  16.415  0.00  0.00    +0.000 A 
ATOM      4  N   UNL     1       5.631   6.388  15.467  0.00  0.00    +0.000 NA
ATOM      5  C   UNL     1       5.899   5.081  15.230  0.00  0.00    +0.000 A 
ATOM      6  N   UNL     1       5.281   4.068  15.889  0.00  0.00    +0.000 NA
ATOM      7  C   UNL     1       4.372   4.408  16.823  0.00  0.00    +0.000 A 
BRANCH   5   8
ATOM      8  C   UNL     1       6.957   4.723  14.175  0.00  0.00    +0.000 C 
ATOM      9  F   UNL     1       6.733   3.534  13.539  0.00  0.00    +0.000 F 
ATOM     10  F   UNL     1       7.050   5.653  13.175  0.00  0.00    +0.000 F 
ATOM     11  F   UNL     1       8.218   4.620  14.696  0.00  0.00    +0.000 F 
ENDBRANCH   5   8
ENDBRANCH   1   2
BRANCH   1  12
ATOM     12  C   UNL     1       2.716   7.596  18.147  0.00  0.00    +0.000 C 
BRANCH  12  15
ATOM     13  O   UNL     1       0.898   9.814  18.205  0.00  0.00    +0.000 OA
ATOM     14  C   UNL     1       1.174   9.234  19.247  0.00  0.00    +0.000 C 
ATOM     15  N   UNL     1       2.030   8.155  19.302  0.00  0.00    +0.000 N 
ATOM     16  H   UNL     1       2.086   7.636  20.170  0.00  0.00    +0.000 HD
BRANCH  14  17
ATOM     17  C   UNL     1       0.530   9.647  20.533  0.00  0.00    +0.000 A 
ATOM     18  C   UNL     1       0.093   8.614  21.384  0.00  0.00    +0.000 A 
ATOM     19  C   UNL     1      -0.499   8.896  22.618  0.00  0.00    +0.000 A 
ATOM     20  C   UNL     1      -0.673  10.219  23.013  0.00  0.00    +0.000 A 
ATOM     21  C   UNL     1      -0.265  11.246  22.169  0.00  0.00    +0.000 A 
ATOM     22  F   UNL     1      -0.458  12.511  22.573  0.00  0.00    +0.000 F 
ATOM     23  C   UNL     1       0.327  10.979  20.927  0.00  0.00    +0.000 A 
ATOM     24 CL   UNL     1       0.726  12.344  19.939  0.00  0.00    +0.000 Cl
ENDBRANCH  14  17
ENDBRANCH  12  15
ENDBRANCH   1  12
BRANCH   1  25
ATOM     25  C   UNL     1       1.795   5.192  18.199  0.00  0.00    +0.000 C 
BRANCH  25  26
ATOM     26  C   UNL     1       1.708   4.123  19.289  0.00  0.00    +0.000 C 
ATOM     27  C   UNL     1       2.633   4.316  20.490  0.00  0.00    +0.000 C 
ATOM     28  C   UNL     1       1.163   4.512  20.664  0.00  0.00    +0.000 C 
BRANCH  26  29
ATOM     29  C   UNL     1       1.490   2.701  18.806  0.00  0.00    +0.000 C 
ATOM     30  F   UNL     1       2.090   1.791  19.605  0.00  0.00    +0.000 F 
ATOM     31  F   UNL     1       0.172   2.391  18.770  0.00  0.00    +0.000 F 
ATOM     32  F   UNL     1       1.987   2.541  17.558  0.00  0.00    +0.000 F 
ENDBRANCH  26  29
ENDBRANCH  25  26
ENDBRANCH   1  25
TORSDOF 8
ENDMDL
MODEL 3
REMARK VINA RESULT:      -8.4      1.247      1.765
REMARK  Name = 
REMARK  8 active torsions:
REMARK  status: ('A' for Active; 'I' for Inactive)
REMARK    1  A    between atoms: C_2  and  C_24
REMARK    2  A    between atoms: N_3  and  C_4
REMARK    3  A    between atoms: C_4  and  C_5
REMARK    4  A    between atoms: C_5  and  C_6
REMARK    5  A    between atoms: C_5  and  C_14
REMARK    6  A    between atoms: C_6  and  C_7
REMARK    7  A    between atoms: C_7  and  C_8
REMARK    8  A    between atoms: C_17  and  C_18
REMARK                            x       y       z     vdW  Elec       q    Type
REMARK                         _______ _______ _______ _____ _____    ______ ____
ROOT
ATOM      1  C   UNL     1       2.906   6.004  18.323  0.00  0.00    +0.000 C 
ENDROOT
BRANCH   1   2
ATOM      2  C   UNL     1       3.977   5.677  17.305  0.00  0.00    +0.000 A 
ATOM      3  C   UNL     1       4.224   4.378  16.905  0.00  0.00    +0.000 A 
ATOM      4  N   UNL     1       5.133   4.038  15.969  0.00  0.00    +0.000 NA
ATOM      5  C   UNL     1       5.839   5.042  15.394  0.00  0.00    +0.000 A 
ATOM      6  N   UNL     1       5.676   6.347  15.732  0.00  0.00    +0.000 NA
ATOM      7  C   UNL     1       4.757   6.627  16.675  0.00  0.00    +0.000 A 
BRANCH   5   8
ATOM      8  C   UNL     1       6.865   4.696  14.305  0.00  0.00    +0.000 C 
ATOM      9  F   UNL     1       6.836   5.531  13.224  0.00  0.00    +0.000 F 
ATOM     10  F   UNL     1       8.157   4.735  14.756  0.00  0.00    +0.000 F 
ATOM     11  F   UNL     1       6.696   3.438  13.793  0.00  0.00    +0.000 F 
ENDBRANCH   5   8
ENDBRANCH   1   2
BRANCH   1  12
ATOM     12  C   UNL     1       2.494   7.496  18.205  0.00  0.00    +0.000 C 
BRANCH  12  15
ATOM     13  O   UNL     1       1.083   9.987  18.382  0.00  0.00    +0.000 OA
ATOM     14  C   UNL     1       1.167   9.271  19.370  0.00  0.00    +0.000 C 
ATOM     15  N   UNL     1       1.819   8.056  19.366  0.00  0.00    +0.000 N 
ATOM     16  H   UNL     1       1.712   7.456  20.175  0.00  0.00    +0.000 HD
BRANCH  14  17
ATOM     17  C   UNL     1       0.497   9.668  20.648  0.00  0.00    +0.000 A 
ATOM     18  C   UNL     1       0.907   8.996  21.815  0.00  0.00    +0.000 A 
ATOM     19  C   UNL     1       0.358   9.311  23.061  0.00  0.00    +0.000 A 
ATOM     20  C   UNL     1      -0.618  10.298  23.155  0.00  0.00    +0.000 A 
ATOM     21  C   UNL     1      -1.045  10.952  22.005  0.00  0.00    +0.000 A 
ATOM     22  F   UNL     1      -1.997  11.890  22.127  0.00  0.00    +0.000 F 
ATOM     23  C   UNL     1      -0.507  10.644  20.748  0.00  0.00    +0.000 A 
ATOM     24 CL   UNL     1      -1.173  11.479  19.385  0.00  0.00    +0.000 Cl
ENDBRANCH  14  17
ENDBRANCH  12  15
ENDBRANCH   1  12
BRANCH   1  25
ATOM     25  C   UNL     1       1.688   5.050  18.198  0.00  0.00    +0.000 C 
BRANCH  25  26
ATOM     26  C   UNL     1       1.611   3.938  19.245  0.00  0.00    +0.000 C 
ATOM     27  C   UNL     1       0.778   2.716  18.861  0.00  0.00    +0.000 C 
ATOM     28  C   UNL     1       2.265   2.589  18.939  0.00  0.00    +0.000 C 
BRANCH  26  29
ATOM     29  C   UNL     1       1.545   4.393  20.691  0.00  0.00    +0.000 C 
ATOM     30  F   UNL     1       2.766   4.681  21.194  0.00  0.00    +0.000 F 
ATOM     31  F   UNL     1       0.788   5.508  20.822  0.00  0.00    +0.000 F 
ATOM     32  F   UNL     1       0.999   3.429  21.468  0.00  0.00    +0.000 F 
ENDBRANCH  26  29
ENDBRANCH  25  26
ENDBRANCH   1  25
TORSDOF 8
ENDMDL
MODEL 4
REMARK VINA RESULT:      -8.3      0.749      1.240
REMARK  Name = 
REMARK  8 active torsions:
REMARK  status: ('A' for Active; 'I' for Inactive)
REMARK    1  A    between atoms: C_2  and  C_24
REMARK    2  A    between atoms: N_3  and  C_4
REMARK    3  A    between atoms: C_4  and  C_5
REMARK    4  A    between atoms: C_5  and  C_6
REMARK    5  A    between atoms: C_5  and  C_14
REMARK    6  A    between atoms: C_6  and  C_7
REMARK    7  A    between atoms: C_7  and  C_8
REMARK    8  A    between atoms: C_17  and  C_18
REMARK                            x       y       z     vdW  Elec       q    Type
REMARK                         _______ _______ _______ _____ _____    ______ ____
ROOT
ATOM      1  C   UNL     1       3.105   6.028  18.272  0.00  0.00    +0.000 C 
ENDROOT
BRANCH   1   2
ATOM      2  C   UNL     1       4.135   5.703  17.213  0.00  0.00    +0.000 A 
ATOM      3  C   UNL     1       4.376   4.404  16.811  0.00  0.00    +0.000 A 
ATOM      4  N   UNL     1       5.248   4.065  15.840  0.00  0.00    +0.000 NA
ATOM      5  C   UNL     1       5.922   5.071  15.231  0.00  0.00    +0.000 A 
ATOM      6  N   UNL     1       5.762   6.377  15.567  0.00  0.00    +0.000 NA
ATOM      7  C   UNL     1       4.880   6.656  16.546  0.00  0.00    +0.000 A 
BRANCH   5   8
ATOM      8  C   UNL     1       6.904   4.726  14.103  0.00  0.00    +0.000 C 
ATOM      9  F   UNL     1       6.722   3.483  13.563  0.00  0.00    +0.000 F 
ATOM     10  F   UNL     1       6.828   5.592  13.044  0.00  0.00    +0.000 F 
ATOM     11  F   UNL     1       8.212   4.756  14.504  0.00  0.00    +0.000 F 
ENDBRANCH   5   8
ENDBRANCH   1   2
BRANCH   1  12
ATOM     12  C   UNL     1       2.627   7.498  18.120  0.00  0.00    +0.000 C 
BRANCH  12  15
ATOM     13  O   UNL     1       1.430  10.094  18.355  0.00  0.00    +0.000 OA
ATOM     14  C   UNL     1       1.366   9.314  19.296  0.00  0.00    +0.000 C 
ATOM     15  N   UNL     1       1.905   8.046  19.259  0.00  0.00    +0.000 N 
ATOM     16  H   UNL     1       1.677   7.410  20.014  0.00  0.00    +0.000 HD
BRANCH  14  17
ATOM     17  C   UNL     1       0.625   9.693  20.540  0.00  0.00    +0.000 A 
ATOM     18  C   UNL     1       1.010   9.045  21.729  0.00  0.00    +0.000 A 
ATOM     19  C   UNL     1       0.396   9.346  22.948  0.00  0.00    +0.000 A 
ATOM     20  C   UNL     1      -0.621  10.294  22.991  0.00  0.00    +0.000 A 
ATOM     21  C   UNL     1      -1.023  10.923  21.818  0.00  0.00    +0.000 A 
ATOM     22  F   UNL     1      -2.016  11.823  21.891  0.00  0.00    +0.000 F 
ATOM     23  C   UNL     1      -0.419  10.628  20.588  0.00  0.00    +0.000 A 
ATOM     24 CL   UNL     1      -1.058  11.428  19.191  0.00  0.00    +0.000 Cl
ENDBRANCH  14  17
ENDBRANCH  12  15
ENDBRANCH   1  12
BRANCH   1  25
ATOM     25  C   UNL     1       1.922   5.024  18.247  0.00  0.00    +0.000 C 
BRANCH  25  26
ATOM     26  C   UNL     1       1.874   4.031  19.409  0.00  0.00    +0.000 C 
ATOM     27  C   UNL     1       2.353   4.561  20.761  0.00  0.00    +0.000 C 
ATOM     28  C   UNL     1       0.898   4.286  20.559  0.00  0.00    +0.000 C 
BRANCH  26  29
ATOM     29  C   UNL     1       2.223   2.595  19.067  0.00  0.00    +0.000 C 
ATOM     30  F   UNL     1       3.534   2.328  19.254  0.00  0.00    +0.000 F 
ATOM     31  F   UNL     1       1.526   1.723  19.835  0.00  0.00    +0.000 F 
ATOM     32  F   UNL     1       1.931   2.329  17.773  0.00  0.00    +0.000 F 
ENDBRANCH  26  29
ENDBRANCH  25  26
ENDBRANCH   1  25
TORSDOF 8
ENDMDL
MODEL 5
REMARK VINA RESULT:      -8.3      1.236      1.923
REMARK  Name = 
REMARK  8 active torsions:
REMARK  status: ('A' for Active; 'I' for Inactive)
REMARK    1  A    between atoms: C_2  and  C_24
REMARK    2  A    between atoms: N_3  and  C_4
REMARK    3  A    between atoms: C_4  and  C_5
REMARK    4  A    between atoms: C_5  and  C_6
REMARK    5  A    between atoms: C_5  and  C_14
REMARK    6  A    between atoms: C_6  and  C_7
REMARK    7  A    between atoms: C_7  and  C_8
REMARK    8  A    between atoms: C_17  and  C_18
REMARK                            x       y       z     vdW  Elec       q    Type
REMARK                         _______ _______ _______ _____ _____    ______ ____
ROOT
ATOM      1  C   UNL     1       2.977   6.005  18.270  0.00  0.00    +0.000 C 
ENDROOT
BRANCH   1   2
ATOM      2  C   UNL     1       3.973   5.639  17.192  0.00  0.00    +0.000 A 
ATOM      3  C   UNL     1       4.656   6.604  16.478  0.00  0.00    +0.000 A 
ATOM      4  N   UNL     1       5.586   6.332  15.541  0.00  0.00    +0.000 NA
ATOM      5  C   UNL     1       5.857   5.027  15.295  0.00  0.00    +0.000 A 
ATOM      6  N   UNL     1       5.228   4.008  15.935  0.00  0.00    +0.000 NA
ATOM      7  C   UNL     1       4.306   4.340  16.859  0.00  0.00    +0.000 A 
BRANCH   5   8
ATOM      8  C   UNL     1       6.930   4.678  14.253  0.00  0.00    +0.000 C 
ATOM      9  F   UNL     1       7.071   5.609  13.262  0.00  0.00    +0.000 F 
ATOM     10  F   UNL     1       8.179   4.542  14.797  0.00  0.00    +0.000 F 
ATOM     11  F   UNL     1       6.684   3.497  13.606  0.00  0.00    +0.000 F 
ENDBRANCH   5   8
ENDBRANCH   1   2
BRANCH   1  12
ATOM     12  C   UNL     1       2.631   7.516  18.187  0.00  0.00    +0.000 C 
BRANCH  12  15
ATOM     13  O   UNL     1       1.040   9.900  18.309  0.00  0.00    +0.000 OA
ATOM     14  C   UNL     1       1.200   9.230  19.321  0.00  0.00    +0.000 C 
ATOM     15  N   UNL     1       1.941   8.068  19.343  0.00  0.00    +0.000 N 
ATOM     16  H   UNL     1       1.898   7.493  20.176  0.00  0.00    +0.000 HD
BRANCH  14  17
ATOM     17  C   UNL     1       0.531   9.625  20.599  0.00  0.00    +0.000 A 
ATOM     18  C   UNL     1       0.910   8.921  21.758  0.00  0.00    +0.000 A 
ATOM     19  C   UNL     1       0.359   9.230  23.005  0.00  0.00    +0.000 A 
ATOM     20  C   UNL     1      -0.588  10.243  23.108  0.00  0.00    +0.000 A 
ATOM     21  C   UNL     1      -0.984  10.931  21.966  0.00  0.00    +0.000 A 
ATOM     22  F   UNL     1      -1.909  11.894  22.096  0.00  0.00    +0.000 F 
ATOM     23  C   UNL     1      -0.445  10.628  20.708  0.00  0.00    +0.000 A 
ATOM     24 CL   UNL     1      -1.073  11.507  19.354  0.00  0.00    +0.000 Cl
ENDBRANCH  14  17
ENDBRANCH  12  15
ENDBRANCH   1  12
BRANCH   1  25
ATOM     25  C   UNL     1       1.710   5.111  18.206  0.00  0.00    +0.000 C 
BRANCH  25  26
ATOM     26  C   UNL     1       1.640   3.990  19.244  0.00  0.00    +0.000 C 
ATOM     27  C   UNL     1       0.728   2.814  18.896  0.00  0.00    +0.000 C 
ATOM     28  C   UNL     1       2.209   2.616  18.887  0.00  0.00    +0.000 C 
BRANCH  26  29
ATOM     29  C   UNL     1       1.679   4.429  20.696  0.00  0.00    +0.000 C 
ATOM     30  F   UNL     1       1.271   3.454  21.536  0.00  0.00    +0.000 F 
ATOM     31  F   UNL     1       2.933   4.778  21.070  0.00  0.00    +0.000 F 
ATOM     32  F   UNL     1       0.876   5.501  20.890  0.00  0.00    +0.000 F 
ENDBRANCH  26  29
ENDBRANCH  25  26
ENDBRANCH   1  25
TORSDOF 8
ENDMDL
MODEL 6
REMARK VINA RESULT:      -8.2      0.772      1.457
REMARK  Name = 
REMARK  8 active torsions:
REMARK  status: ('A' for Active; 'I' for Inactive)
REMARK    1  A    between atoms: C_2  and  C_24
REMARK    2  A    between atoms: N_3  and  C_4
REMARK    3  A    between atoms: C_4  and  C_5
REMARK    4  A    between atoms: C_5  and  C_6
REMARK    5  A    between atoms: C_5  and  C_14
REMARK    6  A    between atoms: C_6  and  C_7
REMARK    7  A    between atoms: C_7  and  C_8
REMARK    8  A    between atoms: C_17  and  C_18
REMARK                            x       y       z     vdW  Elec       q    Type
REMARK                         _______ _______ _______ _____ _____    ______ ____
ROOT
ATOM      1  C   UNL     1       3.270   6.036  18.257  0.00  0.00    +0.000 C 
ENDROOT
BRANCH   1   2
ATOM      2  C   UNL     1       4.191   5.685  17.110  0.00  0.00    +0.000 A 
ATOM      3  C   UNL     1       4.897   6.654  16.425  0.00  0.00    +0.000 A 
ATOM      4  N   UNL     1       5.765   6.390  15.427  0.00  0.00    +0.000 NA
ATOM      5  C   UNL     1       5.945   5.091  15.087  0.00  0.00    +0.000 A 
ATOM      6  N   UNL     1       5.286   4.070  15.693  0.00  0.00    +0.000 NA
ATOM      7  C   UNL     1       4.429   4.394  16.681  0.00  0.00    +0.000 A 
BRANCH   5   8
ATOM      8  C   UNL     1       6.945   4.750  13.973  0.00  0.00    +0.000 C 
ATOM      9  F   UNL     1       6.979   5.660  12.954  0.00  0.00    +0.000 F 
ATOM     10  F   UNL     1       8.236   4.663  14.421  0.00  0.00    +0.000 F 
ATOM     11  F   UNL     1       6.687   3.547  13.372  0.00  0.00    +0.000 F 
ENDBRANCH   5   8
ENDBRANCH   1   2
BRANCH   1  12
ATOM     12  C   UNL     1       2.701   7.468  18.067  0.00  0.00    +0.000 C 
BRANCH  12  15
ATOM     13  O   UNL     1       1.176   9.894  18.188  0.00  0.00    +0.000 OA
ATOM     14  C   UNL     1       1.304   9.213  19.196  0.00  0.00    +0.000 C 
ATOM     15  N   UNL     1       2.012   8.030  19.218  0.00  0.00    +0.000 N 
ATOM     16  H   UNL     1       1.942   7.450  20.046  0.00  0.00    +0.000 HD
BRANCH  14  17
ATOM     17  C   UNL     1       0.629   9.617  20.469  0.00  0.00    +0.000 A 
ATOM     18  C   UNL     1       0.178   8.577  21.305  0.00  0.00    +0.000 A 
ATOM     19  C   UNL     1      -0.444   8.850  22.526  0.00  0.00    +0.000 A 
ATOM     20  C   UNL     1      -0.633  10.169  22.924  0.00  0.00    +0.000 A 
ATOM     21  C   UNL     1      -0.210  11.203  22.096  0.00  0.00    +0.000 A 
ATOM     22  F   UNL     1      -0.417  12.465  22.502  0.00  0.00    +0.000 F 
ATOM     23  C   UNL     1       0.411  10.945  20.866  0.00  0.00    +0.000 A 
ATOM     24 CL   UNL     1       0.828  12.317  19.895  0.00  0.00    +0.000 Cl
ENDBRANCH  14  17
ENDBRANCH  12  15
ENDBRANCH   1  12
BRANCH   1  25
ATOM     25  C   UNL     1       2.147   4.980  18.434  0.00  0.00    +0.000 C 
BRANCH  25  26
ATOM     26  C   UNL     1       2.181   4.194  19.745  0.00  0.00    +0.000 C 
ATOM     27  C   UNL     1       2.003   5.015  21.022  0.00  0.00    +0.000 C 
ATOM     28  C   UNL     1       0.906   4.100  20.584  0.00  0.00    +0.000 C 
BRANCH  26  29
ATOM     29  C   UNL     1       3.162   3.037  19.798  0.00  0.00    +0.000 C 
ATOM     30  F   UNL     1       2.995   2.274  20.900  0.00  0.00    +0.000 F 
ATOM     31  F   UNL     1       3.021   2.223  18.725  0.00  0.00    +0.000 F 
ATOM     32  F   UNL     1       4.436   3.494  19.805  0.00  0.00    +0.000 F 
ENDBRANCH  26  29
ENDBRANCH  25  26
ENDBRANCH   1  25
TORSDOF 8
ENDMDL
MODEL 7
REMARK VINA RESULT:      -8.0      1.399      1.810
REMARK  Name = 
REMARK  8 active torsions:
REMARK  status: ('A' for Active; 'I' for Inactive)
REMARK    1  A    between atoms: C_2  and  C_24
REMARK    2  A    between atoms: N_3  and  C_4
REMARK    3  A    between atoms: C_4  and  C_5
REMARK    4  A    between atoms: C_5  and  C_6
REMARK    5  A    between atoms: C_5  and  C_14
REMARK    6  A    between atoms: C_6  and  C_7
REMARK    7  A    between atoms: C_7  and  C_8
REMARK    8  A    between atoms: C_17  and  C_18
REMARK                            x       y       z     vdW  Elec       q    Type
REMARK                         _______ _______ _______ _____ _____    ______ ____
ROOT
ATOM      1  C   UNL     1       2.612   6.211  19.627  0.00  0.00    +0.000 C 
ENDROOT
BRANCH   1   2
ATOM      2  C   UNL     1       3.761   5.710  18.780  0.00  0.00    +0.000 A 
ATOM      3  C   UNL     1       3.713   5.742  17.401  0.00  0.00    +0.000 A 
ATOM      4  N   UNL     1       4.726   5.352  16.601  0.00  0.00    +0.000 NA
ATOM      5  C   UNL     1       5.855   4.903  17.203  0.00  0.00    +0.000 A 
ATOM      6  N   UNL     1       5.991   4.822  18.552  0.00  0.00    +0.000 NA
ATOM      7  C   UNL     1       4.945   5.222  19.300  0.00  0.00    +0.000 A 
BRANCH   5   8
ATOM      8  C   UNL     1       7.040   4.475  16.326  0.00  0.00    +0.000 C 
ATOM      9  F   UNL     1       6.787   3.390  15.534  0.00  0.00    +0.000 F 
ATOM     10  F   UNL     1       7.452   5.459  15.468  0.00  0.00    +0.000 F 
ATOM     11  F   UNL     1       8.149   4.138  17.053  0.00  0.00    +0.000 F 
ENDBRANCH   5   8
ENDBRANCH   1   2
BRANCH   1  12
ATOM     12  C   UNL     1       2.217   7.649  19.196  0.00  0.00    +0.000 C 
BRANCH  12  15
ATOM     13  O   UNL     1       0.996  10.219  18.831  0.00  0.00    +0.000 OA
ATOM     14  C   UNL     1       0.853   9.629  19.894  0.00  0.00    +0.000 C 
ATOM     15  N   UNL     1       1.398   8.388  20.144  0.00  0.00    +0.000 N 
ATOM     16  H   UNL     1       1.107   7.902  20.984  0.00  0.00    +0.000 HD
BRANCH  14  17
ATOM     17  C   UNL     1       0.006  10.222  20.976  0.00  0.00    +0.000 A 
ATOM     18  C   UNL     1      -0.011   9.546  22.210  0.00  0.00    +0.000 A 
ATOM     19  C   UNL     1      -0.752  10.031  23.291  0.00  0.00    +0.000 A 
ATOM     20  C   UNL     1      -1.496  11.198  23.148  0.00  0.00    +0.000 A 
ATOM     21  C   UNL     1      -1.503  11.861  21.926  0.00  0.00    +0.000 A 
ATOM     22  F   UNL     1      -2.241  12.977  21.816  0.00  0.00    +0.000 F 
ATOM     23  C   UNL     1      -0.768  11.383  20.832  0.00  0.00    +0.000 A 
ATOM     24 CL   UNL     1      -0.916  12.261  19.346  0.00  0.00    +0.000 Cl
ENDBRANCH  14  17
ENDBRANCH  12  15
ENDBRANCH   1  12
BRANCH   1  25
ATOM     25  C   UNL     1       1.404   5.237  19.585  0.00  0.00    +0.000 C 
BRANCH  25  26
ATOM     26  C   UNL     1       1.714   3.786  19.952  0.00  0.00    +0.000 C 
ATOM     27  C   UNL     1       2.605   3.582  21.177  0.00  0.00    +0.000 C 
ATOM     28  C   UNL     1       1.158   3.220  21.261  0.00  0.00    +0.000 C 
BRANCH  26  29
ATOM     29  C   UNL     1       1.914   2.836  18.786  0.00  0.00    +0.000 C 
ATOM     30  F   UNL     1       1.139   1.733  18.885  0.00  0.00    +0.000 F 
ATOM     31  F   UNL     1       1.610   3.432  17.609  0.00  0.00    +0.000 F 
ATOM     32  F   UNL     1       3.202   2.426  18.722  0.00  0.00    +0.000 F 
ENDBRANCH  26  29
ENDBRANCH  25  26
ENDBRANCH   1  25
TORSDOF 8
ENDMDL
MODEL 8
REMARK VINA RESULT:      -8.0      1.681      2.279
REMARK  Name = 
REMARK  8 active torsions:
REMARK  status: ('A' for Active; 'I' for Inactive)
REMARK    1  A    between atoms: C_2  and  C_24
REMARK    2  A    between atoms: N_3  and  C_4
REMARK    3  A    between atoms: C_4  and  C_5
REMARK    4  A    between atoms: C_5  and  C_6
REMARK    5  A    between atoms: C_5  and  C_14
REMARK    6  A    between atoms: C_6  and  C_7
REMARK    7  A    between atoms: C_7  and  C_8
REMARK    8  A    between atoms: C_17  and  C_18
REMARK                            x       y       z     vdW  Elec       q    Type
REMARK                         _______ _______ _______ _____ _____    ______ ____
ROOT
ATOM      1  C   UNL     1       2.561   6.149  19.609  0.00  0.00    +0.000 C 
ENDROOT
BRANCH   1   2
ATOM      2  C   UNL     1       3.732   5.662  18.785  0.00  0.00    +0.000 A 
ATOM      3  C   UNL     1       3.697   5.661  17.404  0.00  0.00    +0.000 A 
ATOM      4  N   UNL     1       4.729   5.282  16.624  0.00  0.00    +0.000 NA
ATOM      5  C   UNL     1       5.864   4.880  17.246  0.00  0.00    +0.000 A 
ATOM      6  N   UNL     1       5.988   4.834  18.597  0.00  0.00    +0.000 NA
ATOM      7  C   UNL     1       4.924   5.221  19.326  0.00  0.00    +0.000 A 
BRANCH   5   8
ATOM      8  C   UNL     1       7.069   4.466  16.390  0.00  0.00    +0.000 C 
ATOM      9  F   UNL     1       7.521   5.446  15.550  0.00  0.00    +0.000 F 
ATOM     10  F   UNL     1       8.157   4.105  17.139  0.00  0.00    +0.000 F 
ATOM     11  F   UNL     1       6.809   3.392  15.583  0.00  0.00    +0.000 F 
ENDBRANCH   5   8
ENDBRANCH   1   2
BRANCH   1  12
ATOM     12  C   UNL     1       2.184   7.598  19.199  0.00  0.00    +0.000 C 
BRANCH  12  15
ATOM     13  O   UNL     1       1.251  10.303  19.002  0.00  0.00    +0.000 OA
ATOM     14  C   UNL     1       0.952   9.633  19.981  0.00  0.00    +0.000 C 
ATOM     15  N   UNL     1       1.351   8.324  20.146  0.00  0.00    +0.000 N 
ATOM     16  H   UNL     1       0.937   7.792  20.903  0.00  0.00    +0.000 HD
BRANCH  14  17
ATOM     17  C   UNL     1       0.065  10.204  21.043  0.00  0.00    +0.000 A 
ATOM     18  C   UNL     1       0.104   9.580  22.304  0.00  0.00    +0.000 A 
ATOM     19  C   UNL     1      -0.669  10.052  23.368  0.00  0.00    +0.000 A 
ATOM     20  C   UNL     1      -1.501  11.152  23.182  0.00  0.00    +0.000 A 
ATOM     21  C   UNL     1      -1.562  11.761  21.934  0.00  0.00    +0.000 A 
ATOM     22  F   UNL     1      -2.384  12.811  21.782  0.00  0.00    +0.000 F 
ATOM     23  C   UNL     1      -0.796  11.296  20.856  0.00  0.00    +0.000 A 
ATOM     24 CL   UNL     1      -1.015  12.096  19.336  0.00  0.00    +0.000 Cl
ENDBRANCH  14  17
ENDBRANCH  12  15
ENDBRANCH   1  12
BRANCH   1  25
ATOM     25  C   UNL     1       1.351   5.182  19.511  0.00  0.00    +0.000 C 
BRANCH  25  26
ATOM     26  C   UNL     1       1.650   3.717  19.835  0.00  0.00    +0.000 C 
ATOM     27  C   UNL     1       0.681   2.692  19.246  0.00  0.00    +0.000 C 
ATOM     28  C   UNL     1       2.070   2.780  18.701  0.00  0.00    +0.000 C 
BRANCH  26  29
ATOM     29  C   UNL     1       2.184   3.443  21.229  0.00  0.00    +0.000 C 
ATOM     30  F   UNL     1       2.399   4.579  21.928  0.00  0.00    +0.000 F 
ATOM     31  F   UNL     1       1.317   2.691  21.948  0.00  0.00    +0.000 F 
ATOM     32  F   UNL     1       3.358   2.773  21.165  0.00  0.00    +0.000 F 
ENDBRANCH  26  29
ENDBRANCH  25  26
ENDBRANCH   1  25
TORSDOF 8
ENDMDL
MODEL 9
REMARK VINA RESULT:      -8.0      1.185      1.527
REMARK  Name = 
REMARK  8 active torsions:
REMARK  status: ('A' for Active; 'I' for Inactive)
REMARK    1  A    between atoms: C_2  and  C_24
REMARK    2  A    between atoms: N_3  and  C_4
REMARK    3  A    between atoms: C_4  and  C_5
REMARK    4  A    between atoms: C_5  and  C_6
REMARK    5  A    between atoms: C_5  and  C_14
REMARK    6  A    between atoms: C_6  and  C_7
REMARK    7  A    between atoms: C_7  and  C_8
REMARK    8  A    between atoms: C_17  and  C_18
REMARK                            x       y       z     vdW  Elec       q    Type
REMARK                         _______ _______ _______ _____ _____    ______ ____
ROOT
ATOM      1  C   UNL     1       3.228   5.976  18.271  0.00  0.00    +0.000 C 
ENDROOT
BRANCH   1   2
ATOM      2  C   UNL     1       4.136   5.604  17.120  0.00  0.00    +0.000 A 
ATOM      3  C   UNL     1       4.215   4.308  16.649  0.00  0.00    +0.000 A 
ATOM      4  N   UNL     1       4.972   3.933  15.598  0.00  0.00    +0.000 NA
ATOM      5  C   UNL     1       5.694   4.897  14.976  0.00  0.00    +0.000 A 
ATOM      6  N   UNL     1       5.692   6.195  15.376  0.00  0.00    +0.000 NA
ATOM      7  C   UNL     1       4.920   6.511  16.433  0.00  0.00    +0.000 A 
BRANCH   5   8
ATOM      8  C   UNL     1       6.548   4.513  13.759  0.00  0.00    +0.000 C 
ATOM      9  F   UNL     1       7.362   3.434  13.965  0.00  0.00    +0.000 F 
ATOM     10  F   UNL     1       5.797   4.191  12.660  0.00  0.00    +0.000 F 
ATOM     11  F   UNL     1       7.380   5.519  13.350  0.00  0.00    +0.000 F 
ENDBRANCH   5   8
ENDBRANCH   1   2
BRANCH   1  12
ATOM     12  C   UNL     1       2.741   7.442  18.116  0.00  0.00    +0.000 C 
BRANCH  12  15
ATOM     13  O   UNL     1       1.067   9.769  18.201  0.00  0.00    +0.000 OA
ATOM     14  C   UNL     1       1.270   9.136  19.228  0.00  0.00    +0.000 C 
ATOM     15  N   UNL     1       2.053   8.002  19.269  0.00  0.00    +0.000 N 
ATOM     16  H   UNL     1       2.047   7.450  20.119  0.00  0.00    +0.000 HD
BRANCH  14  17
ATOM     17  C   UNL     1       0.610   9.543  20.508  0.00  0.00    +0.000 A 
ATOM     18  C   UNL     1       0.176   8.507  21.356  0.00  0.00    +0.000 A 
ATOM     19  C   UNL     1      -0.431   8.784  22.584  0.00  0.00    +0.000 A 
ATOM     20  C   UNL     1      -0.622  10.104  22.976  0.00  0.00    +0.000 A 
ATOM     21  C   UNL     1      -0.216  11.135  22.136  0.00  0.00    +0.000 A 
ATOM     22  F   UNL     1      -0.426  12.399  22.536  0.00  0.00    +0.000 F 
ATOM     23  C   UNL     1       0.389  10.873  20.899  0.00  0.00    +0.000 A 
ATOM     24 CL   UNL     1       0.784  12.241  19.914  0.00  0.00    +0.000 Cl
ENDBRANCH  14  17
ENDBRANCH  12  15
ENDBRANCH   1  12
BRANCH   1  25
ATOM     25  C   UNL     1       2.046   4.980  18.413  0.00  0.00    +0.000 C 
BRANCH  25  26
ATOM     26  C   UNL     1       2.182   3.950  19.535  0.00  0.00    +0.000 C 
ATOM     27  C   UNL     1       2.056   2.485  19.115  0.00  0.00    +0.000 C 
ATOM     28  C   UNL     1       3.390   3.012  19.534  0.00  0.00    +0.000 C 
BRANCH  26  29
ATOM     29  C   UNL     1       1.577   4.341  20.870  0.00  0.00    +0.000 C 
ATOM     30  F   UNL     1       0.703   5.365  20.756  0.00  0.00    +0.000 F 
ATOM     31  F   UNL     1       0.906   3.306  21.428  0.00  0.00    +0.000 F 
ATOM     32  F   UNL     1       2.544   4.722  21.737  0.00  0.00    +0.000 F 
ENDBRANCH  26  29
ENDBRANCH  25  26
ENDBRANCH   1  25
TORSDOF 8
ENDMDL
