MODEL 1
REMARK VINA RESULT:      -8.2      0.000      0.000
REMARK  Name = 
REMARK  5 active torsions:
REMARK  status: ('A' for Active; 'I' for Inactive)
REMARK    1  A    between atoms: C_1  and  O_2
REMARK    2  A    between atoms: O_2  and  C_3
REMARK    3  A    between atoms: C_6  and  C_7
REMARK    4  A    between atoms: C_7  and  N_8
REMARK    5  A    between atoms: C_15  and  C_16
REMARK                            x       y       z     vdW  Elec       q    Type
REMARK                         _______ _______ _______ _____ _____    ______ ____
ROOT
ATOM      1  N   UNL     1       5.583   4.606  15.856  0.00  0.00    +0.000 N 
ATOM      2  C   UNL     1       6.896   4.895  16.304  0.00  0.00    +0.000 A 
ATOM      3  S   UNL     1       7.581   4.524  17.772  0.00  0.00    +0.000 S 
ATOM      4  O   UNL     1       7.675   5.561  15.370  0.00  0.00    +0.000 OA
ATOM      5  C   UNL     1       7.008   5.206  14.209  0.00  0.00    +0.000 A 
ATOM      6  C   UNL     1       7.697   5.104  13.012  0.00  0.00    +0.000 A 
ATOM      7  C   UNL     1       7.233   4.169  12.097  0.00  0.00    +0.000 A 
ATOM      8  C   UNL     1       6.109   3.375  12.398  0.00  0.00    +0.000 A 
ATOM      9  C   UNL     1       5.881   2.124  11.596  0.00  0.00    +0.000 C 
ATOM     10  C   UNL     1       5.326   3.653  13.558  0.00  0.00    +0.000 A 
ATOM     11  C   UNL     1       5.778   4.616  14.455  0.00  0.00    +0.000 A 
ENDROOT
BRANCH   1  12
ATOM     12  C   UNL     1       4.668   5.585  16.476  0.00  0.00    +0.000 C 
BRANCH  12  16
ATOM     13  C   UNL     1       2.023   4.450  19.737  0.00  0.00    +0.000 A 
ATOM     14  C   UNL     1       2.036   3.711  18.546  0.00  0.00    +0.000 A 
ATOM     15  C   UNL     1       2.846   4.081  17.459  0.00  0.00    +0.000 A 
ATOM     16  C   UNL     1       3.635   5.225  17.521  0.00  0.00    +0.000 A 
ATOM     17  C   UNL     1       3.635   5.951  18.735  0.00  0.00    +0.000 A 
ATOM     18  C   UNL     1       2.838   5.574  19.830  0.00  0.00    +0.000 A 
BRANCH  13  20
ATOM     19  C   UNL     1       1.626   2.916  21.527  0.00  0.00    +0.000 C 
ATOM     20  O   UNL     1       1.171   3.974  20.692  0.00  0.00    +0.000 OA
ENDBRANCH  13  20
ENDBRANCH  12  16
ENDBRANCH   1  12
TORSDOF 3
ENDMDL
MODEL 2
REMARK VINA RESULT:      -8.1      0.331      1.091
REMARK  Name = 
REMARK  5 active torsions:
REMARK  status: ('A' for Active; 'I' for Inactive)
REMARK    1  A    between atoms: C_1  and  O_2
REMARK    2  A    between atoms: O_2  and  C_3
REMARK    3  A    between atoms: C_6  and  C_7
REMARK    4  A    between atoms: C_7  and  N_8
REMARK    5  A    between atoms: C_15  and  C_16
REMARK                            x       y       z     vdW  Elec       q    Type
REMARK                         _______ _______ _______ _____ _____    ______ ____
ROOT
ATOM      1  N   UNL     1       5.634   4.393  15.810  0.00  0.00    +0.000 N 
ATOM      2  C   UNL     1       6.916   4.820  16.236  0.00  0.00    +0.000 A 
ATOM      3  S   UNL     1       7.675   4.496  17.679  0.00  0.00    +0.000 S 
ATOM      4  O   UNL     1       7.591   5.592  15.302  0.00  0.00    +0.000 OA
ATOM      5  C   UNL     1       6.940   5.189  14.147  0.00  0.00    +0.000 A 
ATOM      6  C   UNL     1       7.607   5.194  12.934  0.00  0.00    +0.000 A 
ATOM      7  C   UNL     1       7.230   4.232  12.005  0.00  0.00    +0.000 A 
ATOM      8  C   UNL     1       6.211   3.308  12.310  0.00  0.00    +0.000 A 
ATOM      9  C   UNL     1       6.108   2.059  11.483  0.00  0.00    +0.000 C 
ATOM     10  C   UNL     1       5.431   3.469  13.495  0.00  0.00    +0.000 A 
ATOM     11  C   UNL     1       5.792   4.457  14.406  0.00  0.00    +0.000 A 
ENDROOT
BRANCH   1  12
ATOM     12  C   UNL     1       4.629   5.247  16.474  0.00  0.00    +0.000 C 
BRANCH  12  16
ATOM     13  C   UNL     1       1.812   4.138  19.597  0.00  0.00    +0.000 A 
ATOM     14  C   UNL     1       2.927   4.930  19.899  0.00  0.00    +0.000 A 
ATOM     15  C   UNL     1       3.879   5.265  18.920  0.00  0.00    +0.000 A 
ATOM     16  C   UNL     1       3.759   4.783  17.621  0.00  0.00    +0.000 A 
ATOM     17  C   UNL     1       2.617   4.006  17.319  0.00  0.00    +0.000 A 
ATOM     18  C   UNL     1       1.655   3.682  18.291  0.00  0.00    +0.000 A 
BRANCH  13  20
ATOM     19  C   UNL     1       1.371   2.861  21.569  0.00  0.00    +0.000 C 
ATOM     20  O   UNL     1       0.989   3.884  20.657  0.00  0.00    +0.000 OA
ENDBRANCH  13  20
ENDBRANCH  12  16
ENDBRANCH   1  12
TORSDOF 3
ENDMDL
MODEL 3
REMARK VINA RESULT:      -7.4      3.752      6.330
REMARK  Name = 
REMARK  5 active torsions:
REMARK  status: ('A' for Active; 'I' for Inactive)
REMARK    1  A    between atoms: C_1  and  O_2
REMARK    2  A    between atoms: O_2  and  C_3
REMARK    3  A    between atoms: C_6  and  C_7
REMARK    4  A    between atoms: C_7  and  N_8
REMARK    5  A    between atoms: C_15  and  C_16
REMARK                            x       y       z     vdW  Elec       q    Type
REMARK                         _______ _______ _______ _____ _____    ______ ____
ROOT
ATOM      1  N   UNL     1       3.583   5.704  18.674  0.00  0.00    +0.000 N 
ATOM      2  C   UNL     1       4.290   4.974  17.687  0.00  0.00    +0.000 A 
ATOM      3  S   UNL     1       5.895   5.106  17.272  0.00  0.00    +0.000 S 
ATOM      4  O   UNL     1       3.517   4.038  17.018  0.00  0.00    +0.000 OA
ATOM      5  C   UNL     1       2.508   3.854  17.949  0.00  0.00    +0.000 A 
ATOM      6  C   UNL     1       1.853   2.638  18.037  0.00  0.00    +0.000 A 
ATOM      7  C   UNL     1       1.389   2.262  19.290  0.00  0.00    +0.000 A 
ATOM      8  C   UNL     1       1.588   3.101  20.404  0.00  0.00    +0.000 A 
ATOM      9  C   UNL     1       1.452   2.509  21.778  0.00  0.00    +0.000 C 
ATOM     10  C   UNL     1       2.097   4.422  20.223  0.00  0.00    +0.000 A 
ATOM     11  C   UNL     1       2.528   4.805  18.957  0.00  0.00    +0.000 A 
ENDROOT
BRANCH   1  12
ATOM     12  C   UNL     1       3.279   7.038  18.117  0.00  0.00    +0.000 C 
BRANCH  12  16
ATOM     13  C   UNL     1       0.412   9.968  19.572  0.00  0.00    +0.000 A 
ATOM     14  C   UNL     1       0.981   9.037  20.451  0.00  0.00    +0.000 A 
ATOM     15  C   UNL     1       1.874   8.050  20.001  0.00  0.00    +0.000 A 
ATOM     16  C   UNL     1       2.191   7.944  18.651  0.00  0.00    +0.000 A 
ATOM     17  C   UNL     1       1.632   8.903  17.774  0.00  0.00    +0.000 A 
ATOM     18  C   UNL     1       0.751   9.901  18.224  0.00  0.00    +0.000 A 
BRANCH  13  20
ATOM     19  C   UNL     1      -0.232  11.196  21.519  0.00  0.00    +0.000 C 
ATOM     20  O   UNL     1      -0.450  10.851  20.156  0.00  0.00    +0.000 OA
ENDBRANCH  13  20
ENDBRANCH  12  16
ENDBRANCH   1  12
TORSDOF 3
ENDMDL
MODEL 4
REMARK VINA RESULT:      -7.4      3.864      6.349
REMARK  Name = 
REMARK  5 active torsions:
REMARK  status: ('A' for Active; 'I' for Inactive)
REMARK    1  A    between atoms: C_1  and  O_2
REMARK    2  A    between atoms: O_2  and  C_3
REMARK    3  A    between atoms: C_6  and  C_7
REMARK    4  A    between atoms: C_7  and  N_8
REMARK    5  A    between atoms: C_15  and  C_16
REMARK                            x       y       z     vdW  Elec       q    Type
REMARK                         _______ _______ _______ _____ _____    ______ ____
ROOT
ATOM      1  N   UNL     1       3.252   6.024  18.609  0.00  0.00    +0.000 N 
ATOM      2  C   UNL     1       4.191   5.396  17.754  0.00  0.00    +0.000 A 
ATOM      3  S   UNL     1       5.788   5.796  17.519  0.00  0.00    +0.000 S 
ATOM      4  O   UNL     1       3.680   4.314  17.055  0.00  0.00    +0.000 OA
ATOM      5  C   UNL     1       2.610   3.987  17.873  0.00  0.00    +0.000 A 
ATOM      6  C   UNL     1       2.169   2.678  17.954  0.00  0.00    +0.000 A 
ATOM      7  C   UNL     1       1.626   2.271  19.166  0.00  0.00    +0.000 A 
ATOM      8  C   UNL     1       1.539   3.172  20.245  0.00  0.00    +0.000 A 
ATOM      9  C   UNL     1       1.338   2.616  21.627  0.00  0.00    +0.000 C 
ATOM     10  C   UNL     1       1.831   4.555  20.048  0.00  0.00    +0.000 A 
ATOM     11  C   UNL     1       2.342   4.963  18.820  0.00  0.00    +0.000 A 
ENDROOT
BRANCH   1  12
ATOM     12  C   UNL     1       2.794   7.262  17.944  0.00  0.00    +0.000 C 
BRANCH  12  16
ATOM     13  C   UNL     1       0.218  10.080  20.027  0.00  0.00    +0.000 A 
ATOM     14  C   UNL     1       0.468  10.230  18.657  0.00  0.00    +0.000 A 
ATOM     15  C   UNL     1       1.333   9.362  17.967  0.00  0.00    +0.000 A 
ATOM     16  C   UNL     1       2.001   8.345  18.641  0.00  0.00    +0.000 A 
ATOM     17  C   UNL     1       1.723   8.186  20.018  0.00  0.00    +0.000 A 
ATOM     18  C   UNL     1       0.847   9.042  20.708  0.00  0.00    +0.000 A 
BRANCH  13  20
ATOM     19  C   UNL     1      -0.645  11.174  21.970  0.00  0.00    +0.000 C 
ATOM     20  O   UNL     1      -0.629  11.012  20.556  0.00  0.00    +0.000 OA
ENDBRANCH  13  20
ENDBRANCH  12  16
ENDBRANCH   1  12
TORSDOF 3
ENDMDL
MODEL 5
REMARK VINA RESULT:      -7.4      4.490      7.064
REMARK  Name = 
REMARK  5 active torsions:
REMARK  status: ('A' for Active; 'I' for Inactive)
REMARK    1  A    between atoms: C_1  and  O_2
REMARK    2  A    between atoms: O_2  and  C_3
REMARK    3  A    between atoms: C_6  and  C_7
REMARK    4  A    between atoms: C_7  and  N_8
REMARK    5  A    between atoms: C_15  and  C_16
REMARK                            x       y       z     vdW  Elec       q    Type
REMARK                         _______ _______ _______ _____ _____    ______ ____
ROOT
ATOM      1  N   UNL     1       2.749   6.465  19.366  0.00  0.00    +0.000 N 
ATOM      2  C   UNL     1       3.399   6.059  18.174  0.00  0.00    +0.000 A 
ATOM      3  S   UNL     1       4.887   6.536  17.609  0.00  0.00    +0.000 S 
ATOM      4  O   UNL     1       2.677   5.145  17.422  0.00  0.00    +0.000 OA
ATOM      5  C   UNL     1       1.855   4.624  18.408  0.00  0.00    +0.000 A 
ATOM      6  C   UNL     1       1.402   3.319  18.321  0.00  0.00    +0.000 A 
ATOM      7  C   UNL     1       1.190   2.645  19.517  0.00  0.00    +0.000 A 
ATOM      8  C   UNL     1       1.430   3.286  20.748  0.00  0.00    +0.000 A 
ATOM      9  C   UNL     1       1.586   2.437  21.977  0.00  0.00    +0.000 C 
ATOM     10  C   UNL     1       1.710   4.685  20.782  0.00  0.00    +0.000 A 
ATOM     11  C   UNL     1       1.888   5.363  19.581  0.00  0.00    +0.000 A 
ENDROOT
BRANCH   1  12
ATOM     12  C   UNL     1       2.176   7.807  19.134  0.00  0.00    +0.000 C 
BRANCH  12  16
ATOM     13  C   UNL     1       0.138  10.334  22.029  0.00  0.00    +0.000 A 
ATOM     14  C   UNL     1       0.856   9.208  22.454  0.00  0.00    +0.000 A 
ATOM     15  C   UNL     1       1.486   8.348  21.538  0.00  0.00    +0.000 A 
ATOM     16  C   UNL     1       1.379   8.570  20.169  0.00  0.00    +0.000 A 
ATOM     17  C   UNL     1       0.674   9.722  19.750  0.00  0.00    +0.000 A 
ATOM     18  C   UNL     1       0.057  10.593  20.664  0.00  0.00    +0.000 A 
BRANCH  13  20
ATOM     19  C   UNL     1      -1.098  12.269  22.693  0.00  0.00    +0.000 C 
ATOM     20  O   UNL     1      -0.431  11.060  23.035  0.00  0.00    +0.000 OA
ENDBRANCH  13  20
ENDBRANCH  12  16
ENDBRANCH   1  12
TORSDOF 3
ENDMDL
MODEL 6
REMARK VINA RESULT:      -7.3      2.564      3.831
REMARK  Name = 
REMARK  5 active torsions:
REMARK  status: ('A' for Active; 'I' for Inactive)
REMARK    1  A    between atoms: C_1  and  O_2
REMARK    2  A    between atoms: O_2  and  C_3
REMARK    3  A    between atoms: C_6  and  C_7
REMARK    4  A    between atoms: C_7  and  N_8
REMARK    5  A    between atoms: C_15  and  C_16
REMARK                            x       y       z     vdW  Elec       q    Type
REMARK                         _______ _______ _______ _____ _____    ______ ____
ROOT
ATOM      1  N   UNL     1       3.536   3.635  17.158  0.00  0.00    +0.000 N 
ATOM      2  C   UNL     1       4.077   2.888  18.233  0.00  0.00    +0.000 A 
ATOM      3  S   UNL     1       3.595   1.396  18.786  0.00  0.00    +0.000 S 
ATOM      4  O   UNL     1       5.144   3.505  18.868  0.00  0.00    +0.000 OA
ATOM      5  C   UNL     1       5.560   4.357  17.858  0.00  0.00    +0.000 A 
ATOM      6  C   UNL     1       6.890   4.727  17.760  0.00  0.00    +0.000 A 
ATOM      7  C   UNL     1       7.383   4.976  16.486  0.00  0.00    +0.000 A 
ATOM      8  C   UNL     1       6.543   4.853  15.361  0.00  0.00    +0.000 A 
ATOM      9  C   UNL     1       7.178   4.726  14.006  0.00  0.00    +0.000 C 
ATOM     10  C   UNL     1       5.140   4.657  15.535  0.00  0.00    +0.000 A 
ATOM     11  C   UNL     1       4.647   4.442  16.817  0.00  0.00    +0.000 A 
ENDROOT
BRANCH   1  12
ATOM     12  C   UNL     1       2.288   4.269  17.631  0.00  0.00    +0.000 C 
BRANCH  12  16
ATOM     13  C   UNL     1       1.762   7.544  20.444  0.00  0.00    +0.000 A 
ATOM     14  C   UNL     1       2.143   7.802  19.121  0.00  0.00    +0.000 A 
ATOM     15  C   UNL     1       2.366   6.762  18.202  0.00  0.00    +0.000 A 
ATOM     16  C   UNL     1       2.251   5.432  18.597  0.00  0.00    +0.000 A 
ATOM     17  C   UNL     1       1.841   5.182  19.927  0.00  0.00    +0.000 A 
ATOM     18  C   UNL     1       1.603   6.220  20.843  0.00  0.00    +0.000 A 
BRANCH  13  20
ATOM     19  C   UNL     1       0.724   9.675  20.754  0.00  0.00    +0.000 C 
ATOM     20  O   UNL     1       1.603   8.657  21.218  0.00  0.00    +0.000 OA
ENDBRANCH  13  20
ENDBRANCH  12  16
ENDBRANCH   1  12
TORSDOF 3
ENDMDL
MODEL 7
REMARK VINA RESULT:      -7.2      1.116      1.667
REMARK  Name = 
REMARK  5 active torsions:
REMARK  status: ('A' for Active; 'I' for Inactive)
REMARK    1  A    between atoms: C_1  and  O_2
REMARK    2  A    between atoms: O_2  and  C_3
REMARK    3  A    between atoms: C_6  and  C_7
REMARK    4  A    between atoms: C_7  and  N_8
REMARK    5  A    between atoms: C_15  and  C_16
REMARK                            x       y       z     vdW  Elec       q    Type
REMARK                         _______ _______ _______ _____ _____    ______ ____
ROOT
ATOM      1  N   UNL     1       5.566   4.878  15.520  0.00  0.00    +0.000 N 
ATOM      2  C   UNL     1       6.904   4.983  15.974  0.00  0.00    +0.000 A 
ATOM      3  S   UNL     1       7.500   4.640  17.487  0.00  0.00    +0.000 S 
ATOM      4  O   UNL     1       7.794   5.418  15.004  0.00  0.00    +0.000 OA
ATOM      5  C   UNL     1       7.089   5.073  13.863  0.00  0.00    +0.000 A 
ATOM      6  C   UNL     1       7.763   4.745  12.699  0.00  0.00    +0.000 A 
ATOM      7  C   UNL     1       7.156   3.819  11.860  0.00  0.00    +0.000 A 
ATOM      8  C   UNL     1       5.910   3.258  12.202  0.00  0.00    +0.000 A 
ATOM      9  C   UNL     1       5.481   1.995  11.511  0.00  0.00    +0.000 C 
ATOM     10  C   UNL     1       5.174   3.772  13.312  0.00  0.00    +0.000 A 
ATOM     11  C   UNL     1       5.774   4.725  14.130  0.00  0.00    +0.000 A 
ENDROOT
BRANCH   1  12
ATOM     12  C   UNL     1       4.824   6.052  16.025  0.00  0.00    +0.000 C 
BRANCH  12  16
ATOM     13  C   UNL     1       2.355   5.919  19.603  0.00  0.00    +0.000 A 
ATOM     14  C   UNL     1       2.701   7.149  19.027  0.00  0.00    +0.000 A 
ATOM     15  C   UNL     1       3.535   7.225  17.898  0.00  0.00    +0.000 A 
ATOM     16  C   UNL     1       4.077   6.072  17.340  0.00  0.00    +0.000 A 
ATOM     17  C   UNL     1       3.703   4.834  17.912  0.00  0.00    +0.000 A 
ATOM     18  C   UNL     1       2.856   4.754  19.031  0.00  0.00    +0.000 A 
BRANCH  13  20
ATOM     19  C   UNL     1       1.123   7.305  21.112  0.00  0.00    +0.000 C 
ATOM     20  O   UNL     1       1.553   6.012  20.704  0.00  0.00    +0.000 OA
ENDBRANCH  13  20
ENDBRANCH  12  16
ENDBRANCH   1  12
TORSDOF 3
ENDMDL
MODEL 8
REMARK VINA RESULT:      -7.2      3.388      4.707
REMARK  Name = 
REMARK  5 active torsions:
REMARK  status: ('A' for Active; 'I' for Inactive)
REMARK    1  A    between atoms: C_1  and  O_2
REMARK    2  A    between atoms: O_2  and  C_3
REMARK    3  A    between atoms: C_6  and  C_7
REMARK    4  A    between atoms: C_7  and  N_8
REMARK    5  A    between atoms: C_15  and  C_16
REMARK                            x       y       z     vdW  Elec       q    Type
REMARK                         _______ _______ _______ _____ _____    ______ ____
ROOT
ATOM      1  N   UNL     1       3.801   4.984  18.722  0.00  0.00    +0.000 N 
ATOM      2  C   UNL     1       4.330   3.867  19.414  0.00  0.00    +0.000 A 
ATOM      3  S   UNL     1       3.497   2.622  20.135  0.00  0.00    +0.000 S 
ATOM      4  O   UNL     1       5.716   3.840  19.464  0.00  0.00    +0.000 OA
ATOM      5  C   UNL     1       6.007   4.644  18.374  0.00  0.00    +0.000 A 
ATOM      6  C   UNL     1       7.174   4.449  17.655  0.00  0.00    +0.000 A 
ATOM      7  C   UNL     1       7.135   4.745  16.299  0.00  0.00    +0.000 A 
ATOM      8  C   UNL     1       5.949   5.223  15.708  0.00  0.00    +0.000 A 
ATOM      9  C   UNL     1       5.812   5.145  14.214  0.00  0.00    +0.000 C 
ATOM     10  C   UNL     1       4.838   5.585  16.528  0.00  0.00    +0.000 A 
ATOM     11  C   UNL     1       4.896   5.318  17.892  0.00  0.00    +0.000 A 
ENDROOT
BRANCH   1  12
ATOM     12  C   UNL     1       3.322   5.953  19.728  0.00  0.00    +0.000 C 
BRANCH  12  16
ATOM     13  C   UNL     1       1.093   9.550  18.722  0.00  0.00    +0.000 A 
ATOM     14  C   UNL     1       1.050   9.032  20.023  0.00  0.00    +0.000 A 
ATOM     15  C   UNL     1       1.723   7.847  20.366  0.00  0.00    +0.000 A 
ATOM     16  C   UNL     1       2.423   7.126  19.404  0.00  0.00    +0.000 A 
ATOM     17  C   UNL     1       2.481   7.668  18.099  0.00  0.00    +0.000 A 
ATOM     18  C   UNL     1       1.823   8.862  17.757  0.00  0.00    +0.000 A 
BRANCH  13  20
ATOM     19  C   UNL     1      -0.927  10.768  19.112  0.00  0.00    +0.000 C 
ATOM     20  O   UNL     1       0.375  10.697  18.541  0.00  0.00    +0.000 OA
ENDBRANCH  13  20
ENDBRANCH  12  16
ENDBRANCH   1  12
TORSDOF 3
ENDMDL
MODEL 9
REMARK VINA RESULT:      -7.0      3.399      4.851
REMARK  Name = 
REMARK  5 active torsions:
REMARK  status: ('A' for Active; 'I' for Inactive)
REMARK    1  A    between atoms: C_1  and  O_2
REMARK    2  A    between atoms: O_2  and  C_3
REMARK    3  A    between atoms: C_6  and  C_7
REMARK    4  A    between atoms: C_7  and  N_8
REMARK    5  A    between atoms: C_15  and  C_16
REMARK                            x       y       z     vdW  Elec       q    Type
REMARK                         _______ _______ _______ _____ _____    ______ ____
ROOT
ATOM      1  N   UNL     1       3.544   4.813  18.718  0.00  0.00    +0.000 N 
ATOM      2  C   UNL     1       4.107   3.717  19.416  0.00  0.00    +0.000 A 
ATOM      3  S   UNL     1       3.326   2.379  20.020  0.00  0.00    +0.000 S 
ATOM      4  O   UNL     1       5.480   3.803  19.586  0.00  0.00    +0.000 OA
ATOM      5  C   UNL     1       5.793   4.672  18.554  0.00  0.00    +0.000 A 
ATOM      6  C   UNL     1       7.029   4.602  17.934  0.00  0.00    +0.000 A 
ATOM      7  C   UNL     1       7.079   4.949  16.590  0.00  0.00    +0.000 A 
ATOM      8  C   UNL     1       5.910   5.351  15.914  0.00  0.00    +0.000 A 
ATOM      9  C   UNL     1       5.908   5.323  14.412  0.00  0.00    +0.000 C 
ATOM     10  C   UNL     1       4.707   5.587  16.645  0.00  0.00    +0.000 A 
ATOM     11  C   UNL     1       4.673   5.270  17.999  0.00  0.00    +0.000 A 
ENDROOT
BRANCH   1  12
ATOM     12  C   UNL     1       2.900   5.698  19.711  0.00  0.00    +0.000 C 
BRANCH  12  16
ATOM     13  C   UNL     1       1.156   9.599  18.901  0.00  0.00    +0.000 A 
ATOM     14  C   UNL     1       1.792   8.883  17.879  0.00  0.00    +0.000 A 
ATOM     15  C   UNL     1       2.405   7.641  18.121  0.00  0.00    +0.000 A 
ATOM     16  C   UNL     1       2.431   7.103  19.404  0.00  0.00    +0.000 A 
ATOM     17  C   UNL     1       1.766   7.821  20.424  0.00  0.00    +0.000 A 
ATOM     18  C   UNL     1       1.138   9.055  20.182  0.00  0.00    +0.000 A 
BRANCH  13  20
ATOM     19  C   UNL     1       1.420  11.965  18.677  0.00  0.00    +0.000 C 
ATOM     20  O   UNL     1       0.626  10.796  18.513  0.00  0.00    +0.000 OA
ENDBRANCH  13  20
ENDBRANCH  12  16
ENDBRANCH   1  12
TORSDOF 3
ENDMDL
