MODEL 1
REMARK VINA RESULT:      -9.2      0.000      0.000
REMARK  Name = 
REMARK  7 active torsions:
REMARK  status: ('A' for Active; 'I' for Inactive)
REMARK    1  A    between atoms: C_1  and  C_2
REMARK    2  A    between atoms: N_4  and  C_5
REMARK    3  A    between atoms: C_9  and  C_10
REMARK    4  A    between atoms: C_14  and  N_15
REMARK    5  A    between atoms: N_15  and  C_16
REMARK    6  A    between atoms: C_16  and  C_17
REMARK    7  A    between atoms: C_19  and  C_20
REMARK                            x       y       z     vdW  Elec       q    Type
REMARK                         _______ _______ _______ _____ _____    ______ ____
ROOT
ATOM      1  C   UNL     1       2.858   5.665  19.436  0.00  0.00    +0.000 A 
ATOM      2  C   UNL     1       2.256   4.757  20.313  0.00  0.00    +0.000 A 
ATOM      3  N   UNL     1       2.776   3.547  20.614  0.00  0.00    +0.000 NA
ATOM      4  C   UNL     1       3.951   3.280  19.998  0.00  0.00    +0.000 A 
ATOM      5  C   UNL     1       4.556   4.127  19.060  0.00  0.00    +0.000 A 
ATOM      6  N   UNL     1       4.000   5.326  18.772  0.00  0.00    +0.000 NA
ENDROOT
BRANCH   1  11
ATOM      7  C   UNL     1       1.271   9.069  20.143  0.00  0.00    +0.000 A 
ATOM      8  C   UNL     1       1.300   9.639  18.870  0.00  0.00    +0.000 A 
ATOM      9  C   UNL     1       1.832   8.935  17.794  0.00  0.00    +0.000 A 
ATOM     10  C   UNL     1       2.340   7.651  17.984  0.00  0.00    +0.000 A 
ATOM     11  C   UNL     1       2.353   7.044  19.256  0.00  0.00    +0.000 A 
ATOM     12  C   UNL     1       1.818   7.786  20.330  0.00  0.00    +0.000 A 
BRANCH   7  16
ATOM     13  C   UNL     1      -0.704  10.242  23.137  0.00  0.00    +0.000 C 
ATOM     14  C   UNL     1      -0.280   9.247  22.089  0.00  0.00    +0.000 C 
ATOM     15  O   UNL     1      -0.810   8.142  22.033  0.00  0.00    +0.000 OA
ATOM     16  N   UNL     1       0.719   9.733  21.261  0.00  0.00    +0.000 N 
ATOM     17  H   UNL     1       1.170  10.596  21.538  0.00  0.00    +0.000 HD
ENDBRANCH   7  16
ENDBRANCH   1  11
BRANCH   5  18
ATOM     18  N   UNL     1       5.813   3.779  18.558  0.00  0.00    +0.000 N 
ATOM     19  H   UNL     1       5.776   3.017  17.885  0.00  0.00    +0.000 HD
BRANCH  18  20
ATOM     20  C   UNL     1       6.590   4.867  17.969  0.00  0.00    +0.000 C 
BRANCH  20  21
ATOM     21  C   UNL     1       6.745   4.734  16.474  0.00  0.00    +0.000 A 
ATOM     22  C   UNL     1       6.081   3.832  15.611  0.00  0.00    +0.000 A 
ATOM     23  C   UNL     1       6.489   4.176  14.343  0.00  0.00    +0.000 A 
ATOM     24  C   UNL     1       6.122   3.648  13.010  0.00  0.00    +0.000 C 
ATOM     25  N   UNL     1       7.364   5.214  14.506  0.00  0.00    +0.000 N 
ATOM     26  N   UNL     1       7.549   5.568  15.790  0.00  0.00    +0.000 NA
ATOM     27  H   UNL     1       7.855   5.737  13.788  0.00  0.00    +0.000 HD
ENDBRANCH  20  21
ENDBRANCH  18  20
ENDBRANCH   5  18
TORSDOF 5
ENDMDL
MODEL 2
REMARK VINA RESULT:      -8.9      1.093      1.093
REMARK  Name = 
REMARK  7 active torsions:
REMARK  status: ('A' for Active; 'I' for Inactive)
REMARK    1  A    between atoms: C_1  and  C_2
REMARK    2  A    between atoms: N_4  and  C_5
REMARK    3  A    between atoms: C_9  and  C_10
REMARK    4  A    between atoms: C_14  and  N_15
REMARK    5  A    between atoms: N_15  and  C_16
REMARK    6  A    between atoms: C_16  and  C_17
REMARK    7  A    between atoms: C_19  and  C_20
REMARK                            x       y       z     vdW  Elec       q    Type
REMARK                         _______ _______ _______ _____ _____    ______ ____
ROOT
ATOM      1  C   UNL     1       2.899   5.781  18.459  0.00  0.00    +0.000 A 
ATOM      2  C   UNL     1       2.035   4.685  18.372  0.00  0.00    +0.000 A 
ATOM      3  N   UNL     1       2.454   3.401  18.338  0.00  0.00    +0.000 NA
ATOM      4  C   UNL     1       3.797   3.254  18.405  0.00  0.00    +0.000 A 
ATOM      5  C   UNL     1       4.704   4.321  18.423  0.00  0.00    +0.000 A 
ATOM      6  N   UNL     1       4.250   5.595  18.443  0.00  0.00    +0.000 NA
ENDROOT
BRANCH   1  11
ATOM      7  C   UNL     1       1.132   8.818  19.963  0.00  0.00    +0.000 A 
ATOM      8  C   UNL     1       1.390   9.779  18.985  0.00  0.00    +0.000 A 
ATOM      9  C   UNL     1       2.132   9.454  17.854  0.00  0.00    +0.000 A 
ATOM     10  C   UNL     1       2.623   8.159  17.691  0.00  0.00    +0.000 A 
ATOM     11  C   UNL     1       2.407   7.162  18.664  0.00  0.00    +0.000 A 
ATOM     12  C   UNL     1       1.661   7.524  19.805  0.00  0.00    +0.000 A 
BRANCH   7  16
ATOM     13  C   UNL     1      -0.233   9.529  23.408  0.00  0.00    +0.000 C 
ATOM     14  C   UNL     1       0.856   9.369  22.380  0.00  0.00    +0.000 C 
ATOM     15  O   UNL     1       2.034   9.482  22.703  0.00  0.00    +0.000 OA
ATOM     16  N   UNL     1       0.363   9.093  21.115  0.00  0.00    +0.000 N 
ATOM     17  H   UNL     1      -0.634   9.198  20.974  0.00  0.00    +0.000 HD
ENDBRANCH   7  16
ENDBRANCH   1  11
BRANCH   5  18
ATOM     18  N   UNL     1       6.064   4.041  18.580  0.00  0.00    +0.000 N 
ATOM     19  H   UNL     1       6.311   3.095  18.300  0.00  0.00    +0.000 HD
BRANCH  18  20
ATOM     20  C   UNL     1       6.988   4.963  17.923  0.00  0.00    +0.000 C 
BRANCH  20  21
ATOM     21  C   UNL     1       6.975   4.833  16.420  0.00  0.00    +0.000 A 
ATOM     22  C   UNL     1       6.330   3.846  15.641  0.00  0.00    +0.000 A 
ATOM     23  C   UNL     1       6.535   4.224  14.334  0.00  0.00    +0.000 A 
ATOM     24  C   UNL     1       6.078   3.639  13.054  0.00  0.00    +0.000 C 
ATOM     25  N   UNL     1       7.285   5.365  14.393  0.00  0.00    +0.000 N 
ATOM     26  N   UNL     1       7.579   5.754  15.647  0.00  0.00    +0.000 NA
ATOM     27  H   UNL     1       7.616   5.937  13.623  0.00  0.00    +0.000 HD
ENDBRANCH  20  21
ENDBRANCH  18  20
ENDBRANCH   5  18
TORSDOF 5
ENDMDL
MODEL 3
REMARK VINA RESULT:      -8.6      1.907      2.729
REMARK  Name = 
REMARK  7 active torsions:
REMARK  status: ('A' for Active; 'I' for Inactive)
REMARK    1  A    between atoms: C_1  and  C_2
REMARK    2  A    between atoms: N_4  and  C_5
REMARK    3  A    between atoms: C_9  and  C_10
REMARK    4  A    between atoms: C_14  and  N_15
REMARK    5  A    between atoms: N_15  and  C_16
REMARK    6  A    between atoms: C_16  and  C_17
REMARK    7  A    between atoms: C_19  and  C_20
REMARK                            x       y       z     vdW  Elec       q    Type
REMARK                         _______ _______ _______ _____ _____    ______ ____
ROOT
ATOM      1  C   UNL     1       3.007   5.881  18.404  0.00  0.00    +0.000 A 
ATOM      2  C   UNL     1       2.192   4.774  18.150  0.00  0.00    +0.000 A 
ATOM      3  N   UNL     1       2.648   3.504  18.096  0.00  0.00    +0.000 NA
ATOM      4  C   UNL     1       3.977   3.382  18.320  0.00  0.00    +0.000 A 
ATOM      5  C   UNL     1       4.844   4.465  18.509  0.00  0.00    +0.000 A 
ATOM      6  N   UNL     1       4.354   5.727  18.544  0.00  0.00    +0.000 NA
ENDROOT
BRANCH   1  11
ATOM      7  C   UNL     1       1.128   8.828  19.952  0.00  0.00    +0.000 A 
ATOM      8  C   UNL     1       1.321   9.803  18.974  0.00  0.00    +0.000 A 
ATOM      9  C   UNL     1       2.056   9.516  17.827  0.00  0.00    +0.000 A 
ATOM     10  C   UNL     1       2.604   8.246  17.650  0.00  0.00    +0.000 A 
ATOM     11  C   UNL     1       2.454   7.237  18.623  0.00  0.00    +0.000 A 
ATOM     12  C   UNL     1       1.715   7.561  19.779  0.00  0.00    +0.000 A 
BRANCH   7  16
ATOM     13  C   UNL     1      -0.202   9.459  23.427  0.00  0.00    +0.000 C 
ATOM     14  C   UNL     1       0.874   9.352  22.378  0.00  0.00    +0.000 C 
ATOM     15  O   UNL     1       2.052   9.514  22.680  0.00  0.00    +0.000 OA
ATOM     16  N   UNL     1       0.369   9.063  21.120  0.00  0.00    +0.000 N 
ATOM     17  H   UNL     1      -0.633   9.126  20.999  0.00  0.00    +0.000 HD
ENDBRANCH   7  16
ENDBRANCH   1  11
BRANCH   5  18
ATOM     18  N   UNL     1       6.182   4.206  18.817  0.00  0.00    +0.000 N 
ATOM     19  H   UNL     1       6.350   3.237  19.080  0.00  0.00    +0.000 HD
BRANCH  18  20
ATOM     20  C   UNL     1       7.157   4.572  17.792  0.00  0.00    +0.000 C 
BRANCH  20  21
ATOM     21  C   UNL     1       7.422   6.057  17.739  0.00  0.00    +0.000 A 
ATOM     22  C   UNL     1       8.066   6.857  18.711  0.00  0.00    +0.000 A 
ATOM     23  C   UNL     1       8.148   8.111  18.151  0.00  0.00    +0.000 A 
ATOM     24  C   UNL     1       8.750   9.372  18.638  0.00  0.00    +0.000 C 
ATOM     25  N   UNL     1       7.550   8.008  16.926  0.00  0.00    +0.000 N 
ATOM     26  N   UNL     1       7.088   6.775  16.653  0.00  0.00    +0.000 NA
ATOM     27  H   UNL     1       7.438   8.731  16.222  0.00  0.00    +0.000 HD
ENDBRANCH  20  21
ENDBRANCH  18  20
ENDBRANCH   5  18
TORSDOF 5
ENDMDL
MODEL 4
REMARK VINA RESULT:      -8.5      1.107      1.107
REMARK  Name = 
REMARK  7 active torsions:
REMARK  status: ('A' for Active; 'I' for Inactive)
REMARK    1  A    between atoms: C_1  and  C_2
REMARK    2  A    between atoms: N_4  and  C_5
REMARK    3  A    between atoms: C_9  and  C_10
REMARK    4  A    between atoms: C_14  and  N_15
REMARK    5  A    between atoms: N_15  and  C_16
REMARK    6  A    between atoms: C_16  and  C_17
REMARK    7  A    between atoms: C_19  and  C_20
REMARK                            x       y       z     vdW  Elec       q    Type
REMARK                         _______ _______ _______ _____ _____    ______ ____
ROOT
ATOM      1  C   UNL     1       2.678   5.998  19.401  0.00  0.00    +0.000 A 
ATOM      2  C   UNL     1       2.183   5.210  20.445  0.00  0.00    +0.000 A 
ATOM      3  N   UNL     1       2.661   3.985  20.751  0.00  0.00    +0.000 NA
ATOM      4  C   UNL     1       3.680   3.574  19.961  0.00  0.00    +0.000 A 
ATOM      5  C   UNL     1       4.162   4.296  18.863  0.00  0.00    +0.000 A 
ATOM      6  N   UNL     1       3.651   5.516  18.577  0.00  0.00    +0.000 NA
ENDROOT
BRANCH   1  11
ATOM      7  C   UNL     1       0.968   9.380  19.900  0.00  0.00    +0.000 A 
ATOM      8  C   UNL     1       1.360  10.044  18.738  0.00  0.00    +0.000 A 
ATOM      9  C   UNL     1       2.174   9.410  17.804  0.00  0.00    +0.000 A 
ATOM     10  C   UNL     1       2.602   8.102  18.026  0.00  0.00    +0.000 A 
ATOM     11  C   UNL     1       2.250   7.400  19.197  0.00  0.00    +0.000 A 
ATOM     12  C   UNL     1       1.434   8.073  20.130  0.00  0.00    +0.000 A 
BRANCH   7  16
ATOM     13  C   UNL     1      -0.698  11.456  22.576  0.00  0.00    +0.000 C 
ATOM     14  C   UNL     1       0.363  11.150  21.551  0.00  0.00    +0.000 C 
ATOM     15  O   UNL     1       1.314  11.910  21.397  0.00  0.00    +0.000 OA
ATOM     16  N   UNL     1       0.122   9.971  20.865  0.00  0.00    +0.000 N 
ATOM     17  H   UNL     1      -0.788   9.544  20.985  0.00  0.00    +0.000 HD
ENDBRANCH   7  16
ENDBRANCH   1  11
BRANCH   5  18
ATOM     18  N   UNL     1       5.277   3.806  18.177  0.00  0.00    +0.000 N 
ATOM     19  H   UNL     1       5.030   3.252  17.361  0.00  0.00    +0.000 HD
BRANCH  18  20
ATOM     20  C   UNL     1       6.264   4.802  17.767  0.00  0.00    +0.000 C 
BRANCH  20  21
ATOM     21  C   UNL     1       6.598   4.726  16.297  0.00  0.00    +0.000 A 
ATOM     22  C   UNL     1       6.101   3.809  15.343  0.00  0.00    +0.000 A 
ATOM     23  C   UNL     1       6.626   4.220  14.139  0.00  0.00    +0.000 A 
ATOM     24  C   UNL     1       6.451   3.711  12.761  0.00  0.00    +0.000 C 
ATOM     25  N   UNL     1       7.400   5.309  14.426  0.00  0.00    +0.000 N 
ATOM     26  N   UNL     1       7.413   5.634  15.731  0.00  0.00    +0.000 NA
ATOM     27  H   UNL     1       7.931   5.886  13.782  0.00  0.00    +0.000 HD
ENDBRANCH  20  21
ENDBRANCH  18  20
ENDBRANCH   5  18
TORSDOF 5
ENDMDL
MODEL 5
REMARK VINA RESULT:      -8.4      1.970      2.710
REMARK  Name = 
REMARK  7 active torsions:
REMARK  status: ('A' for Active; 'I' for Inactive)
REMARK    1  A    between atoms: C_1  and  C_2
REMARK    2  A    between atoms: N_4  and  C_5
REMARK    3  A    between atoms: C_9  and  C_10
REMARK    4  A    between atoms: C_14  and  N_15
REMARK    5  A    between atoms: N_15  and  C_16
REMARK    6  A    between atoms: C_16  and  C_17
REMARK    7  A    between atoms: C_19  and  C_20
REMARK                            x       y       z     vdW  Elec       q    Type
REMARK                         _______ _______ _______ _____ _____    ______ ____
ROOT
ATOM      1  C   UNL     1       3.115   5.523  19.127  0.00  0.00    +0.000 A 
ATOM      2  C   UNL     1       2.473   4.470  19.785  0.00  0.00    +0.000 A 
ATOM      3  N   UNL     1       3.032   3.256  19.981  0.00  0.00    +0.000 NA
ATOM      4  C   UNL     1       4.287   3.138  19.490  0.00  0.00    +0.000 A 
ATOM      5  C   UNL     1       4.944   4.140  18.764  0.00  0.00    +0.000 A 
ATOM      6  N   UNL     1       4.348   5.340  18.575  0.00  0.00    +0.000 NA
ENDROOT
BRANCH   1  11
ATOM      7  C   UNL     1       1.142   8.669  20.033  0.00  0.00    +0.000 A 
ATOM      8  C   UNL     1       1.384   9.460  18.911  0.00  0.00    +0.000 A 
ATOM      9  C   UNL     1       2.181   8.988  17.873  0.00  0.00    +0.000 A 
ATOM     10  C   UNL     1       2.743   7.715  17.950  0.00  0.00    +0.000 A 
ATOM     11  C   UNL     1       2.545   6.889  19.075  0.00  0.00    +0.000 A 
ATOM     12  C   UNL     1       1.742   7.399  20.116  0.00  0.00    +0.000 A 
BRANCH   7  16
ATOM     13  C   UNL     1      -0.558  10.404  22.922  0.00  0.00    +0.000 C 
ATOM     14  C   UNL     1       0.414  10.299  21.776  0.00  0.00    +0.000 C 
ATOM     15  O   UNL     1       1.181  11.224  21.528  0.00  0.00    +0.000 OA
ATOM     16  N   UNL     1       0.319   9.093  21.100  0.00  0.00    +0.000 N 
ATOM     17  H   UNL     1      -0.474   8.503  21.317  0.00  0.00    +0.000 HD
ENDBRANCH   7  16
ENDBRANCH   1  11
BRANCH   5  18
ATOM     18  N   UNL     1       6.272   3.930  18.384  0.00  0.00    +0.000 N 
ATOM     19  H   UNL     1       6.468   2.962  18.140  0.00  0.00    +0.000 HD
BRANCH  18  20
ATOM     20  C   UNL     1       6.770   4.779  17.304  0.00  0.00    +0.000 C 
BRANCH  20  21
ATOM     21  C   UNL     1       7.455   6.026  17.808  0.00  0.00    +0.000 A 
ATOM     22  C   UNL     1       7.494   7.300  17.195  0.00  0.00    +0.000 A 
ATOM     23  C   UNL     1       8.149   8.112  18.092  0.00  0.00    +0.000 A 
ATOM     24  C   UNL     1       8.468   9.557  18.064  0.00  0.00    +0.000 C 
ATOM     25  N   UNL     1       8.477   7.308  19.147  0.00  0.00    +0.000 N 
ATOM     26  N   UNL     1       8.080   6.032  18.998  0.00  0.00    +0.000 NA
ATOM     27  H   UNL     1       8.955   7.566  20.005  0.00  0.00    +0.000 HD
ENDBRANCH  20  21
ENDBRANCH  18  20
ENDBRANCH   5  18
TORSDOF 5
ENDMDL
MODEL 6
REMARK VINA RESULT:      -8.4      1.811      2.600
REMARK  Name = 
REMARK  7 active torsions:
REMARK  status: ('A' for Active; 'I' for Inactive)
REMARK    1  A    between atoms: C_1  and  C_2
REMARK    2  A    between atoms: N_4  and  C_5
REMARK    3  A    between atoms: C_9  and  C_10
REMARK    4  A    between atoms: C_14  and  N_15
REMARK    5  A    between atoms: N_15  and  C_16
REMARK    6  A    between atoms: C_16  and  C_17
REMARK    7  A    between atoms: C_19  and  C_20
REMARK                            x       y       z     vdW  Elec       q    Type
REMARK                         _______ _______ _______ _____ _____    ______ ____
ROOT
ATOM      1  C   UNL     1       2.947   6.269  18.774  0.00  0.00    +0.000 A 
ATOM      2  C   UNL     1       2.858   5.365  19.837  0.00  0.00    +0.000 A 
ATOM      3  N   UNL     1       3.514   4.186  19.876  0.00  0.00    +0.000 NA
ATOM      4  C   UNL     1       4.285   3.944  18.791  0.00  0.00    +0.000 A 
ATOM      5  C   UNL     1       4.352   4.784  17.673  0.00  0.00    +0.000 A 
ATOM      6  N   UNL     1       3.671   5.953  17.662  0.00  0.00    +0.000 NA
ENDROOT
BRANCH   1  11
ATOM      7  C   UNL     1       0.918   9.293  19.933  0.00  0.00    +0.000 A 
ATOM      8  C   UNL     1       1.144  10.177  18.879  0.00  0.00    +0.000 A 
ATOM      9  C   UNL     1       1.948   9.806  17.806  0.00  0.00    +0.000 A 
ATOM     10  C   UNL     1       2.534   8.541  17.779  0.00  0.00    +0.000 A 
ATOM     11  C   UNL     1       2.353   7.623  18.833  0.00  0.00    +0.000 A 
ATOM     12  C   UNL     1       1.542   8.032  19.913  0.00  0.00    +0.000 A 
BRANCH   7  16
ATOM     13  C   UNL     1      -0.665   9.969  23.291  0.00  0.00    +0.000 C 
ATOM     14  C   UNL     1       0.483   9.689  22.358  0.00  0.00    +0.000 C 
ATOM     15  O   UNL     1       1.620   9.553  22.798  0.00  0.00    +0.000 OA
ATOM     16  N   UNL     1       0.090   9.614  21.031  0.00  0.00    +0.000 N 
ATOM     17  H   UNL     1      -0.851   9.916  20.810  0.00  0.00    +0.000 HD
ENDBRANCH   7  16
ENDBRANCH   1  11
BRANCH   5  18
ATOM     18  N   UNL     1       5.253   4.468  16.652  0.00  0.00    +0.000 N 
ATOM     19  H   UNL     1       5.262   5.155  15.902  0.00  0.00    +0.000 HD
BRANCH  18  20
ATOM     20  C   UNL     1       6.634   4.233  17.067  0.00  0.00    +0.000 C 
BRANCH  20  21
ATOM     21  C   UNL     1       7.287   5.461  17.652  0.00  0.00    +0.000 A 
ATOM     22  C   UNL     1       7.341   6.760  17.098  0.00  0.00    +0.000 A 
ATOM     23  C   UNL     1       7.953   7.537  18.055  0.00  0.00    +0.000 A 
ATOM     24  C   UNL     1       8.261   8.984  18.103  0.00  0.00    +0.000 C 
ATOM     25  N   UNL     1       8.245   6.689  19.087  0.00  0.00    +0.000 N 
ATOM     26  N   UNL     1       7.864   5.419  18.866  0.00  0.00    +0.000 NA
ATOM     27  H   UNL     1       8.686   6.912  19.973  0.00  0.00    +0.000 HD
ENDBRANCH  20  21
ENDBRANCH  18  20
ENDBRANCH   5  18
TORSDOF 5
ENDMDL
MODEL 7
REMARK VINA RESULT:      -8.3      1.411      2.101
REMARK  Name = 
REMARK  7 active torsions:
REMARK  status: ('A' for Active; 'I' for Inactive)
REMARK    1  A    between atoms: C_1  and  C_2
REMARK    2  A    between atoms: N_4  and  C_5
REMARK    3  A    between atoms: C_9  and  C_10
REMARK    4  A    between atoms: C_14  and  N_15
REMARK    5  A    between atoms: N_15  and  C_16
REMARK    6  A    between atoms: C_16  and  C_17
REMARK    7  A    between atoms: C_19  and  C_20
REMARK                            x       y       z     vdW  Elec       q    Type
REMARK                         _______ _______ _______ _____ _____    ______ ____
ROOT
ATOM      1  C   UNL     1       2.692   5.426  19.355  0.00  0.00    +0.000 A 
ATOM      2  C   UNL     1       2.425   4.688  20.512  0.00  0.00    +0.000 A 
ATOM      3  N   UNL     1       2.894   3.441  20.731  0.00  0.00    +0.000 NA
ATOM      4  C   UNL     1       3.665   2.954  19.731  0.00  0.00    +0.000 A 
ATOM      5  C   UNL     1       3.903   3.627  18.526  0.00  0.00    +0.000 A 
ATOM      6  N   UNL     1       3.406   4.870  18.334  0.00  0.00    +0.000 NA
ENDROOT
BRANCH   1  11
ATOM      7  C   UNL     1       1.363   8.919  20.153  0.00  0.00    +0.000 A 
ATOM      8  C   UNL     1       1.476   9.532  18.905  0.00  0.00    +0.000 A 
ATOM      9  C   UNL     1       1.981   8.828  17.817  0.00  0.00    +0.000 A 
ATOM     10  C   UNL     1       2.378   7.500  17.968  0.00  0.00    +0.000 A 
ATOM     11  C   UNL     1       2.305   6.847  19.216  0.00  0.00    +0.000 A 
ATOM     12  C   UNL     1       1.799   7.590  20.303  0.00  0.00    +0.000 A 
BRANCH   7  16
ATOM     13  C   UNL     1      -0.616  10.154  23.120  0.00  0.00    +0.000 C 
ATOM     14  C   UNL     1      -0.253   9.171  22.037  0.00  0.00    +0.000 C 
ATOM     15  O   UNL     1      -0.897   8.137  21.898  0.00  0.00    +0.000 OA
ATOM     16  N   UNL     1       0.833   9.584  21.281  0.00  0.00    +0.000 N 
ATOM     17  H   UNL     1       1.361  10.376  21.625  0.00  0.00    +0.000 HD
ENDBRANCH   7  16
ENDBRANCH   1  11
BRANCH   5  18
ATOM     18  N   UNL     1       4.787   3.057  17.606  0.00  0.00    +0.000 N 
ATOM     19  H   UNL     1       4.402   2.242  17.135  0.00  0.00    +0.000 HD
BRANCH  18  20
ATOM     20  C   UNL     1       5.318   3.960  16.586  0.00  0.00    +0.000 C 
BRANCH  20  21
ATOM     21  C   UNL     1       6.306   4.956  17.142  0.00  0.00    +0.000 A 
ATOM     22  C   UNL     1       6.431   6.326  16.817  0.00  0.00    +0.000 A 
ATOM     23  C   UNL     1       7.402   6.812  17.662  0.00  0.00    +0.000 A 
ATOM     24  C   UNL     1       7.956   8.171  17.851  0.00  0.00    +0.000 C 
ATOM     25  N   UNL     1       7.812   5.741  18.407  0.00  0.00    +0.000 N 
ATOM     26  N   UNL     1       7.173   4.597  18.106  0.00  0.00    +0.000 NA
ATOM     27  H   UNL     1       8.507   5.724  19.146  0.00  0.00    +0.000 HD
ENDBRANCH  20  21
ENDBRANCH  18  20
ENDBRANCH   5  18
TORSDOF 5
ENDMDL
MODEL 8
REMARK VINA RESULT:      -8.3      1.258      1.358
REMARK  Name = 
REMARK  7 active torsions:
REMARK  status: ('A' for Active; 'I' for Inactive)
REMARK    1  A    between atoms: C_1  and  C_2
REMARK    2  A    between atoms: N_4  and  C_5
REMARK    3  A    between atoms: C_9  and  C_10
REMARK    4  A    between atoms: C_14  and  N_15
REMARK    5  A    between atoms: N_15  and  C_16
REMARK    6  A    between atoms: C_16  and  C_17
REMARK    7  A    between atoms: C_19  and  C_20
REMARK                            x       y       z     vdW  Elec       q    Type
REMARK                         _______ _______ _______ _____ _____    ______ ____
ROOT
ATOM      1  C   UNL     1       3.275   6.545  18.712  0.00  0.00    +0.000 A 
ATOM      2  C   UNL     1       2.842   5.290  19.153  0.00  0.00    +0.000 A 
ATOM      3  N   UNL     1       3.641   4.204  19.226  0.00  0.00    +0.000 NA
ATOM      4  C   UNL     1       4.919   4.429  18.842  0.00  0.00    +0.000 A 
ATOM      5  C   UNL     1       5.382   5.647  18.328  0.00  0.00    +0.000 A 
ATOM      6  N   UNL     1       4.549   6.711  18.256  0.00  0.00    +0.000 NA
ENDROOT
BRANCH   1  11
ATOM      7  C   UNL     1       0.801   9.152  20.011  0.00  0.00    +0.000 A 
ATOM      8  C   UNL     1       0.727  10.010  18.913  0.00  0.00    +0.000 A 
ATOM      9  C   UNL     1       1.471   9.754  17.766  0.00  0.00    +0.000 A 
ATOM     10  C   UNL     1       2.299   8.634  17.708  0.00  0.00    +0.000 A 
ATOM     11  C   UNL     1       2.424   7.752  18.802  0.00  0.00    +0.000 A 
ATOM     12  C   UNL     1       1.665   8.044  19.954  0.00  0.00    +0.000 A 
BRANCH   7  16
ATOM     13  C   UNL     1      -0.833  10.373  23.186  0.00  0.00    +0.000 C 
ATOM     14  C   UNL     1       0.003  10.517  21.941  0.00  0.00    +0.000 C 
ATOM     15  O   UNL     1       0.560  11.580  21.688  0.00  0.00    +0.000 OA
ATOM     16  N   UNL     1       0.045   9.355  21.187  0.00  0.00    +0.000 N 
ATOM     17  H   UNL     1      -0.601   8.617  21.438  0.00  0.00    +0.000 HD
ENDBRANCH   7  16
ENDBRANCH   1  11
BRANCH   5  18
ATOM     18  N   UNL     1       6.744   5.780  18.046  0.00  0.00    +0.000 N 
ATOM     19  H   UNL     1       7.297   6.027  18.863  0.00  0.00    +0.000 HD
BRANCH  18  20
ATOM     20  C   UNL     1       7.378   4.633  17.400  0.00  0.00    +0.000 C 
BRANCH  20  21
ATOM     21  C   UNL     1       7.102   4.568  15.918  0.00  0.00    +0.000 A 
ATOM     22  C   UNL     1       6.246   3.674  15.235  0.00  0.00    +0.000 A 
ATOM     23  C   UNL     1       6.264   4.088  13.922  0.00  0.00    +0.000 A 
ATOM     24  C   UNL     1       5.546   3.600  12.724  0.00  0.00    +0.000 C 
ATOM     25  N   UNL     1       7.116   5.156  13.884  0.00  0.00    +0.000 N 
ATOM     26  N   UNL     1       7.651   5.464  15.078  0.00  0.00    +0.000 NA
ATOM     27  H   UNL     1       7.365   5.729  13.083  0.00  0.00    +0.000 HD
ENDBRANCH  20  21
ENDBRANCH  18  20
ENDBRANCH   5  18
TORSDOF 5
ENDMDL
MODEL 9
REMARK VINA RESULT:      -8.2      2.862      8.348
REMARK  Name = 
REMARK  7 active torsions:
REMARK  status: ('A' for Active; 'I' for Inactive)
REMARK    1  A    between atoms: C_1  and  C_2
REMARK    2  A    between atoms: N_4  and  C_5
REMARK    3  A    between atoms: C_9  and  C_10
REMARK    4  A    between atoms: C_14  and  N_15
REMARK    5  A    between atoms: N_15  and  C_16
REMARK    6  A    between atoms: C_16  and  C_17
REMARK    7  A    between atoms: C_19  and  C_20
REMARK                            x       y       z     vdW  Elec       q    Type
REMARK                         _______ _______ _______ _____ _____    ______ ____
ROOT
ATOM      1  C   UNL     1       3.761   4.298  19.159  0.00  0.00    +0.000 A 
ATOM      2  C   UNL     1       3.005   3.123  19.209  0.00  0.00    +0.000 A 
ATOM      3  N   UNL     1       1.818   3.022  19.846  0.00  0.00    +0.000 NA
ATOM      4  C   UNL     1       1.404   4.169  20.434  0.00  0.00    +0.000 A 
ATOM      5  C   UNL     1       2.158   5.349  20.470  0.00  0.00    +0.000 A 
ATOM      6  N   UNL     1       3.350   5.411  19.832  0.00  0.00    +0.000 NA
ENDROOT
BRANCH   1  11
ATOM      7  C   UNL     1       6.157   4.061  16.191  0.00  0.00    +0.000 A 
ATOM      8  C   UNL     1       7.322   4.581  16.754  0.00  0.00    +0.000 A 
ATOM      9  C   UNL     1       7.334   5.011  18.077  0.00  0.00    +0.000 A 
ATOM     10  C   UNL     1       6.177   4.923  18.850  0.00  0.00    +0.000 A 
ATOM     11  C   UNL     1       4.971   4.425  18.316  0.00  0.00    +0.000 A 
ATOM     12  C   UNL     1       4.986   4.008  16.969  0.00  0.00    +0.000 A 
BRANCH   7  16
ATOM     13  C   UNL     1       6.299   3.500  12.461  0.00  0.00    +0.000 C 
ATOM     14  C   UNL     1       6.601   4.234  13.742  0.00  0.00    +0.000 C 
ATOM     15  O   UNL     1       7.228   5.288  13.718  0.00  0.00    +0.000 OA
ATOM     16  N   UNL     1       6.101   3.588  14.861  0.00  0.00    +0.000 N 
ATOM     17  H   UNL     1       5.756   2.645  14.734  0.00  0.00    +0.000 HD
ENDBRANCH   7  16
ENDBRANCH   1  11
BRANCH   5  18
ATOM     18  N   UNL     1       1.585   6.491  21.033  0.00  0.00    +0.000 N 
ATOM     19  H   UNL     1       1.849   6.632  22.006  0.00  0.00    +0.000 HD
BRANCH  18  20
ATOM     20  C   UNL     1       1.816   7.743  20.316  0.00  0.00    +0.000 C 
BRANCH  20  21
ATOM     21  C   UNL     1       0.894   8.853  20.760  0.00  0.00    +0.000 A 
ATOM     22  C   UNL     1       0.326   9.046  22.040  0.00  0.00    +0.000 A 
ATOM     23  C   UNL     1      -0.348  10.243  21.960  0.00  0.00    +0.000 A 
ATOM     24  C   UNL     1      -1.106  11.018  22.967  0.00  0.00    +0.000 C 
ATOM     25  N   UNL     1      -0.175  10.678  20.676  0.00  0.00    +0.000 N 
ATOM     26  N   UNL     1       0.565   9.849  19.919  0.00  0.00    +0.000 NA
ATOM     27  H   UNL     1      -0.518  11.536  20.255  0.00  0.00    +0.000 HD
ENDBRANCH  20  21
ENDBRANCH  18  20
ENDBRANCH   5  18
TORSDOF 5
ENDMDL
