MODEL 1
REMARK VINA RESULT:      -8.5      0.000      0.000
REMARK  Name = 
REMARK  4 active torsions:
REMARK  status: ('A' for Active; 'I' for Inactive)
REMARK    1  A    between atoms: C_1  and  C_2
REMARK    2  A    between atoms: C_5  and  C_6
REMARK    3  A    between atoms: C_9  and  C_10
REMARK    4  A    between atoms: C_10  and  C_11
REMARK                            x       y       z     vdW  Elec       q    Type
REMARK                         _______ _______ _______ _____ _____    ______ ____
ROOT
ATOM      1  C   UNL     1       7.990   9.436  17.612  0.00  0.00    +0.000 C 
ATOM      2  C   UNL     1       7.735   8.154  17.901  0.00  0.00    +0.000 C 
ATOM      3  C   UNL     1       6.788   7.331  17.235  0.00  0.00    +0.000 C 
ATOM      4  C   UNL     1       6.869   6.097  17.724  0.00  0.00    +0.000 C 
ATOM      5  C   UNL     1       7.902   6.155  18.767  0.00  0.00    +0.000 C 
ATOM      6  O   UNL     1       8.267   5.197  19.429  0.00  0.00    +0.000 OA
ATOM      7  O   UNL     1       8.413   7.423  18.864  0.00  0.00    +0.000 OA
ENDROOT
BRANCH   1  12
ATOM      8  C   UNL     1      12.252  12.357  20.185  0.00  0.00    +0.000 C 
ATOM      9  C   UNL     1      11.116  11.633  19.526  0.00  0.00    +0.000 A 
ATOM     10  C   UNL     1      10.152  10.964  20.286  0.00  0.00    +0.000 A 
ATOM     11  C   UNL     1       9.120  10.261  19.660  0.00  0.00    +0.000 A 
ATOM     12  C   UNL     1       9.042  10.218  18.263  0.00  0.00    +0.000 A 
ATOM     13  C   UNL     1       9.988  10.905  17.500  0.00  0.00    +0.000 A 
ATOM     14  C   UNL     1      11.019  11.609  18.129  0.00  0.00    +0.000 A 
ENDBRANCH   1  12
BRANCH   4  15
ATOM     15  C   UNL     1       6.232   4.836  17.279  0.00  0.00    +0.000 C 
BRANCH  15  16
ATOM     16  C   UNL     1       4.736   4.793  17.463  0.00  0.00    +0.000 A 
ATOM     17  C   UNL     1       4.013   3.637  17.131  0.00  0.00    +0.000 A 
ATOM     18  C   UNL     1       2.634   3.577  17.344  0.00  0.00    +0.000 A 
ATOM     19  C   UNL     1       1.965   4.674  17.884  0.00  0.00    +0.000 A 
ATOM     20  C   UNL     1       2.670   5.833  18.199  0.00  0.00    +0.000 A 
ATOM     21  C   UNL     1       4.047   5.897  17.985  0.00  0.00    +0.000 A 
ENDBRANCH  15  16
ENDBRANCH   4  15
TORSDOF 3
ENDMDL
MODEL 2
REMARK VINA RESULT:      -8.5      0.040      1.055
REMARK  Name = 
REMARK  4 active torsions:
REMARK  status: ('A' for Active; 'I' for Inactive)
REMARK    1  A    between atoms: C_1  and  C_2
REMARK    2  A    between atoms: C_5  and  C_6
REMARK    3  A    between atoms: C_9  and  C_10
REMARK    4  A    between atoms: C_10  and  C_11
REMARK                            x       y       z     vdW  Elec       q    Type
REMARK                         _______ _______ _______ _____ _____    ______ ____
ROOT
ATOM      1  C   UNL     1       8.012   9.453  17.600  0.00  0.00    +0.000 C 
ATOM      2  C   UNL     1       7.754   8.171  17.888  0.00  0.00    +0.000 C 
ATOM      3  C   UNL     1       6.802   7.351  17.224  0.00  0.00    +0.000 C 
ATOM      4  C   UNL     1       6.882   6.117  17.711  0.00  0.00    +0.000 C 
ATOM      5  C   UNL     1       7.919   6.170  18.749  0.00  0.00    +0.000 C 
ATOM      6  O   UNL     1       8.284   5.210  19.409  0.00  0.00    +0.000 OA
ATOM      7  O   UNL     1       8.434   7.436  18.847  0.00  0.00    +0.000 OA
ENDROOT
BRANCH   1  12
ATOM      8  C   UNL     1      12.292  12.357  20.162  0.00  0.00    +0.000 C 
ATOM      9  C   UNL     1      11.151  11.638  19.505  0.00  0.00    +0.000 A 
ATOM     10  C   UNL     1      10.182  10.978  20.268  0.00  0.00    +0.000 A 
ATOM     11  C   UNL     1       9.146  10.280  19.644  0.00  0.00    +0.000 A 
ATOM     12  C   UNL     1       9.069  10.230  18.248  0.00  0.00    +0.000 A 
ATOM     13  C   UNL     1      10.020  10.908  17.482  0.00  0.00    +0.000 A 
ATOM     14  C   UNL     1      11.056  11.607  18.108  0.00  0.00    +0.000 A 
ENDBRANCH   1  12
BRANCH   4  15
ATOM     15  C   UNL     1       6.239   4.858  17.266  0.00  0.00    +0.000 C 
BRANCH  15  16
ATOM     16  C   UNL     1       4.752   4.796  17.509  0.00  0.00    +0.000 A 
ATOM     17  C   UNL     1       4.076   5.900  18.052  0.00  0.00    +0.000 A 
ATOM     18  C   UNL     1       2.692   5.863  18.234  0.00  0.00    +0.000 A 
ATOM     19  C   UNL     1       1.973   4.722  17.882  0.00  0.00    +0.000 A 
ATOM     20  C   UNL     1       2.637   3.614  17.360  0.00  0.00    +0.000 A 
ATOM     21  C   UNL     1       4.021   3.647  17.179  0.00  0.00    +0.000 A 
ENDBRANCH  15  16
ENDBRANCH   4  15
TORSDOF 3
ENDMDL
MODEL 3
REMARK VINA RESULT:      -8.5      0.088      1.493
REMARK  Name = 
REMARK  4 active torsions:
REMARK  status: ('A' for Active; 'I' for Inactive)
REMARK    1  A    between atoms: C_1  and  C_2
REMARK    2  A    between atoms: C_5  and  C_6
REMARK    3  A    between atoms: C_9  and  C_10
REMARK    4  A    between atoms: C_10  and  C_11
REMARK                            x       y       z     vdW  Elec       q    Type
REMARK                         _______ _______ _______ _____ _____    ______ ____
ROOT
ATOM      1  C   UNL     1       8.003   9.421  17.621  0.00  0.00    +0.000 C 
ATOM      2  C   UNL     1       7.739   8.138  17.896  0.00  0.00    +0.000 C 
ATOM      3  C   UNL     1       6.790   7.326  17.219  0.00  0.00    +0.000 C 
ATOM      4  C   UNL     1       6.862   6.087  17.696  0.00  0.00    +0.000 C 
ATOM      5  C   UNL     1       7.892   6.128  18.742  0.00  0.00    +0.000 C 
ATOM      6  O   UNL     1       8.250   5.162  19.396  0.00  0.00    +0.000 OA
ATOM      7  O   UNL     1       8.410   7.393  18.853  0.00  0.00    +0.000 OA
ENDROOT
BRANCH   1  12
ATOM      8  C   UNL     1      12.051  12.612  20.218  0.00  0.00    +0.000 C 
ATOM      9  C   UNL     1      11.031  11.749  19.537  0.00  0.00    +0.000 A 
ATOM     10  C   UNL     1      11.001  11.633  18.143  0.00  0.00    +0.000 A 
ATOM     11  C   UNL     1      10.022  10.857  17.519  0.00  0.00    +0.000 A 
ATOM     12  C   UNL     1       9.058  10.189  18.282  0.00  0.00    +0.000 A 
ATOM     13  C   UNL     1       9.098  10.282  19.675  0.00  0.00    +0.000 A 
ATOM     14  C   UNL     1      10.080  11.058  20.298  0.00  0.00    +0.000 A 
ENDBRANCH   1  12
BRANCH   4  15
ATOM     15  C   UNL     1       6.219   4.835  17.236  0.00  0.00    +0.000 C 
BRANCH  15  16
ATOM     16  C   UNL     1       4.733   4.768  17.483  0.00  0.00    +0.000 A 
ATOM     17  C   UNL     1       4.051   5.876  18.010  0.00  0.00    +0.000 A 
ATOM     18  C   UNL     1       2.668   5.835  18.196  0.00  0.00    +0.000 A 
ATOM     19  C   UNL     1       1.955   4.685  17.863  0.00  0.00    +0.000 A 
ATOM     20  C   UNL     1       2.624   3.573  17.356  0.00  0.00    +0.000 A 
ATOM     21  C   UNL     1       4.007   3.610  17.172  0.00  0.00    +0.000 A 
ENDBRANCH  15  16
ENDBRANCH   4  15
TORSDOF 3
ENDMDL
MODEL 4
REMARK VINA RESULT:      -8.4      0.803      1.340
REMARK  Name = 
REMARK  4 active torsions:
REMARK  status: ('A' for Active; 'I' for Inactive)
REMARK    1  A    between atoms: C_1  and  C_2
REMARK    2  A    between atoms: C_5  and  C_6
REMARK    3  A    between atoms: C_9  and  C_10
REMARK    4  A    between atoms: C_10  and  C_11
REMARK                            x       y       z     vdW  Elec       q    Type
REMARK                         _______ _______ _______ _____ _____    ______ ____
ROOT
ATOM      1  C   UNL     1       8.051   9.442  17.663  0.00  0.00    +0.000 C 
ATOM      2  C   UNL     1       7.800   8.163  17.968  0.00  0.00    +0.000 C 
ATOM      3  C   UNL     1       6.845   7.332  17.323  0.00  0.00    +0.000 C 
ATOM      4  C   UNL     1       6.934   6.103  17.823  0.00  0.00    +0.000 C 
ATOM      5  C   UNL     1       7.982   6.171  18.849  0.00  0.00    +0.000 C 
ATOM      6  O   UNL     1       8.357   5.220  19.515  0.00  0.00    +0.000 OA
ATOM      7  O   UNL     1       8.493   7.441  18.927  0.00  0.00    +0.000 OA
ENDROOT
BRANCH   1  12
ATOM      8  C   UNL     1      12.121  12.708  20.130  0.00  0.00    +0.000 C 
ATOM      9  C   UNL     1      11.095  11.826  19.482  0.00  0.00    +0.000 A 
ATOM     10  C   UNL     1      11.029  11.701  18.091  0.00  0.00    +0.000 A 
ATOM     11  C   UNL     1      10.045  10.907  17.499  0.00  0.00    +0.000 A 
ATOM     12  C   UNL     1       9.112  10.230  18.292  0.00  0.00    +0.000 A 
ATOM     13  C   UNL     1       9.189  10.332  19.682  0.00  0.00    +0.000 A 
ATOM     14  C   UNL     1      10.175  11.126  20.274  0.00  0.00    +0.000 A 
ENDBRANCH   1  12
BRANCH   4  15
ATOM     15  C   UNL     1       6.291   4.838  17.398  0.00  0.00    +0.000 C 
BRANCH  15  16
ATOM     16  C   UNL     1       4.916   4.612  17.975  0.00  0.00    +0.000 A 
ATOM     17  C   UNL     1       4.743   3.778  19.091  0.00  0.00    +0.000 A 
ATOM     18  C   UNL     1       3.478   3.604  19.656  0.00  0.00    +0.000 A 
ATOM     19  C   UNL     1       2.375   4.255  19.107  0.00  0.00    +0.000 A 
ATOM     20  C   UNL     1       2.532   5.070  17.988  0.00  0.00    +0.000 A 
ATOM     21  C   UNL     1       3.795   5.243  17.419  0.00  0.00    +0.000 A 
ENDBRANCH  15  16
ENDBRANCH   4  15
TORSDOF 3
ENDMDL
MODEL 5
REMARK VINA RESULT:      -8.2      5.077      7.480
REMARK  Name = 
REMARK  4 active torsions:
REMARK  status: ('A' for Active; 'I' for Inactive)
REMARK    1  A    between atoms: C_1  and  C_2
REMARK    2  A    between atoms: C_5  and  C_6
REMARK    3  A    between atoms: C_9  and  C_10
REMARK    4  A    between atoms: C_10  and  C_11
REMARK                            x       y       z     vdW  Elec       q    Type
REMARK                         _______ _______ _______ _____ _____    ______ ____
ROOT
ATOM      1  C   UNL     1       1.941   8.208  19.610  0.00  0.00    +0.000 C 
ATOM      2  C   UNL     1       2.217   6.908  19.770  0.00  0.00    +0.000 C 
ATOM      3  C   UNL     1       3.140   6.159  18.993  0.00  0.00    +0.000 C 
ATOM      4  C   UNL     1       3.225   4.929  19.490  0.00  0.00    +0.000 C 
ATOM      5  C   UNL     1       2.290   4.897  20.622  0.00  0.00    +0.000 C 
ATOM      6  O   UNL     1       2.110   3.927  21.340  0.00  0.00    +0.000 OA
ATOM      7  O   UNL     1       1.678   6.115  20.771  0.00  0.00    +0.000 OA
ENDROOT
BRANCH   1  12
ATOM      8  C   UNL     1      -1.426  11.313  23.124  0.00  0.00    +0.000 C 
ATOM      9  C   UNL     1      -0.579  10.470  22.217  0.00  0.00    +0.000 A 
ATOM     10  C   UNL     1       0.322   9.536  22.737  0.00  0.00    +0.000 A 
ATOM     11  C   UNL     1       1.132   8.785  21.883  0.00  0.00    +0.000 A 
ATOM     12  C   UNL     1       1.052   8.960  20.497  0.00  0.00    +0.000 A 
ATOM     13  C   UNL     1       0.136   9.874  19.972  0.00  0.00    +0.000 A 
ATOM     14  C   UNL     1      -0.675  10.625  20.828  0.00  0.00    +0.000 A 
ENDBRANCH   1  12
BRANCH   4  15
ATOM     15  C   UNL     1       4.145   3.814  19.162  0.00  0.00    +0.000 C 
BRANCH  15  16
ATOM     16  C   UNL     1       5.099   4.104  18.032  0.00  0.00    +0.000 A 
ATOM     17  C   UNL     1       6.378   4.619  18.297  0.00  0.00    +0.000 A 
ATOM     18  C   UNL     1       7.281   4.844  17.257  0.00  0.00    +0.000 A 
ATOM     19  C   UNL     1       6.913   4.564  15.942  0.00  0.00    +0.000 A 
ATOM     20  C   UNL     1       5.640   4.071  15.665  0.00  0.00    +0.000 A 
ATOM     21  C   UNL     1       4.734   3.847  16.703  0.00  0.00    +0.000 A 
ENDBRANCH  15  16
ENDBRANCH   4  15
TORSDOF 3
ENDMDL
MODEL 6
REMARK VINA RESULT:      -8.2      5.051      7.419
REMARK  Name = 
REMARK  4 active torsions:
REMARK  status: ('A' for Active; 'I' for Inactive)
REMARK    1  A    between atoms: C_1  and  C_2
REMARK    2  A    between atoms: C_5  and  C_6
REMARK    3  A    between atoms: C_9  and  C_10
REMARK    4  A    between atoms: C_10  and  C_11
REMARK                            x       y       z     vdW  Elec       q    Type
REMARK                         _______ _______ _______ _____ _____    ______ ____
ROOT
ATOM      1  C   UNL     1       1.955   8.173  19.581  0.00  0.00    +0.000 C 
ATOM      2  C   UNL     1       2.237   6.875  19.752  0.00  0.00    +0.000 C 
ATOM      3  C   UNL     1       3.159   6.121  18.978  0.00  0.00    +0.000 C 
ATOM      4  C   UNL     1       3.250   4.897  19.487  0.00  0.00    +0.000 C 
ATOM      5  C   UNL     1       2.322   4.873  20.625  0.00  0.00    +0.000 C 
ATOM      6  O   UNL     1       2.149   3.910  21.354  0.00  0.00    +0.000 OA
ATOM      7  O   UNL     1       1.706   6.090  20.764  0.00  0.00    +0.000 OA
ENDROOT
BRANCH   1  12
ATOM      8  C   UNL     1      -1.403  11.300  23.083  0.00  0.00    +0.000 C 
ATOM      9  C   UNL     1      -0.559  10.451  22.179  0.00  0.00    +0.000 A 
ATOM     10  C   UNL     1       0.329   9.505  22.701  0.00  0.00    +0.000 A 
ATOM     11  C   UNL     1       1.136   8.748  21.850  0.00  0.00    +0.000 A 
ATOM     12  C   UNL     1       1.068   8.931  20.464  0.00  0.00    +0.000 A 
ATOM     13  C   UNL     1       0.166   9.856  19.937  0.00  0.00    +0.000 A 
ATOM     14  C   UNL     1      -0.643  10.612  20.790  0.00  0.00    +0.000 A 
ENDBRANCH   1  12
BRANCH   4  15
ATOM     15  C   UNL     1       4.173   3.782  19.166  0.00  0.00    +0.000 C 
BRANCH  15  16
ATOM     16  C   UNL     1       5.122   4.065  18.029  0.00  0.00    +0.000 A 
ATOM     17  C   UNL     1       4.738   3.808  16.704  0.00  0.00    +0.000 A 
ATOM     18  C   UNL     1       5.595   4.112  15.645  0.00  0.00    +0.000 A 
ATOM     19  C   UNL     1       6.847   4.670  15.901  0.00  0.00    +0.000 A 
ATOM     20  C   UNL     1       7.246   4.912  17.214  0.00  0.00    +0.000 A 
ATOM     21  C   UNL     1       6.391   4.606  18.274  0.00  0.00    +0.000 A 
ENDBRANCH  15  16
ENDBRANCH   4  15
TORSDOF 3
ENDMDL
MODEL 7
REMARK VINA RESULT:      -8.1      5.039      7.464
REMARK  Name = 
REMARK  4 active torsions:
REMARK  status: ('A' for Active; 'I' for Inactive)
REMARK    1  A    between atoms: C_1  and  C_2
REMARK    2  A    between atoms: C_5  and  C_6
REMARK    3  A    between atoms: C_9  and  C_10
REMARK    4  A    between atoms: C_10  and  C_11
REMARK                            x       y       z     vdW  Elec       q    Type
REMARK                         _______ _______ _______ _____ _____    ______ ____
ROOT
ATOM      1  C   UNL     1       1.947   8.162  19.556  0.00  0.00    +0.000 C 
ATOM      2  C   UNL     1       2.216   6.863  19.735  0.00  0.00    +0.000 C 
ATOM      3  C   UNL     1       3.082   6.080  18.926  0.00  0.00    +0.000 C 
ATOM      4  C   UNL     1       3.181   4.863  19.451  0.00  0.00    +0.000 C 
ATOM      5  C   UNL     1       2.316   4.875  20.638  0.00  0.00    +0.000 C 
ATOM      6  O   UNL     1       2.167   3.928  21.392  0.00  0.00    +0.000 OA
ATOM      7  O   UNL     1       1.729   6.105  20.789  0.00  0.00    +0.000 OA
ENDROOT
BRANCH   1  12
ATOM      8  C   UNL     1      -1.445  11.136  23.157  0.00  0.00    +0.000 C 
ATOM      9  C   UNL     1      -0.536  10.401  22.217  0.00  0.00    +0.000 A 
ATOM     10  C   UNL     1      -0.616  10.601  20.835  0.00  0.00    +0.000 A 
ATOM     11  C   UNL     1       0.209   9.882  19.968  0.00  0.00    +0.000 A 
ATOM     12  C   UNL     1       1.123   8.951  20.473  0.00  0.00    +0.000 A 
ATOM     13  C   UNL     1       1.224   8.765  21.853  0.00  0.00    +0.000 A 
ATOM     14  C   UNL     1       0.398   9.487  22.720  0.00  0.00    +0.000 A 
ENDBRANCH   1  12
BRANCH   4  15
ATOM     15  C   UNL     1       4.066   3.727  19.101  0.00  0.00    +0.000 C 
BRANCH  15  16
ATOM     16  C   UNL     1       5.072   4.030  18.019  0.00  0.00    +0.000 A 
ATOM     17  C   UNL     1       4.762   3.782  16.673  0.00  0.00    +0.000 A 
ATOM     18  C   UNL     1       5.672   4.104  15.665  0.00  0.00    +0.000 A 
ATOM     19  C   UNL     1       6.902   4.672  15.992  0.00  0.00    +0.000 A 
ATOM     20  C   UNL     1       7.228   4.906  17.327  0.00  0.00    +0.000 A 
ATOM     21  C   UNL     1       6.321   4.581  18.337  0.00  0.00    +0.000 A 
ENDBRANCH  15  16
ENDBRANCH   4  15
TORSDOF 3
ENDMDL
MODEL 8
REMARK VINA RESULT:      -8.1      4.092      6.641
REMARK  Name = 
REMARK  4 active torsions:
REMARK  status: ('A' for Active; 'I' for Inactive)
REMARK    1  A    between atoms: C_1  and  C_2
REMARK    2  A    between atoms: C_5  and  C_6
REMARK    3  A    between atoms: C_9  and  C_10
REMARK    4  A    between atoms: C_10  and  C_11
REMARK                            x       y       z     vdW  Elec       q    Type
REMARK                         _______ _______ _______ _____ _____    ______ ____
ROOT
ATOM      1  C   UNL     1       2.994   6.150  18.153  0.00  0.00    +0.000 C 
ATOM      2  C   UNL     1       4.269   6.122  17.747  0.00  0.00    +0.000 C 
ATOM      3  C   UNL     1       4.954   4.977  17.258  0.00  0.00    +0.000 C 
ATOM      4  C   UNL     1       6.171   5.339  16.863  0.00  0.00    +0.000 C 
ATOM      5  C   UNL     1       6.263   6.778  17.139  0.00  0.00    +0.000 C 
ATOM      6  O   UNL     1       7.238   7.468  16.889  0.00  0.00    +0.000 OA
ATOM      7  O   UNL     1       5.092   7.235  17.687  0.00  0.00    +0.000 OA
ENDROOT
BRANCH   1  12
ATOM      8  C   UNL     1       0.439  11.059  19.794  0.00  0.00    +0.000 C 
ATOM      9  C   UNL     1       1.062   9.762  19.370  0.00  0.00    +0.000 A 
ATOM     10  C   UNL     1       1.354   8.764  20.306  0.00  0.00    +0.000 A 
ATOM     11  C   UNL     1       1.968   7.577  19.903  0.00  0.00    +0.000 A 
ATOM     12  C   UNL     1       2.302   7.374  18.560  0.00  0.00    +0.000 A 
ATOM     13  C   UNL     1       1.991   8.357  17.618  0.00  0.00    +0.000 A 
ATOM     14  C   UNL     1       1.374   9.545  18.022  0.00  0.00    +0.000 A 
ENDBRANCH   1  12
BRANCH   4  15
ATOM     15  C   UNL     1       7.217   4.581  16.137  0.00  0.00    +0.000 C 
BRANCH  15  16
ATOM     16  C   UNL     1       7.008   4.499  14.646  0.00  0.00    +0.000 A 
ATOM     17  C   UNL     1       7.780   5.285  13.777  0.00  0.00    +0.000 A 
ATOM     18  C   UNL     1       7.622   5.177  12.394  0.00  0.00    +0.000 A 
ATOM     19  C   UNL     1       6.687   4.287  11.867  0.00  0.00    +0.000 A 
ATOM     20  C   UNL     1       5.902   3.516  12.722  0.00  0.00    +0.000 A 
ATOM     21  C   UNL     1       6.056   3.624  14.105  0.00  0.00    +0.000 A 
ENDBRANCH  15  16
ENDBRANCH   4  15
TORSDOF 3
ENDMDL
MODEL 9
REMARK VINA RESULT:      -8.1      4.123      6.750
REMARK  Name = 
REMARK  4 active torsions:
REMARK  status: ('A' for Active; 'I' for Inactive)
REMARK    1  A    between atoms: C_1  and  C_2
REMARK    2  A    between atoms: C_5  and  C_6
REMARK    3  A    between atoms: C_9  and  C_10
REMARK    4  A    between atoms: C_10  and  C_11
REMARK                            x       y       z     vdW  Elec       q    Type
REMARK                         _______ _______ _______ _____ _____    ______ ____
ROOT
ATOM      1  C   UNL     1       3.030   6.184  18.387  0.00  0.00    +0.000 C 
ATOM      2  C   UNL     1       4.280   6.144  17.911  0.00  0.00    +0.000 C 
ATOM      3  C   UNL     1       4.968   4.973  17.493  0.00  0.00    +0.000 C 
ATOM      4  C   UNL     1       6.150   5.321  16.995  0.00  0.00    +0.000 C 
ATOM      5  C   UNL     1       6.218   6.782  17.127  0.00  0.00    +0.000 C 
ATOM      6  O   UNL     1       7.158   7.465  16.755  0.00  0.00    +0.000 OA
ATOM      7  O   UNL     1       5.068   7.265  17.697  0.00  0.00    +0.000 OA
ENDROOT
BRANCH   1  12
ATOM      8  C   UNL     1       0.097  10.996  19.635  0.00  0.00    +0.000 C 
ATOM      9  C   UNL     1       0.898   9.770  19.311  0.00  0.00    +0.000 A 
ATOM     10  C   UNL     1       1.354   9.532  18.010  0.00  0.00    +0.000 A 
ATOM     11  C   UNL     1       2.066   8.368  17.714  0.00  0.00    +0.000 A 
ATOM     12  C   UNL     1       2.329   7.426  18.715  0.00  0.00    +0.000 A 
ATOM     13  C   UNL     1       1.898   7.672  20.020  0.00  0.00    +0.000 A 
ATOM     14  C   UNL     1       1.186   8.838  20.316  0.00  0.00    +0.000 A 
ENDBRANCH   1  12
BRANCH   4  15
ATOM     15  C   UNL     1       7.174   4.520  16.284  0.00  0.00    +0.000 C 
BRANCH  15  16
ATOM     16  C   UNL     1       7.003   4.475  14.787  0.00  0.00    +0.000 A 
ATOM     17  C   UNL     1       7.831   5.244  13.955  0.00  0.00    +0.000 A 
ATOM     18  C   UNL     1       7.707   5.170  12.566  0.00  0.00    +0.000 A 
ATOM     19  C   UNL     1       6.751   4.330  11.997  0.00  0.00    +0.000 A 
ATOM     20  C   UNL     1       5.912   3.576  12.813  0.00  0.00    +0.000 A 
ATOM     21  C   UNL     1       6.032   3.651  14.202  0.00  0.00    +0.000 A 
ENDBRANCH  15  16
ENDBRANCH   4  15
TORSDOF 3
ENDMDL
