MODEL 1
REMARK VINA RESULT:      -6.2      0.000      0.000
REMARK  Name = 
REMARK  9 active torsions:
REMARK  status: ('A' for Active; 'I' for Inactive)
REMARK    1  A    between atoms: C_1  and  O_2
REMARK    2  A    between atoms: O_2  and  C_3
REMARK    3  A    between atoms: C_13  and  O_14
REMARK    4  A    between atoms: O_14  and  C_15
REMARK    5  A    between atoms: C_16  and  O_17
REMARK    6  A    between atoms: C_19  and  C_20
REMARK    7  A    between atoms: C_20  and  C_21
REMARK    8  A    between atoms: C_21  and  C_22
REMARK    9  A    between atoms: N_28  and  C_29
REMARK                            x       y       z     vdW  Elec       q    Type
REMARK                         _______ _______ _______ _____ _____    ______ ____
ROOT
ATOM      1  C   UNL     1      -4.493  15.228  22.459  0.00  0.00    +0.000 A 
ATOM      2  C   UNL     1      -5.106  14.276  23.274  0.00  0.00    +0.000 A 
ATOM      3  C   UNL     1      -4.820  12.944  23.079  0.00  0.00    +0.000 A 
ATOM      4  C   UNL     1      -3.740  12.643  22.235  0.00  0.00    +0.000 A 
ATOM      5  C   UNL     1      -3.461  13.459  21.092  0.00  0.00    +0.000 A 
ATOM      6  C   UNL     1      -3.799  14.812  21.289  0.00  0.00    +0.000 A 
ATOM      7  C   UNL     1      -2.831  12.899  19.782  0.00  0.00    +0.000 A 
ATOM      8  C   UNL     1      -1.480  13.149  19.315  0.00  0.00    +0.000 A 
ATOM      9  C   UNL     1      -0.997  12.608  18.101  0.00  0.00    +0.000 A 
ATOM     10  C   UNL     1      -1.724  11.650  17.419  0.00  0.00    +0.000 A 
ATOM     11  C   UNL     1      -2.960  11.250  17.910  0.00  0.00    +0.000 A 
ATOM     12  C   UNL     1      -3.529  11.905  19.033  0.00  0.00    +0.000 A 
ATOM     13  C   UNL     1      -0.365  13.748  20.191  0.00  0.00    +0.000 C 
ATOM     14  C   UNL     1      -0.365  13.019  21.547  0.00  0.00    +0.000 C 
ATOM     15  N   UNL     1      -0.411  13.768  22.811  0.00  0.00    +0.000 NA
ATOM     16  C   UNL     1      -0.395  15.225  22.667  0.00  0.00    +0.000 C 
ATOM     17  C   UNL     1      -1.585  13.322  23.638  0.00  0.00    +0.000 C 
ATOM     18  C   UNL     1      -2.566  12.149  23.146  0.00  0.00    +0.000 C 
ENDROOT
BRANCH   1  20
ATOM     19  C   UNL     1      -5.687  17.078  23.361  0.00  0.00    +0.000 C 
ATOM     20  O   UNL     1      -4.485  16.569  22.763  0.00  0.00    +0.000 OA
ENDBRANCH   1  20
BRANCH  11  21
ATOM     21  O   UNL     1      -3.391  10.062  17.376  0.00  0.00    +0.000 OA
ATOM     22  C   UNL     1      -3.154   9.825  15.998  0.00  0.00    +0.000 C 
ENDBRANCH  11  21
BRANCH  12  23
ATOM     23  O   UNL     1      -4.757  11.497  19.491  0.00  0.00    +0.000 OA
ATOM     24  H   UNL     1      -5.056  10.807  18.878  0.00  0.00    +0.000 HD
ENDBRANCH  12  23
BRANCH  14  25
ATOM     25  C   UNL     1       0.238  11.600  21.689  0.00  0.00    +0.000 C 
BRANCH  25  26
ATOM     26  C   UNL     1      -0.440  10.404  21.054  0.00  0.00    +0.000 C 
BRANCH  26  27
ATOM     27  C   UNL     1       0.537   9.466  20.355  0.00  0.00    +0.000 A 
ATOM     28  C   UNL     1       1.059   8.283  20.913  0.00  0.00    +0.000 A 
ATOM     29  C   UNL     1       1.945   7.467  20.236  0.00  0.00    +0.000 A 
ATOM     30  C   UNL     1       2.320   7.796  18.930  0.00  0.00    +0.000 A 
ATOM     31  C   UNL     1       1.815   8.945  18.337  0.00  0.00    +0.000 A 
ATOM     32  C   UNL     1       0.924   9.766  19.047  0.00  0.00    +0.000 A 
ENDBRANCH  26  27
ENDBRANCH  25  26
ENDBRANCH  14  25
TORSDOF 6
ENDMDL
MODEL 2
REMARK VINA RESULT:      -6.2      2.973      5.859
REMARK  Name = 
REMARK  9 active torsions:
REMARK  status: ('A' for Active; 'I' for Inactive)
REMARK    1  A    between atoms: C_1  and  O_2
REMARK    2  A    between atoms: O_2  and  C_3
REMARK    3  A    between atoms: C_13  and  O_14
REMARK    4  A    between atoms: O_14  and  C_15
REMARK    5  A    between atoms: C_16  and  O_17
REMARK    6  A    between atoms: C_19  and  C_20
REMARK    7  A    between atoms: C_20  and  C_21
REMARK    8  A    between atoms: C_21  and  C_22
REMARK    9  A    between atoms: N_28  and  C_29
REMARK                            x       y       z     vdW  Elec       q    Type
REMARK                         _______ _______ _______ _____ _____    ______ ____
ROOT
ATOM      1  C   UNL     1       3.327  16.017  20.495  0.00  0.00    +0.000 A 
ATOM      2  C   UNL     1       3.163  16.576  19.227  0.00  0.00    +0.000 A 
ATOM      3  C   UNL     1       2.285  15.988  18.345  0.00  0.00    +0.000 A 
ATOM      4  C   UNL     1       1.425  15.009  18.863  0.00  0.00    +0.000 A 
ATOM      5  C   UNL     1       1.868  14.125  19.900  0.00  0.00    +0.000 A 
ATOM      6  C   UNL     1       2.800  14.725  20.769  0.00  0.00    +0.000 A 
ATOM      7  C   UNL     1       1.351  12.663  20.048  0.00  0.00    +0.000 A 
ATOM      8  C   UNL     1       0.465  12.178  21.089  0.00  0.00    +0.000 A 
ATOM      9  C   UNL     1       0.058  10.825  21.154  0.00  0.00    +0.000 A 
ATOM     10  C   UNL     1       0.320   9.961  20.107  0.00  0.00    +0.000 A 
ATOM     11  C   UNL     1       1.028  10.418  19.002  0.00  0.00    +0.000 A 
ATOM     12  C   UNL     1       1.585  11.723  19.000  0.00  0.00    +0.000 A 
ATOM     13  C   UNL     1      -0.345  13.093  22.024  0.00  0.00    +0.000 C 
ATOM     14  C   UNL     1      -1.023  14.182  21.173  0.00  0.00    +0.000 C 
ATOM     15  N   UNL     1      -0.882  15.606  21.509  0.00  0.00    +0.000 NA
ATOM     16  C   UNL     1      -0.114  15.880  22.726  0.00  0.00    +0.000 C 
ATOM     17  C   UNL     1      -0.324  16.366  20.338  0.00  0.00    +0.000 C 
ATOM     18  C   UNL     1      -0.005  15.643  18.939  0.00  0.00    +0.000 C 
ENDROOT
BRANCH   1  20
ATOM     19  C   UNL     1       4.606  15.862  22.495  0.00  0.00    +0.000 C 
ATOM     20  O   UNL     1       3.942  16.687  21.526  0.00  0.00    +0.000 OA
ENDBRANCH   1  20
BRANCH  11  21
ATOM     21  O   UNL     1       0.892   9.606  17.904  0.00  0.00    +0.000 OA
ATOM     22  C   UNL     1       1.852   8.579  17.712  0.00  0.00    +0.000 C 
ENDBRANCH  11  21
BRANCH  12  23
ATOM     23  O   UNL     1       2.290  12.144  17.901  0.00  0.00    +0.000 OA
ATOM     24  H   UNL     1       3.182  12.353  18.217  0.00  0.00    +0.000 HD
ENDBRANCH  12  23
BRANCH  14  25
ATOM     25  C   UNL     1      -2.285  13.867  20.331  0.00  0.00    +0.000 C 
BRANCH  25  26
ATOM     26  C   UNL     1      -2.904  12.485  20.355  0.00  0.00    +0.000 C 
BRANCH  26  27
ATOM     27  C   UNL     1      -3.190  11.937  18.962  0.00  0.00    +0.000 A 
ATOM     28  C   UNL     1      -2.209  11.620  18.002  0.00  0.00    +0.000 A 
ATOM     29  C   UNL     1      -2.523  11.126  16.751  0.00  0.00    +0.000 A 
ATOM     30  C   UNL     1      -3.861  10.890  16.421  0.00  0.00    +0.000 A 
ATOM     31  C   UNL     1      -4.857  11.173  17.344  0.00  0.00    +0.000 A 
ATOM     32  C   UNL     1      -4.518  11.685  18.608  0.00  0.00    +0.000 A 
ENDBRANCH  26  27
ENDBRANCH  25  26
ENDBRANCH  14  25
TORSDOF 6
ENDMDL
MODEL 3
REMARK VINA RESULT:      -6.2      3.049      5.767
REMARK  Name = 
REMARK  9 active torsions:
REMARK  status: ('A' for Active; 'I' for Inactive)
REMARK    1  A    between atoms: C_1  and  O_2
REMARK    2  A    between atoms: O_2  and  C_3
REMARK    3  A    between atoms: C_13  and  O_14
REMARK    4  A    between atoms: O_14  and  C_15
REMARK    5  A    between atoms: C_16  and  O_17
REMARK    6  A    between atoms: C_19  and  C_20
REMARK    7  A    between atoms: C_20  and  C_21
REMARK    8  A    between atoms: C_21  and  C_22
REMARK    9  A    between atoms: N_28  and  C_29
REMARK                            x       y       z     vdW  Elec       q    Type
REMARK                         _______ _______ _______ _____ _____    ______ ____
ROOT
ATOM      1  C   UNL     1       2.828  16.178  20.491  0.00  0.00    +0.000 A 
ATOM      2  C   UNL     1       2.630  16.765  19.241  0.00  0.00    +0.000 A 
ATOM      3  C   UNL     1       1.932  16.073  18.278  0.00  0.00    +0.000 A 
ATOM      4  C   UNL     1       1.249  14.921  18.695  0.00  0.00    +0.000 A 
ATOM      5  C   UNL     1       1.795  14.080  19.717  0.00  0.00    +0.000 A 
ATOM      6  C   UNL     1       2.544  14.795  20.672  0.00  0.00    +0.000 A 
ATOM      7  C   UNL     1       1.562  12.540  19.766  0.00  0.00    +0.000 A 
ATOM      8  C   UNL     1       0.729  11.839  20.724  0.00  0.00    +0.000 A 
ATOM      9  C   UNL     1       0.587  10.431  20.701  0.00  0.00    +0.000 A 
ATOM     10  C   UNL     1       1.068   9.693  19.636  0.00  0.00    +0.000 A 
ATOM     11  C   UNL     1       1.736  10.337  18.602  0.00  0.00    +0.000 A 
ATOM     12  C   UNL     1       2.031  11.722  18.695  0.00  0.00    +0.000 A 
ATOM     13  C   UNL     1      -0.293  12.530  21.644  0.00  0.00    +0.000 C 
ATOM     14  C   UNL     1      -1.120  13.517  20.799  0.00  0.00    +0.000 C 
ATOM     15  N   UNL     1      -1.274  14.920  21.207  0.00  0.00    +0.000 NA
ATOM     16  C   UNL     1      -0.642  15.266  22.482  0.00  0.00    +0.000 C 
ATOM     17  C   UNL     1      -0.808  15.837  20.110  0.00  0.00    +0.000 C 
ATOM     18  C   UNL     1      -0.278  15.267  18.705  0.00  0.00    +0.000 C 
ENDROOT
BRANCH   1  20
ATOM     19  C   UNL     1       4.046  16.170  22.534  0.00  0.00    +0.000 C 
ATOM     20  O   UNL     1       3.243  16.893  21.589  0.00  0.00    +0.000 OA
ENDBRANCH   1  20
BRANCH  11  21
ATOM     21  O   UNL     1       1.821   9.577  17.463  0.00  0.00    +0.000 OA
ATOM     22  C   UNL     1       2.399   8.287  17.564  0.00  0.00    +0.000 C 
ENDBRANCH  11  21
BRANCH  12  23
ATOM     23  O   UNL     1       2.702  12.331  17.664  0.00  0.00    +0.000 OA
ATOM     24  H   UNL     1       3.038  11.615  17.103  0.00  0.00    +0.000 HD
ENDBRANCH  12  23
BRANCH  14  25
ATOM     25  C   UNL     1      -2.247  13.016  19.863  0.00  0.00    +0.000 C 
BRANCH  25  26
ATOM     26  C   UNL     1      -2.520  11.535  19.704  0.00  0.00    +0.000 C 
BRANCH  26  27
ATOM     27  C   UNL     1      -2.909  11.150  18.282  0.00  0.00    +0.000 A 
ATOM     28  C   UNL     1      -3.966  11.727  17.550  0.00  0.00    +0.000 A 
ATOM     29  C   UNL     1      -4.278  11.340  16.261  0.00  0.00    +0.000 A 
ATOM     30  C   UNL     1      -3.501  10.364  15.630  0.00  0.00    +0.000 A 
ATOM     31  C   UNL     1      -2.441   9.783  16.310  0.00  0.00    +0.000 A 
ATOM     32  C   UNL     1      -2.146  10.183  17.624  0.00  0.00    +0.000 A 
ENDBRANCH  26  27
ENDBRANCH  25  26
ENDBRANCH  14  25
TORSDOF 6
ENDMDL
MODEL 4
REMARK VINA RESULT:      -6.2      2.528      3.809
REMARK  Name = 
REMARK  9 active torsions:
REMARK  status: ('A' for Active; 'I' for Inactive)
REMARK    1  A    between atoms: C_1  and  O_2
REMARK    2  A    between atoms: O_2  and  C_3
REMARK    3  A    between atoms: C_13  and  O_14
REMARK    4  A    between atoms: O_14  and  C_15
REMARK    5  A    between atoms: C_16  and  O_17
REMARK    6  A    between atoms: C_19  and  C_20
REMARK    7  A    between atoms: C_20  and  C_21
REMARK    8  A    between atoms: C_21  and  C_22
REMARK    9  A    between atoms: N_28  and  C_29
REMARK                            x       y       z     vdW  Elec       q    Type
REMARK                         _______ _______ _______ _____ _____    ______ ____
ROOT
ATOM      1  C   UNL     1       0.075  15.215  19.222  0.00  0.00    +0.000 A 
ATOM      2  C   UNL     1      -0.255  15.488  20.550  0.00  0.00    +0.000 A 
ATOM      3  C   UNL     1      -0.986  14.565  21.262  0.00  0.00    +0.000 A 
ATOM      4  C   UNL     1      -1.142  13.296  20.683  0.00  0.00    +0.000 A 
ATOM      5  C   UNL     1      -1.273  13.154  19.264  0.00  0.00    +0.000 A 
ATOM      6  C   UNL     1      -0.556  14.132  18.548  0.00  0.00    +0.000 A 
ATOM      7  C   UNL     1      -2.109  12.021  18.597  0.00  0.00    +0.000 A 
ATOM      8  C   UNL     1      -1.571  10.883  17.875  0.00  0.00    +0.000 A 
ATOM      9  C   UNL     1      -2.410   9.908  17.287  0.00  0.00    +0.000 A 
ATOM     10  C   UNL     1      -3.765   9.889  17.559  0.00  0.00    +0.000 A 
ATOM     11  C   UNL     1      -4.313  10.866  18.381  0.00  0.00    +0.000 A 
ATOM     12  C   UNL     1      -3.513  11.944  18.840  0.00  0.00    +0.000 A 
ATOM     13  C   UNL     1      -0.094  10.455  17.922  0.00  0.00    +0.000 C 
ATOM     14  C   UNL     1       0.368  10.457  19.391  0.00  0.00    +0.000 C 
ATOM     15  N   UNL     1       1.580  11.176  19.804  0.00  0.00    +0.000 NA
ATOM     16  C   UNL     1       2.320  11.818  18.715  0.00  0.00    +0.000 C 
ATOM     17  C   UNL     1       1.256  12.165  20.890  0.00  0.00    +0.000 C 
ATOM     18  C   UNL     1      -0.230  12.307  21.484  0.00  0.00    +0.000 C 
ENDROOT
BRANCH   1  20
ATOM     19  C   UNL     1       0.738  17.310  18.310  0.00  0.00    +0.000 C 
ATOM     20  O   UNL     1       1.033  15.923  18.535  0.00  0.00    +0.000 OA
ENDBRANCH   1  20
BRANCH  11  21
ATOM     21  O   UNL     1      -5.550  10.527  18.867  0.00  0.00    +0.000 OA
ATOM     22  C   UNL     1      -6.692  11.039  18.200  0.00  0.00    +0.000 C 
ENDBRANCH  11  21
BRANCH  12  23
ATOM     23  O   UNL     1      -4.082  12.901  19.642  0.00  0.00    +0.000 OA
ATOM     24  H   UNL     1      -3.634  12.835  20.499  0.00  0.00    +0.000 HD
ENDBRANCH  12  23
BRANCH  14  25
ATOM     25  C   UNL     1      -0.032   9.311  20.354  0.00  0.00    +0.000 C 
BRANCH  25  26
ATOM     26  C   UNL     1       1.023   8.539  21.118  0.00  0.00    +0.000 C 
BRANCH  26  27
ATOM     27  C   UNL     1       1.609   7.382  20.319  0.00  0.00    +0.000 A 
ATOM     28  C   UNL     1       1.557   6.027  20.703  0.00  0.00    +0.000 A 
ATOM     29  C   UNL     1       2.106   5.015  19.941  0.00  0.00    +0.000 A 
ATOM     30  C   UNL     1       2.710   5.325  18.719  0.00  0.00    +0.000 A 
ATOM     31  C   UNL     1       2.768   6.645  18.296  0.00  0.00    +0.000 A 
ATOM     32  C   UNL     1       2.212   7.661  19.091  0.00  0.00    +0.000 A 
ENDBRANCH  26  27
ENDBRANCH  25  26
ENDBRANCH  14  25
TORSDOF 6
ENDMDL
MODEL 5
REMARK VINA RESULT:      -6.1      1.725      2.258
REMARK  Name = 
REMARK  9 active torsions:
REMARK  status: ('A' for Active; 'I' for Inactive)
REMARK    1  A    between atoms: C_1  and  O_2
REMARK    2  A    between atoms: O_2  and  C_3
REMARK    3  A    between atoms: C_13  and  O_14
REMARK    4  A    between atoms: O_14  and  C_15
REMARK    5  A    between atoms: C_16  and  O_17
REMARK    6  A    between atoms: C_19  and  C_20
REMARK    7  A    between atoms: C_20  and  C_21
REMARK    8  A    between atoms: C_21  and  C_22
REMARK    9  A    between atoms: N_28  and  C_29
REMARK                            x       y       z     vdW  Elec       q    Type
REMARK                         _______ _______ _______ _____ _____    ______ ____
ROOT
ATOM      1  C   UNL     1      -3.034  15.512  22.749  0.00  0.00    +0.000 A 
ATOM      2  C   UNL     1      -3.258  14.922  23.993  0.00  0.00    +0.000 A 
ATOM      3  C   UNL     1      -3.587  13.587  24.052  0.00  0.00    +0.000 A 
ATOM      4  C   UNL     1      -3.432  12.843  22.873  0.00  0.00    +0.000 A 
ATOM      5  C   UNL     1      -3.695  13.439  21.596  0.00  0.00    +0.000 A 
ATOM      6  C   UNL     1      -3.396  14.814  21.563  0.00  0.00    +0.000 A 
ATOM      7  C   UNL     1      -4.235  12.632  20.378  0.00  0.00    +0.000 A 
ATOM      8  C   UNL     1      -3.481  12.286  19.188  0.00  0.00    +0.000 A 
ATOM      9  C   UNL     1      -4.061  11.561  18.121  0.00  0.00    +0.000 A 
ATOM     10  C   UNL     1      -5.304  10.974  18.263  0.00  0.00    +0.000 A 
ATOM     11  C   UNL     1      -6.007  11.136  19.450  0.00  0.00    +0.000 A 
ATOM     12  C   UNL     1      -5.510  11.998  20.462  0.00  0.00    +0.000 A 
ATOM     13  C   UNL     1      -1.950  12.393  19.079  0.00  0.00    +0.000 C 
ATOM     14  C   UNL     1      -1.326  11.766  20.340  0.00  0.00    +0.000 C 
ATOM     15  N   UNL     1      -0.339  12.500  21.143  0.00  0.00    +0.000 NA
ATOM     16  C   UNL     1       0.032  13.815  20.616  0.00  0.00    +0.000 C 
ATOM     17  C   UNL     1      -0.801  12.604  22.570  0.00  0.00    +0.000 C 
ATOM     18  C   UNL     1      -2.174  11.931  23.063  0.00  0.00    +0.000 C 
ENDROOT
BRANCH   1  20
ATOM     19  C   UNL     1      -2.726  17.702  23.627  0.00  0.00    +0.000 C 
ATOM     20  O   UNL     1      -2.424  16.737  22.608  0.00  0.00    +0.000 OA
ENDBRANCH   1  20
BRANCH  11  21
ATOM     21  O   UNL     1      -7.016  10.220  19.606  0.00  0.00    +0.000 OA
ATOM     22  C   UNL     1      -6.677   8.843  19.573  0.00  0.00    +0.000 C 
ENDBRANCH  11  21
BRANCH  12  23
ATOM     23  O   UNL     1      -6.231  12.148  21.621  0.00  0.00    +0.000 OA
ATOM     24  H   UNL     1      -6.739  12.968  21.516  0.00  0.00    +0.000 HD
ENDBRANCH  12  23
BRANCH  14  25
ATOM     25  C   UNL     1      -1.243  10.228  20.509  0.00  0.00    +0.000 C 
BRANCH  25  26
ATOM     26  C   UNL     1      -0.014   9.582  21.111  0.00  0.00    +0.000 C 
BRANCH  26  27
ATOM     27  C   UNL     1       0.920   8.986  20.065  0.00  0.00    +0.000 A 
ATOM     28  C   UNL     1       1.669   7.804  20.230  0.00  0.00    +0.000 A 
ATOM     29  C   UNL     1       2.502   7.307  19.247  0.00  0.00    +0.000 A 
ATOM     30  C   UNL     1       2.591   7.971  18.021  0.00  0.00    +0.000 A 
ATOM     31  C   UNL     1       1.857   9.130  17.811  0.00  0.00    +0.000 A 
ATOM     32  C   UNL     1       1.022   9.624  18.827  0.00  0.00    +0.000 A 
ENDBRANCH  26  27
ENDBRANCH  25  26
ENDBRANCH  14  25
TORSDOF 6
ENDMDL
MODEL 6
REMARK VINA RESULT:      -6.1      2.980      5.780
REMARK  Name = 
REMARK  9 active torsions:
REMARK  status: ('A' for Active; 'I' for Inactive)
REMARK    1  A    between atoms: C_1  and  O_2
REMARK    2  A    between atoms: O_2  and  C_3
REMARK    3  A    between atoms: C_13  and  O_14
REMARK    4  A    between atoms: O_14  and  C_15
REMARK    5  A    between atoms: C_16  and  O_17
REMARK    6  A    between atoms: C_19  and  C_20
REMARK    7  A    between atoms: C_20  and  C_21
REMARK    8  A    between atoms: C_21  and  C_22
REMARK    9  A    between atoms: N_28  and  C_29
REMARK                            x       y       z     vdW  Elec       q    Type
REMARK                         _______ _______ _______ _____ _____    ______ ____
ROOT
ATOM      1  C   UNL     1       3.117  14.800  19.766  0.00  0.00    +0.000 A 
ATOM      2  C   UNL     1       3.089  14.452  18.415  0.00  0.00    +0.000 A 
ATOM      3  C   UNL     1       2.144  13.555  17.974  0.00  0.00    +0.000 A 
ATOM      4  C   UNL     1       1.109  13.233  18.866  0.00  0.00    +0.000 A 
ATOM      5  C   UNL     1       1.361  13.150  20.274  0.00  0.00    +0.000 A 
ATOM      6  C   UNL     1       2.361  14.043  20.704  0.00  0.00    +0.000 A 
ATOM      7  C   UNL     1       0.588  12.183  21.219  0.00  0.00    +0.000 A 
ATOM      8  C   UNL     1      -0.397  12.573  22.210  0.00  0.00    +0.000 A 
ATOM      9  C   UNL     1      -1.040  11.623  23.038  0.00  0.00    +0.000 A 
ATOM     10  C   UNL     1      -0.909  10.270  22.789  0.00  0.00    +0.000 A 
ATOM     11  C   UNL     1      -0.102   9.840  21.743  0.00  0.00    +0.000 A 
ATOM     12  C   UNL     1       0.678  10.774  21.013  0.00  0.00    +0.000 A 
ATOM     13  C   UNL     1      -1.056  13.962  22.268  0.00  0.00    +0.000 C 
ATOM     14  C   UNL     1      -1.507  14.348  20.847  0.00  0.00    +0.000 C 
ATOM     15  N   UNL     1      -1.123  15.635  20.252  0.00  0.00    +0.000 NA
ATOM     16  C   UNL     1      -0.351  16.516  21.131  0.00  0.00    +0.000 C 
ATOM     17  C   UNL     1      -0.408  15.415  18.948  0.00  0.00    +0.000 C 
ATOM     18  C   UNL     1      -0.187  13.943  18.347  0.00  0.00    +0.000 C 
ENDROOT
BRANCH   1  20
ATOM     19  C   UNL     1       3.257  17.170  19.915  0.00  0.00    +0.000 C 
ATOM     20  O   UNL     1       3.815  15.887  20.238  0.00  0.00    +0.000 OA
ENDBRANCH   1  20
BRANCH  11  21
ATOM     21  O   UNL     1      -0.351   8.543  21.371  0.00  0.00    +0.000 OA
ATOM     22  C   UNL     1       0.709   7.606  21.469  0.00  0.00    +0.000 C 
ENDBRANCH  11  21
BRANCH  12  23
ATOM     23  O   UNL     1       1.475  10.321  19.992  0.00  0.00    +0.000 OA
ATOM     24  H   UNL     1       1.274   9.378  19.892  0.00  0.00    +0.000 HD
ENDBRANCH  12  23
BRANCH  14  25
ATOM     25  C   UNL     1      -2.781  13.730  20.220  0.00  0.00    +0.000 C 
BRANCH  25  26
ATOM     26  C   UNL     1      -3.008  12.233  20.244  0.00  0.00    +0.000 C 
BRANCH  26  27
ATOM     27  C   UNL     1      -2.909  11.593  18.865  0.00  0.00    +0.000 A 
ATOM     28  C   UNL     1      -3.860  11.742  17.835  0.00  0.00    +0.000 A 
ATOM     29  C   UNL     1      -3.722  11.138  16.601  0.00  0.00    +0.000 A 
ATOM     30  C   UNL     1      -2.582  10.375  16.333  0.00  0.00    +0.000 A 
ATOM     31  C   UNL     1      -1.614  10.217  17.314  0.00  0.00    +0.000 A 
ATOM     32  C   UNL     1      -1.778  10.831  18.567  0.00  0.00    +0.000 A 
ENDBRANCH  26  27
ENDBRANCH  25  26
ENDBRANCH  14  25
TORSDOF 6
ENDMDL
MODEL 7
REMARK VINA RESULT:      -6.0      2.941      5.919
REMARK  Name = 
REMARK  9 active torsions:
REMARK  status: ('A' for Active; 'I' for Inactive)
REMARK    1  A    between atoms: C_1  and  O_2
REMARK    2  A    between atoms: O_2  and  C_3
REMARK    3  A    between atoms: C_13  and  O_14
REMARK    4  A    between atoms: O_14  and  C_15
REMARK    5  A    between atoms: C_16  and  O_17
REMARK    6  A    between atoms: C_19  and  C_20
REMARK    7  A    between atoms: C_20  and  C_21
REMARK    8  A    between atoms: C_21  and  C_22
REMARK    9  A    between atoms: N_28  and  C_29
REMARK                            x       y       z     vdW  Elec       q    Type
REMARK                         _______ _______ _______ _____ _____    ______ ____
ROOT
ATOM      1  C   UNL     1       2.018  16.960  18.782  0.00  0.00    +0.000 A 
ATOM      2  C   UNL     1       1.121  17.610  17.933  0.00  0.00    +0.000 A 
ATOM      3  C   UNL     1      -0.166  17.134  17.827  0.00  0.00    +0.000 A 
ATOM      4  C   UNL     1      -0.567  16.173  18.768  0.00  0.00    +0.000 A 
ATOM      5  C   UNL     1       0.363  15.198  19.254  0.00  0.00    +0.000 A 
ATOM      6  C   UNL     1       1.683  15.684  19.316  0.00  0.00    +0.000 A 
ATOM      7  C   UNL     1      -0.060  13.762  19.684  0.00  0.00    +0.000 A 
ATOM      8  C   UNL     1      -0.099  13.260  21.045  0.00  0.00    +0.000 A 
ATOM      9  C   UNL     1      -0.483  11.931  21.341  0.00  0.00    +0.000 A 
ATOM     10  C   UNL     1      -1.038  11.126  20.364  0.00  0.00    +0.000 A 
ATOM     11  C   UNL     1      -1.176  11.613  19.071  0.00  0.00    +0.000 A 
ATOM     12  C   UNL     1      -0.643  12.881  18.724  0.00  0.00    +0.000 A 
ATOM     13  C   UNL     1      -0.027  14.156  22.294  0.00  0.00    +0.000 C 
ATOM     14  C   UNL     1      -0.997  15.337  22.103  0.00  0.00    +0.000 C 
ATOM     15  N   UNL     1      -0.549  16.724  22.285  0.00  0.00    +0.000 NA
ATOM     16  C   UNL     1       0.844  16.872  22.713  0.00  0.00    +0.000 C 
ATOM     17  C   UNL     1      -0.819  17.527  21.043  0.00  0.00    +0.000 C 
ATOM     18  C   UNL     1      -1.545  16.882  19.764  0.00  0.00    +0.000 C 
ENDROOT
BRANCH   1  20
ATOM     19  C   UNL     1       4.134  16.636  19.820  0.00  0.00    +0.000 C 
ATOM     20  O   UNL     1       3.209  17.523  19.173  0.00  0.00    +0.000 OA
ENDBRANCH   1  20
BRANCH  11  21
ATOM     21  O   UNL     1      -2.060  10.885  18.314  0.00  0.00    +0.000 OA
ATOM     22  C   UNL     1      -1.534   9.934  17.405  0.00  0.00    +0.000 C 
ENDBRANCH  11  21
BRANCH  12  23
ATOM     23  O   UNL     1      -0.784  13.334  17.436  0.00  0.00    +0.000 OA
ATOM     24  H   UNL     1      -0.077  12.913  16.924  0.00  0.00    +0.000 HD
ENDBRANCH  12  23
BRANCH  14  25
ATOM     25  C   UNL     1      -2.525  15.151  22.280  0.00  0.00    +0.000 C 
BRANCH  25  26
ATOM     26  C   UNL     1      -3.085  13.872  22.868  0.00  0.00    +0.000 C 
BRANCH  26  27
ATOM     27  C   UNL     1      -4.229  13.291  22.047  0.00  0.00    +0.000 A 
ATOM     28  C   UNL     1      -5.505  12.971  22.552  0.00  0.00    +0.000 A 
ATOM     29  C   UNL     1      -6.508  12.444  21.763  0.00  0.00    +0.000 A 
ATOM     30  C   UNL     1      -6.278  12.248  20.398  0.00  0.00    +0.000 A 
ATOM     31  C   UNL     1      -5.041  12.566  19.857  0.00  0.00    +0.000 A 
ATOM     32  C   UNL     1      -4.030  13.092  20.679  0.00  0.00    +0.000 A 
ENDBRANCH  26  27
ENDBRANCH  25  26
ENDBRANCH  14  25
TORSDOF 6
ENDMDL
MODEL 8
REMARK VINA RESULT:      -6.0      3.611      6.223
REMARK  Name = 
REMARK  9 active torsions:
REMARK  status: ('A' for Active; 'I' for Inactive)
REMARK    1  A    between atoms: C_1  and  O_2
REMARK    2  A    between atoms: O_2  and  C_3
REMARK    3  A    between atoms: C_13  and  O_14
REMARK    4  A    between atoms: O_14  and  C_15
REMARK    5  A    between atoms: C_16  and  O_17
REMARK    6  A    between atoms: C_19  and  C_20
REMARK    7  A    between atoms: C_20  and  C_21
REMARK    8  A    between atoms: C_21  and  C_22
REMARK    9  A    between atoms: N_28  and  C_29
REMARK                            x       y       z     vdW  Elec       q    Type
REMARK                         _______ _______ _______ _____ _____    ______ ____
ROOT
ATOM      1  C   UNL     1      -2.078  11.216  17.972  0.00  0.00    +0.000 A 
ATOM      2  C   UNL     1      -1.542  10.067  18.555  0.00  0.00    +0.000 A 
ATOM      3  C   UNL     1      -0.362  10.160  19.257  0.00  0.00    +0.000 A 
ATOM      4  C   UNL     1       0.101  11.451  19.552  0.00  0.00    +0.000 A 
ATOM      5  C   UNL     1      -0.097  12.525  18.625  0.00  0.00    +0.000 A 
ATOM      6  C   UNL     1      -1.286  12.395  17.883  0.00  0.00    +0.000 A 
ATOM      7  C   UNL     1       0.898  13.715  18.479  0.00  0.00    +0.000 A 
ATOM      8  C   UNL     1       0.657  15.080  18.909  0.00  0.00    +0.000 A 
ATOM      9  C   UNL     1       1.616  16.102  18.722  0.00  0.00    +0.000 A 
ATOM     10  C   UNL     1       2.901  15.795  18.313  0.00  0.00    +0.000 A 
ATOM     11  C   UNL     1       3.236  14.475  18.042  0.00  0.00    +0.000 A 
ATOM     12  C   UNL     1       2.240  13.465  18.065  0.00  0.00    +0.000 A 
ATOM     13  C   UNL     1      -0.487  15.495  19.851  0.00  0.00    +0.000 C 
ATOM     14  C   UNL     1      -0.519  14.519  21.041  0.00  0.00    +0.000 C 
ATOM     15  N   UNL     1      -1.761  13.836  21.429  0.00  0.00    +0.000 NA
ATOM     16  C   UNL     1      -2.941  14.207  20.645  0.00  0.00    +0.000 C 
ATOM     17  C   UNL     1      -1.560  12.346  21.427  0.00  0.00    +0.000 C 
ATOM     18  C   UNL     1      -0.136  11.688  21.082  0.00  0.00    +0.000 C 
ENDROOT
BRANCH   1  20
ATOM     19  C   UNL     1      -4.353  11.692  18.482  0.00  0.00    +0.000 C 
ATOM     20  O   UNL     1      -3.374  11.281  17.516  0.00  0.00    +0.000 OA
ENDBRANCH   1  20
BRANCH  11  21
ATOM     21  O   UNL     1       4.592  14.259  18.021  0.00  0.00    +0.000 OA
ATOM     22  C   UNL     1       5.445  15.389  17.945  0.00  0.00    +0.000 C 
ENDBRANCH  11  21
BRANCH  12  23
ATOM     23  O   UNL     1       2.597  12.170  17.783  0.00  0.00    +0.000 OA
ATOM     24  H   UNL     1       3.505  12.210  17.443  0.00  0.00    +0.000 HD
ENDBRANCH  12  23
BRANCH  14  25
ATOM     25  C   UNL     1       0.514  14.627  22.190  0.00  0.00    +0.000 C 
BRANCH  25  26
ATOM     26  C   UNL     1       1.275  15.915  22.427  0.00  0.00    +0.000 C 
BRANCH  26  27
ATOM     27  C   UNL     1       2.766  15.788  22.139  0.00  0.00    +0.000 A 
ATOM     28  C   UNL     1       3.423  14.589  21.796  0.00  0.00    +0.000 A 
ATOM     29  C   UNL     1       4.780  14.528  21.546  0.00  0.00    +0.000 A 
ATOM     30  C   UNL     1       5.540  15.700  21.593  0.00  0.00    +0.000 A 
ATOM     31  C   UNL     1       4.929  16.905  21.910  0.00  0.00    +0.000 A 
ATOM     32  C   UNL     1       3.549  16.943  22.172  0.00  0.00    +0.000 A 
ENDBRANCH  26  27
ENDBRANCH  25  26
ENDBRANCH  14  25
TORSDOF 6
ENDMDL
MODEL 9
REMARK VINA RESULT:      -6.0      8.868     11.849
REMARK  Name = 
REMARK  9 active torsions:
REMARK  status: ('A' for Active; 'I' for Inactive)
REMARK    1  A    between atoms: C_1  and  O_2
REMARK    2  A    between atoms: O_2  and  C_3
REMARK    3  A    between atoms: C_13  and  O_14
REMARK    4  A    between atoms: O_14  and  C_15
REMARK    5  A    between atoms: C_16  and  O_17
REMARK    6  A    between atoms: C_19  and  C_20
REMARK    7  A    between atoms: C_20  and  C_21
REMARK    8  A    between atoms: C_21  and  C_22
REMARK    9  A    between atoms: N_28  and  C_29
REMARK                            x       y       z     vdW  Elec       q    Type
REMARK                         _______ _______ _______ _____ _____    ______ ____
ROOT
ATOM      1  C   UNL     1      11.372  14.174  18.410  0.00  0.00    +0.000 A 
ATOM      2  C   UNL     1      10.867  13.177  17.575  0.00  0.00    +0.000 A 
ATOM      3  C   UNL     1       9.712  12.522  17.937  0.00  0.00    +0.000 A 
ATOM      4  C   UNL     1       8.978  13.070  18.999  0.00  0.00    +0.000 A 
ATOM      5  C   UNL     1       9.648  13.694  20.101  0.00  0.00    +0.000 A 
ATOM      6  C   UNL     1      10.851  14.322  19.725  0.00  0.00    +0.000 A 
ATOM      7  C   UNL     1       9.082  13.687  21.553  0.00  0.00    +0.000 A 
ATOM      8  C   UNL     1       8.529  14.831  22.254  0.00  0.00    +0.000 A 
ATOM      9  C   UNL     1       8.051  14.734  23.581  0.00  0.00    +0.000 A 
ATOM     10  C   UNL     1       7.900  13.500  24.186  0.00  0.00    +0.000 A 
ATOM     11  C   UNL     1       8.263  12.350  23.497  0.00  0.00    +0.000 A 
ATOM     12  C   UNL     1       8.898  12.446  22.231  0.00  0.00    +0.000 A 
ATOM     13  C   UNL     1       8.131  16.149  21.567  0.00  0.00    +0.000 C 
ATOM     14  C   UNL     1       7.314  15.815  20.306  0.00  0.00    +0.000 C 
ATOM     15  N   UNL     1       7.672  16.383  18.998  0.00  0.00    +0.000 NA
ATOM     16  C   UNL     1       8.802  17.314  19.017  0.00  0.00    +0.000 C 
ATOM     17  C   UNL     1       7.897  15.284  17.997  0.00  0.00    +0.000 C 
ATOM     18  C   UNL     1       7.702  13.737  18.384  0.00  0.00    +0.000 C 
ENDROOT
BRANCH   1  20
ATOM     19  C   UNL     1      11.890  16.075  17.076  0.00  0.00    +0.000 C 
ATOM     20  O   UNL     1      12.332  15.069  18.000  0.00  0.00    +0.000 OA
ENDBRANCH   1  20
BRANCH  11  21
ATOM     21  O   UNL     1       7.724  11.208  24.035  0.00  0.00    +0.000 OA
ATOM     22  C   UNL     1       6.706  11.348  25.012  0.00  0.00    +0.000 C 
ENDBRANCH  11  21
BRANCH  12  23
ATOM     23  O   UNL     1       9.257  11.293  21.577  0.00  0.00    +0.000 OA
ATOM     24  H   UNL     1       8.428  10.873  21.300  0.00  0.00    +0.000 HD
ENDBRANCH  12  23
BRANCH  14  25
ATOM     25  C   UNL     1       5.831  15.379  20.408  0.00  0.00    +0.000 C 
BRANCH  25  26
ATOM     26  C   UNL     1       4.736  16.207  19.767  0.00  0.00    +0.000 C 
BRANCH  26  27
ATOM     27  C   UNL     1       3.513  15.382  19.385  0.00  0.00    +0.000 A 
ATOM     28  C   UNL     1       2.195  15.650  19.806  0.00  0.00    +0.000 A 
ATOM     29  C   UNL     1       1.120  14.868  19.431  0.00  0.00    +0.000 A 
ATOM     30  C   UNL     1       1.325  13.785  18.570  0.00  0.00    +0.000 A 
ATOM     31  C   UNL     1       2.605  13.497  18.120  0.00  0.00    +0.000 A 
ATOM     32  C   UNL     1       3.687  14.299  18.521  0.00  0.00    +0.000 A 
ENDBRANCH  26  27
ENDBRANCH  25  26
ENDBRANCH  14  25
TORSDOF 6
ENDMDL
