MODEL 1
REMARK VINA RESULT:      -9.0      0.000      0.000
REMARK  Name = 
REMARK  5 active torsions:
REMARK  status: ('A' for Active; 'I' for Inactive)
REMARK    1  A    between atoms: C_1  and  O_2
REMARK    2  A    between atoms: O_2  and  C_3
REMARK    3  A    between atoms: C_6  and  C_7
REMARK    4  A    between atoms: N_10  and  C_11
REMARK    5  A    between atoms: C_19  and  C_20
REMARK                            x       y       z     vdW  Elec       q    Type
REMARK                         _______ _______ _______ _____ _____    ______ ____
ROOT
ATOM      1  C   UNL     1       3.365   6.678  18.033  0.00  0.00    +0.000 A 
ATOM      2  C   UNL     1       3.356   6.359  19.339  0.00  0.00    +0.000 A 
ATOM      3  C   UNL     1       2.136   6.743  20.046  0.00  0.00    +0.000 A 
ATOM      4  N   UNL     1       1.333   5.971  20.710  0.00  0.00    +0.000 NA
ATOM      5  C   UNL     1       1.764   8.115  19.775  0.00  0.00    +0.000 A 
ATOM      6  C   UNL     1       1.235   8.935  20.768  0.00  0.00    +0.000 A 
ATOM      7  C   UNL     1       0.798  10.215  20.411  0.00  0.00    +0.000 A 
ATOM      8  C   UNL     1       0.263  11.126  21.477  0.00  0.00    +0.000 C 
ATOM      9  C   UNL     1       0.862  10.595  19.060  0.00  0.00    +0.000 A 
ATOM     10  C   UNL     1       1.397   9.742  18.070  0.00  0.00    +0.000 A 
ATOM     11  C   UNL     1       1.886   8.495  18.433  0.00  0.00    +0.000 A 
ATOM     12  O   UNL     1       2.484   7.647  17.504  0.00  0.00    +0.000 OA
ENDROOT
BRANCH   1  16
ATOM     13  C   UNL     1       5.970   4.587  15.263  0.00  0.00    +0.000 A 
ATOM     14  C   UNL     1       5.878   5.967  15.267  0.00  0.00    +0.000 A 
ATOM     15  C   UNL     1       5.053   6.616  16.178  0.00  0.00    +0.000 A 
ATOM     16  C   UNL     1       4.256   5.919  17.109  0.00  0.00    +0.000 A 
ATOM     17  C   UNL     1       4.410   4.524  17.139  0.00  0.00    +0.000 A 
ATOM     18  C   UNL     1       5.260   3.862  16.219  0.00  0.00    +0.000 A 
BRANCH  13  20
ATOM     19  C   UNL     1       6.133   3.628  13.089  0.00  0.00    +0.000 C 
ATOM     20  O   UNL     1       6.762   4.114  14.259  0.00  0.00    +0.000 OA
ENDBRANCH  13  20
ENDBRANCH   1  16
BRANCH   4  21
ATOM     21  C   UNL     1       1.459   4.567  20.640  0.00  0.00    +0.000 A 
ATOM     22  C   UNL     1       1.027   3.922  19.487  0.00  0.00    +0.000 A 
ATOM     23  C   UNL     1       1.254   2.550  19.313  0.00  0.00    +0.000 A 
ATOM     24  C   UNL     1       1.900   1.813  20.304  0.00  0.00    +0.000 A 
ATOM     25  C   UNL     1       2.354   2.446  21.454  0.00  0.00    +0.000 A 
ATOM     26  C   UNL     1       2.164   3.820  21.596  0.00  0.00    +0.000 A 
ENDBRANCH   4  21
TORSDOF 3
ENDMDL
MODEL 2
REMARK VINA RESULT:      -8.9      1.699      6.538
REMARK  Name = 
REMARK  5 active torsions:
REMARK  status: ('A' for Active; 'I' for Inactive)
REMARK    1  A    between atoms: C_1  and  O_2
REMARK    2  A    between atoms: O_2  and  C_3
REMARK    3  A    between atoms: C_6  and  C_7
REMARK    4  A    between atoms: N_10  and  C_11
REMARK    5  A    between atoms: C_19  and  C_20
REMARK                            x       y       z     vdW  Elec       q    Type
REMARK                         _______ _______ _______ _____ _____    ______ ____
ROOT
ATOM      1  C   UNL     1       2.969   6.696  18.177  0.00  0.00    +0.000 A 
ATOM      2  C   UNL     1       2.397   5.530  17.830  0.00  0.00    +0.000 A 
ATOM      3  C   UNL     1       3.345   4.463  17.516  0.00  0.00    +0.000 A 
ATOM      4  N   UNL     1       3.430   3.295  18.072  0.00  0.00    +0.000 NA
ATOM      5  C   UNL     1       4.375   4.907  16.601  0.00  0.00    +0.000 A 
ATOM      6  C   UNL     1       4.860   4.077  15.595  0.00  0.00    +0.000 A 
ATOM      7  C   UNL     1       5.929   4.531  14.815  0.00  0.00    +0.000 A 
ATOM      8  C   UNL     1       6.437   3.666  13.700  0.00  0.00    +0.000 C 
ATOM      9  C   UNL     1       6.498   5.780  15.117  0.00  0.00    +0.000 A 
ATOM     10  C   UNL     1       5.991   6.601  16.148  0.00  0.00    +0.000 A 
ATOM     11  C   UNL     1       4.893   6.177  16.883  0.00  0.00    +0.000 A 
ATOM     12  O   UNL     1       4.316   6.981  17.863  0.00  0.00    +0.000 OA
ENDROOT
BRANCH   1  16
ATOM     13  C   UNL     1       0.682   9.421  20.664  0.00  0.00    +0.000 A 
ATOM     14  C   UNL     1       1.163   8.222  21.158  0.00  0.00    +0.000 A 
ATOM     15  C   UNL     1       1.911   7.375  20.349  0.00  0.00    +0.000 A 
ATOM     16  C   UNL     1       2.191   7.668  18.999  0.00  0.00    +0.000 A 
ATOM     17  C   UNL     1       1.755   8.918  18.530  0.00  0.00    +0.000 A 
ATOM     18  C   UNL     1       1.003   9.788  19.357  0.00  0.00    +0.000 A 
BRANCH  13  20
ATOM     19  C   UNL     1      -0.046   9.681  22.916  0.00  0.00    +0.000 C 
ATOM     20  O   UNL     1      -0.093  10.090  21.563  0.00  0.00    +0.000 OA
ENDBRANCH  13  20
ENDBRANCH   1  16
BRANCH   4  21
ATOM     21  C   UNL     1       2.701   2.999  19.245  0.00  0.00    +0.000 A 
ATOM     22  C   UNL     1       3.406   2.757  20.418  0.00  0.00    +0.000 A 
ATOM     23  C   UNL     1       2.729   2.594  21.633  0.00  0.00    +0.000 A 
ATOM     24  C   UNL     1       1.337   2.654  21.676  0.00  0.00    +0.000 A 
ATOM     25  C   UNL     1       0.618   2.913  20.516  0.00  0.00    +0.000 A 
ATOM     26  C   UNL     1       1.304   3.121  19.321  0.00  0.00    +0.000 A 
ENDBRANCH   4  21
TORSDOF 3
ENDMDL
MODEL 3
REMARK VINA RESULT:      -8.6      0.237      1.350
REMARK  Name = 
REMARK  5 active torsions:
REMARK  status: ('A' for Active; 'I' for Inactive)
REMARK    1  A    between atoms: C_1  and  O_2
REMARK    2  A    between atoms: O_2  and  C_3
REMARK    3  A    between atoms: C_6  and  C_7
REMARK    4  A    between atoms: N_10  and  C_11
REMARK    5  A    between atoms: C_19  and  C_20
REMARK                            x       y       z     vdW  Elec       q    Type
REMARK                         _______ _______ _______ _____ _____    ______ ____
ROOT
ATOM      1  C   UNL     1       3.296   6.898  18.003  0.00  0.00    +0.000 A 
ATOM      2  C   UNL     1       3.351   6.535  19.297  0.00  0.00    +0.000 A 
ATOM      3  C   UNL     1       2.146   6.848  20.063  0.00  0.00    +0.000 A 
ATOM      4  N   UNL     1       1.399   6.024  20.729  0.00  0.00    +0.000 NA
ATOM      5  C   UNL     1       1.712   8.213  19.854  0.00  0.00    +0.000 A 
ATOM      6  C   UNL     1       1.193   8.978  20.894  0.00  0.00    +0.000 A 
ATOM      7  C   UNL     1       0.693  10.251  20.599  0.00  0.00    +0.000 A 
ATOM      8  C   UNL     1       0.168  11.105  21.716  0.00  0.00    +0.000 C 
ATOM      9  C   UNL     1       0.691  10.678  19.261  0.00  0.00    +0.000 A 
ATOM     10  C   UNL     1       1.218   9.880  18.222  0.00  0.00    +0.000 A 
ATOM     11  C   UNL     1       1.767   8.642  18.522  0.00  0.00    +0.000 A 
ATOM     12  O   UNL     1       2.359   7.849  17.542  0.00  0.00    +0.000 OA
ENDROOT
BRANCH   1  16
ATOM     13  C   UNL     1       5.849   4.764  15.217  0.00  0.00    +0.000 A 
ATOM     14  C   UNL     1       5.053   4.093  16.127  0.00  0.00    +0.000 A 
ATOM     15  C   UNL     1       4.227   4.797  16.995  0.00  0.00    +0.000 A 
ATOM     16  C   UNL     1       4.178   6.206  17.020  0.00  0.00    +0.000 A 
ATOM     17  C   UNL     1       4.940   6.872  16.046  0.00  0.00    +0.000 A 
ATOM     18  C   UNL     1       5.772   6.155  15.152  0.00  0.00    +0.000 A 
BRANCH  13  20
ATOM     19  C   UNL     1       6.316   3.687  13.145  0.00  0.00    +0.000 C 
ATOM     20  O   UNL     1       6.650   3.928  14.498  0.00  0.00    +0.000 OA
ENDBRANCH  13  20
ENDBRANCH   1  16
BRANCH   4  21
ATOM     21  C   UNL     1       1.574   4.629  20.605  0.00  0.00    +0.000 A 
ATOM     22  C   UNL     1       2.203   3.946  21.640  0.00  0.00    +0.000 A 
ATOM     23  C   UNL     1       2.278   2.547  21.626  0.00  0.00    +0.000 A 
ATOM     24  C   UNL     1       1.738   1.824  20.563  0.00  0.00    +0.000 A 
ATOM     25  C   UNL     1       1.090   2.489  19.530  0.00  0.00    +0.000 A 
ATOM     26  C   UNL     1       0.980   3.878  19.577  0.00  0.00    +0.000 A 
ENDBRANCH   4  21
TORSDOF 3
ENDMDL
MODEL 4
REMARK VINA RESULT:      -8.4      0.711      1.181
REMARK  Name = 
REMARK  5 active torsions:
REMARK  status: ('A' for Active; 'I' for Inactive)
REMARK    1  A    between atoms: C_1  and  O_2
REMARK    2  A    between atoms: O_2  and  C_3
REMARK    3  A    between atoms: C_6  and  C_7
REMARK    4  A    between atoms: N_10  and  C_11
REMARK    5  A    between atoms: C_19  and  C_20
REMARK                            x       y       z     vdW  Elec       q    Type
REMARK                         _______ _______ _______ _____ _____    ______ ____
ROOT
ATOM      1  C   UNL     1       3.588   6.941  18.149  0.00  0.00    +0.000 A 
ATOM      2  C   UNL     1       3.468   6.542  19.427  0.00  0.00    +0.000 A 
ATOM      3  C   UNL     1       2.158   6.805  20.021  0.00  0.00    +0.000 A 
ATOM      4  N   UNL     1       1.347   5.945  20.552  0.00  0.00    +0.000 NA
ATOM      5  C   UNL     1       1.722   8.165  19.787  0.00  0.00    +0.000 A 
ATOM      6  C   UNL     1       1.039   8.887  20.762  0.00  0.00    +0.000 A 
ATOM      7  C   UNL     1       0.553  10.156  20.431  0.00  0.00    +0.000 A 
ATOM      8  C   UNL     1      -0.149  10.965  21.483  0.00  0.00    +0.000 C 
ATOM      9  C   UNL     1       0.730  10.623  19.118  0.00  0.00    +0.000 A 
ATOM     10  C   UNL     1       1.420   9.868  18.144  0.00  0.00    +0.000 A 
ATOM     11  C   UNL     1       1.954   8.634  18.488  0.00  0.00    +0.000 A 
ATOM     12  O   UNL     1       2.701   7.884  17.583  0.00  0.00    +0.000 OA
ENDROOT
BRANCH   1  16
ATOM     13  C   UNL     1       6.666   5.191  15.639  0.00  0.00    +0.000 A 
ATOM     14  C   UNL     1       6.902   6.332  16.384  0.00  0.00    +0.000 A 
ATOM     15  C   UNL     1       5.908   6.863  17.197  0.00  0.00    +0.000 A 
ATOM     16  C   UNL     1       4.619   6.299  17.284  0.00  0.00    +0.000 A 
ATOM     17  C   UNL     1       4.413   5.103  16.577  0.00  0.00    +0.000 A 
ATOM     18  C   UNL     1       5.430   4.554  15.757  0.00  0.00    +0.000 A 
BRANCH  13  20
ATOM     19  C   UNL     1       7.532   4.899  13.441  0.00  0.00    +0.000 C 
ATOM     20  O   UNL     1       7.718   4.852  14.842  0.00  0.00    +0.000 OA
ENDBRANCH  13  20
ENDBRANCH   1  16
BRANCH   4  21
ATOM     21  C   UNL     1       1.575   4.558  20.418  0.00  0.00    +0.000 A 
ATOM     22  C   UNL     1       2.063   3.859  21.517  0.00  0.00    +0.000 A 
ATOM     23  C   UNL     1       2.176   2.464  21.477  0.00  0.00    +0.000 A 
ATOM     24  C   UNL     1       1.818   1.761  20.328  0.00  0.00    +0.000 A 
ATOM     25  C   UNL     1       1.312   2.442  19.228  0.00  0.00    +0.000 A 
ATOM     26  C   UNL     1       1.159   3.826  19.295  0.00  0.00    +0.000 A 
ENDBRANCH   4  21
TORSDOF 3
ENDMDL
MODEL 5
REMARK VINA RESULT:      -8.3      1.603      6.417
REMARK  Name = 
REMARK  5 active torsions:
REMARK  status: ('A' for Active; 'I' for Inactive)
REMARK    1  A    between atoms: C_1  and  O_2
REMARK    2  A    between atoms: O_2  and  C_3
REMARK    3  A    between atoms: C_6  and  C_7
REMARK    4  A    between atoms: N_10  and  C_11
REMARK    5  A    between atoms: C_19  and  C_20
REMARK                            x       y       z     vdW  Elec       q    Type
REMARK                         _______ _______ _______ _____ _____    ______ ____
ROOT
ATOM      1  C   UNL     1       2.991   6.878  18.090  0.00  0.00    +0.000 A 
ATOM      2  C   UNL     1       2.420   5.689  17.829  0.00  0.00    +0.000 A 
ATOM      3  C   UNL     1       3.369   4.611  17.559  0.00  0.00    +0.000 A 
ATOM      4  N   UNL     1       3.475   3.480  18.185  0.00  0.00    +0.000 NA
ATOM      5  C   UNL     1       4.374   5.004  16.595  0.00  0.00    +0.000 A 
ATOM      6  C   UNL     1       4.842   4.115  15.631  0.00  0.00    +0.000 A 
ATOM      7  C   UNL     1       5.889   4.527  14.800  0.00  0.00    +0.000 A 
ATOM      8  C   UNL     1       6.379   3.597  13.728  0.00  0.00    +0.000 C 
ATOM      9  C   UNL     1       6.455   5.796  15.010  0.00  0.00    +0.000 A 
ATOM     10  C   UNL     1       5.966   6.676  16.000  0.00  0.00    +0.000 A 
ATOM     11  C   UNL     1       4.888   6.292  16.785  0.00  0.00    +0.000 A 
ATOM     12  O   UNL     1       4.328   7.151  17.727  0.00  0.00    +0.000 OA
ENDROOT
BRANCH   1  16
ATOM     13  C   UNL     1       0.784   9.928  20.249  0.00  0.00    +0.000 A 
ATOM     14  C   UNL     1       1.084  10.067  18.906  0.00  0.00    +0.000 A 
ATOM     15  C   UNL     1       1.773   9.068  18.231  0.00  0.00    +0.000 A 
ATOM     16  C   UNL     1       2.224   7.894  18.868  0.00  0.00    +0.000 A 
ATOM     17  C   UNL     1       1.854   7.734  20.213  0.00  0.00    +0.000 A 
ATOM     18  C   UNL     1       1.140   8.747  20.900  0.00  0.00    +0.000 A 
BRANCH  13  20
ATOM     19  C   UNL     1      -0.524  10.887  21.993  0.00  0.00    +0.000 C 
ATOM     20  O   UNL     1       0.174  11.030  20.772  0.00  0.00    +0.000 OA
ENDBRANCH  13  20
ENDBRANCH   1  16
BRANCH   4  21
ATOM     21  C   UNL     1       2.777   3.252  19.390  0.00  0.00    +0.000 A 
ATOM     22  C   UNL     1       1.388   3.309  19.371  0.00  0.00    +0.000 A 
ATOM     23  C   UNL     1       0.647   2.957  20.506  0.00  0.00    +0.000 A 
ATOM     24  C   UNL     1       1.295   2.564  21.676  0.00  0.00    +0.000 A 
ATOM     25  C   UNL     1       2.682   2.485  21.707  0.00  0.00    +0.000 A 
ATOM     26  C   UNL     1       3.408   2.792  20.557  0.00  0.00    +0.000 A 
ENDBRANCH   4  21
TORSDOF 3
ENDMDL
MODEL 6
REMARK VINA RESULT:      -7.0      3.733      6.888
REMARK  Name = 
REMARK  5 active torsions:
REMARK  status: ('A' for Active; 'I' for Inactive)
REMARK    1  A    between atoms: C_1  and  O_2
REMARK    2  A    between atoms: O_2  and  C_3
REMARK    3  A    between atoms: C_6  and  C_7
REMARK    4  A    between atoms: N_10  and  C_11
REMARK    5  A    between atoms: C_19  and  C_20
REMARK                            x       y       z     vdW  Elec       q    Type
REMARK                         _______ _______ _______ _____ _____    ______ ____
ROOT
ATOM      1  C   UNL     1       1.471  10.730  18.892  0.00  0.00    +0.000 A 
ATOM      2  C   UNL     1       0.327  11.224  19.397  0.00  0.00    +0.000 A 
ATOM      3  C   UNL     1      -0.115  12.474  18.781  0.00  0.00    +0.000 A 
ATOM      4  N   UNL     1      -1.250  12.708  18.200  0.00  0.00    +0.000 NA
ATOM      5  C   UNL     1       0.957  13.443  18.698  0.00  0.00    +0.000 A 
ATOM      6  C   UNL     1       0.729  14.799  18.915  0.00  0.00    +0.000 A 
ATOM      7  C   UNL     1       1.787  15.692  18.713  0.00  0.00    +0.000 A 
ATOM      8  C   UNL     1       1.569  17.153  18.982  0.00  0.00    +0.000 C 
ATOM      9  C   UNL     1       3.014  15.187  18.251  0.00  0.00    +0.000 A 
ATOM     10  C   UNL     1       3.218  13.807  18.032  0.00  0.00    +0.000 A 
ATOM     11  C   UNL     1       2.187  12.915  18.289  0.00  0.00    +0.000 A 
ATOM     12  O   UNL     1       2.362  11.540  18.154  0.00  0.00    +0.000 OA
ENDROOT
BRANCH   1  16
ATOM     13  C   UNL     1       2.280   6.501  19.438  0.00  0.00    +0.000 A 
ATOM     14  C   UNL     1       1.723   7.267  20.447  0.00  0.00    +0.000 A 
ATOM     15  C   UNL     1       1.454   8.615  20.242  0.00  0.00    +0.000 A 
ATOM     16  C   UNL     1       1.753   9.273  19.031  0.00  0.00    +0.000 A 
ATOM     17  C   UNL     1       2.254   8.469  17.994  0.00  0.00    +0.000 A 
ATOM     18  C   UNL     1       2.518   7.092  18.198  0.00  0.00    +0.000 A 
BRANCH  13  20
ATOM     19  C   UNL     1       1.587   4.557  20.625  0.00  0.00    +0.000 C 
ATOM     20  O   UNL     1       2.549   5.224  19.832  0.00  0.00    +0.000 OA
ENDBRANCH  13  20
ENDBRANCH   1  16
BRANCH   4  21
ATOM     21  C   UNL     1      -2.143  11.656  17.908  0.00  0.00    +0.000 A 
ATOM     22  C   UNL     1      -3.429  11.714  18.434  0.00  0.00    +0.000 A 
ATOM     23  C   UNL     1      -4.391  10.767  18.063  0.00  0.00    +0.000 A 
ATOM     24  C   UNL     1      -4.066   9.742  17.177  0.00  0.00    +0.000 A 
ATOM     25  C   UNL     1      -2.791   9.679  16.628  0.00  0.00    +0.000 A 
ATOM     26  C   UNL     1      -1.854  10.654  16.967  0.00  0.00    +0.000 A 
ENDBRANCH   4  21
TORSDOF 3
ENDMDL
MODEL 7
REMARK VINA RESULT:      -7.0      3.416      6.857
REMARK  Name = 
REMARK  5 active torsions:
REMARK  status: ('A' for Active; 'I' for Inactive)
REMARK    1  A    between atoms: C_1  and  O_2
REMARK    2  A    between atoms: O_2  and  C_3
REMARK    3  A    between atoms: C_6  and  C_7
REMARK    4  A    between atoms: N_10  and  C_11
REMARK    5  A    between atoms: C_19  and  C_20
REMARK                            x       y       z     vdW  Elec       q    Type
REMARK                         _______ _______ _______ _____ _____    ______ ____
ROOT
ATOM      1  C   UNL     1       6.689   6.100  16.297  0.00  0.00    +0.000 A 
ATOM      2  C   UNL     1       5.346   6.025  16.304  0.00  0.00    +0.000 A 
ATOM      3  C   UNL     1       4.808   4.780  15.759  0.00  0.00    +0.000 A 
ATOM      4  N   UNL     1       4.024   3.935  16.352  0.00  0.00    +0.000 NA
ATOM      5  C   UNL     1       5.408   4.444  14.486  0.00  0.00    +0.000 A 
ATOM      6  C   UNL     1       4.659   3.884  13.455  0.00  0.00    +0.000 A 
ATOM      7  C   UNL     1       5.324   3.484  12.291  0.00  0.00    +0.000 A 
ATOM      8  C   UNL     1       4.525   2.917  11.154  0.00  0.00    +0.000 C 
ATOM      9  C   UNL     1       6.721   3.619  12.235  0.00  0.00    +0.000 A 
ATOM     10  C   UNL     1       7.459   4.184  13.297  0.00  0.00    +0.000 A 
ATOM     11  C   UNL     1       6.794   4.635  14.428  0.00  0.00    +0.000 A 
ATOM     12  O   UNL     1       7.471   5.261  15.472  0.00  0.00    +0.000 OA
ENDROOT
BRANCH   1  16
ATOM     13  C   UNL     1       8.662   8.880  18.983  0.00  0.00    +0.000 A 
ATOM     14  C   UNL     1       8.023   9.313  17.836  0.00  0.00    +0.000 A 
ATOM     15  C   UNL     1       7.379   8.407  17.002  0.00  0.00    +0.000 A 
ATOM     16  C   UNL     1       7.368   7.020  17.254  0.00  0.00    +0.000 A 
ATOM     17  C   UNL     1       7.961   6.602  18.456  0.00  0.00    +0.000 A 
ATOM     18  C   UNL     1       8.607   7.526  19.314  0.00  0.00    +0.000 A 
BRANCH  13  20
ATOM     19  C   UNL     1       9.737  11.002  18.892  0.00  0.00    +0.000 C 
ATOM     20  O   UNL     1       9.304   9.885  19.643  0.00  0.00    +0.000 OA
ENDBRANCH  13  20
ENDBRANCH   1  16
BRANCH   4  21
ATOM     21  C   UNL     1       3.761   4.039  17.735  0.00  0.00    +0.000 A 
ATOM     22  C   UNL     1       2.618   4.718  18.141  0.00  0.00    +0.000 A 
ATOM     23  C   UNL     1       2.243   4.732  19.491  0.00  0.00    +0.000 A 
ATOM     24  C   UNL     1       3.022   4.080  20.445  0.00  0.00    +0.000 A 
ATOM     25  C   UNL     1       4.158   3.381  20.053  0.00  0.00    +0.000 A 
ATOM     26  C   UNL     1       4.497   3.335  18.702  0.00  0.00    +0.000 A 
ENDBRANCH   4  21
TORSDOF 3
ENDMDL
MODEL 8
REMARK VINA RESULT:      -6.9      6.557      9.147
REMARK  Name = 
REMARK  5 active torsions:
REMARK  status: ('A' for Active; 'I' for Inactive)
REMARK    1  A    between atoms: C_1  and  O_2
REMARK    2  A    between atoms: O_2  and  C_3
REMARK    3  A    between atoms: C_6  and  C_7
REMARK    4  A    between atoms: N_10  and  C_11
REMARK    5  A    between atoms: C_19  and  C_20
REMARK                            x       y       z     vdW  Elec       q    Type
REMARK                         _______ _______ _______ _____ _____    ______ ____
ROOT
ATOM      1  C   UNL     1      -3.485  12.512  19.957  0.00  0.00    +0.000 A 
ATOM      2  C   UNL     1      -2.342  12.957  20.509  0.00  0.00    +0.000 A 
ATOM      3  C   UNL     1      -2.412  13.165  21.954  0.00  0.00    +0.000 A 
ATOM      4  N   UNL     1      -1.662  12.628  22.865  0.00  0.00    +0.000 NA
ATOM      5  C   UNL     1      -3.582  13.927  22.334  0.00  0.00    +0.000 A 
ATOM      6  C   UNL     1      -3.532  14.877  23.349  0.00  0.00    +0.000 A 
ATOM      7  C   UNL     1      -4.724  15.499  23.738  0.00  0.00    +0.000 A 
ATOM      8  C   UNL     1      -4.682  16.556  24.802  0.00  0.00    +0.000 C 
ATOM      9  C   UNL     1      -5.922  15.098  23.123  0.00  0.00    +0.000 A 
ATOM     10  C   UNL     1      -5.947  14.126  22.100  0.00  0.00    +0.000 A 
ATOM     11  C   UNL     1      -4.758  13.552  21.673  0.00  0.00    +0.000 A 
ATOM     12  O   UNL     1      -4.725  12.640  20.621  0.00  0.00    +0.000 OA
ENDROOT
BRANCH   1  16
ATOM     13  C   UNL     1      -3.169  10.365  16.198  0.00  0.00    +0.000 A 
ATOM     14  C   UNL     1      -2.162  10.316  17.146  0.00  0.00    +0.000 A 
ATOM     15  C   UNL     1      -2.295  10.995  18.351  0.00  0.00    +0.000 A 
ATOM     16  C   UNL     1      -3.424  11.780  18.659  0.00  0.00    +0.000 A 
ATOM     17  C   UNL     1      -4.467  11.766  17.718  0.00  0.00    +0.000 A 
ATOM     18  C   UNL     1      -4.339  11.064  16.494  0.00  0.00    +0.000 A 
BRANCH  13  20
ATOM     19  C   UNL     1      -3.597   9.995  13.885  0.00  0.00    +0.000 C 
ATOM     20  O   UNL     1      -2.845   9.709  15.048  0.00  0.00    +0.000 OA
ENDBRANCH  13  20
ENDBRANCH   1  16
BRANCH   4  21
ATOM     21  C   UNL     1      -0.785  11.568  22.546  0.00  0.00    +0.000 A 
ATOM     22  C   UNL     1      -0.963  10.347  23.186  0.00  0.00    +0.000 A 
ATOM     23  C   UNL     1      -0.209   9.230  22.806  0.00  0.00    +0.000 A 
ATOM     24  C   UNL     1       0.743   9.334  21.793  0.00  0.00    +0.000 A 
ATOM     25  C   UNL     1       0.921  10.543  21.131  0.00  0.00    +0.000 A 
ATOM     26  C   UNL     1       0.132  11.636  21.485  0.00  0.00    +0.000 A 
ENDBRANCH   4  21
TORSDOF 3
ENDMDL
MODEL 9
REMARK VINA RESULT:      -6.9      3.737      6.701
REMARK  Name = 
REMARK  5 active torsions:
REMARK  status: ('A' for Active; 'I' for Inactive)
REMARK    1  A    between atoms: C_1  and  O_2
REMARK    2  A    between atoms: O_2  and  C_3
REMARK    3  A    between atoms: C_6  and  C_7
REMARK    4  A    between atoms: N_10  and  C_11
REMARK    5  A    between atoms: C_19  and  C_20
REMARK                            x       y       z     vdW  Elec       q    Type
REMARK                         _______ _______ _______ _____ _____    ______ ____
ROOT
ATOM      1  C   UNL     1       1.440  10.724  18.928  0.00  0.00    +0.000 A 
ATOM      2  C   UNL     1       0.294  11.222  19.424  0.00  0.00    +0.000 A 
ATOM      3  C   UNL     1      -0.143  12.469  18.799  0.00  0.00    +0.000 A 
ATOM      4  N   UNL     1      -1.274  12.701  18.209  0.00  0.00    +0.000 NA
ATOM      5  C   UNL     1       0.931  13.436  18.716  0.00  0.00    +0.000 A 
ATOM      6  C   UNL     1       0.703  14.794  18.923  0.00  0.00    +0.000 A 
ATOM      7  C   UNL     1       1.763  15.684  18.722  0.00  0.00    +0.000 A 
ATOM      8  C   UNL     1       1.546  17.146  18.981  0.00  0.00    +0.000 C 
ATOM      9  C   UNL     1       2.992  15.175  18.270  0.00  0.00    +0.000 A 
ATOM     10  C   UNL     1       3.196  13.794  18.060  0.00  0.00    +0.000 A 
ATOM     11  C   UNL     1       2.163  12.904  18.317  0.00  0.00    +0.000 A 
ATOM     12  O   UNL     1       2.336  11.528  18.190  0.00  0.00    +0.000 OA
ENDROOT
BRANCH   1  16
ATOM     13  C   UNL     1       2.267   6.473  19.221  0.00  0.00    +0.000 A 
ATOM     14  C   UNL     1       2.539   7.185  18.067  0.00  0.00    +0.000 A 
ATOM     15  C   UNL     1       2.285   8.550  18.004  0.00  0.00    +0.000 A 
ATOM     16  C   UNL     1       1.720   9.267  19.078  0.00  0.00    +0.000 A 
ATOM     17  C   UNL     1       1.512   8.547  20.265  0.00  0.00    +0.000 A 
ATOM     18  C   UNL     1       1.782   7.157  20.336  0.00  0.00    +0.000 A 
BRANCH  13  20
ATOM     19  C   UNL     1       2.767   4.637  17.791  0.00  0.00    +0.000 C 
ATOM     20  O   UNL     1       2.502   5.138  19.087  0.00  0.00    +0.000 OA
ENDBRANCH  13  20
ENDBRANCH   1  16
BRANCH   4  21
ATOM     21  C   UNL     1      -2.167  11.648  17.919  0.00  0.00    +0.000 A 
ATOM     22  C   UNL     1      -3.453  11.707  18.445  0.00  0.00    +0.000 A 
ATOM     23  C   UNL     1      -4.415  10.758  18.076  0.00  0.00    +0.000 A 
ATOM     24  C   UNL     1      -4.089   9.733  17.190  0.00  0.00    +0.000 A 
ATOM     25  C   UNL     1      -2.815   9.670  16.641  0.00  0.00    +0.000 A 
ATOM     26  C   UNL     1      -1.878  10.646  16.979  0.00  0.00    +0.000 A 
ENDBRANCH   4  21
TORSDOF 3
ENDMDL
