MODEL 1
REMARK VINA RESULT:      -7.3      0.000      0.000
REMARK  Name = 
REMARK  8 active torsions:
REMARK  status: ('A' for Active; 'I' for Inactive)
REMARK    1  A    between atoms: C_1  and  C_2
REMARK    2  A    between atoms: N_5  and  S_6
REMARK    3  A    between atoms: S_6  and  C_7
REMARK    4  A    between atoms: C_13  and  N_14
REMARK    5  A    between atoms: N_14  and  C_15
REMARK    6  A    between atoms: C_16  and  C_17
REMARK    7  A    between atoms: C_24  and  C_25
REMARK    8  A    between atoms: N_28  and  C_29
REMARK                            x       y       z     vdW  Elec       q    Type
REMARK                         _______ _______ _______ _____ _____    ______ ____
ROOT
ATOM      1  C   UNL     1       1.934   8.098  19.679  0.00  0.00    +0.000 A 
ATOM      2  C   UNL     1       1.235   7.550  20.709  0.00  0.00    +0.000 A 
ATOM      3  C   UNL     1       1.256   6.062  20.849  0.00  0.00    +0.000 A 
ATOM      4  N   UNL     1       1.850   5.200  20.098  0.00  0.00    +0.000 NA
ATOM      5  N   UNL     1       2.559   5.793  19.126  0.00  0.00    +0.000 N 
ATOM      6  C   UNL     1       3.269   5.078  18.209  0.00  0.00    +0.000 A 
ATOM      7  C   UNL     1       4.030   5.959  17.483  0.00  0.00    +0.000 A 
ATOM      8  C   UNL     1       3.725   7.263  17.954  0.00  0.00    +0.000 A 
ATOM      9  C   UNL     1       2.730   7.153  18.913  0.00  0.00    +0.000 A 
ENDROOT
BRANCH   7  10
ATOM     10  C   UNL     1       4.975   5.608  16.437  0.00  0.00    +0.000 A 
ATOM     11  N   UNL     1       6.119   6.344  16.252  0.00  0.00    +0.000 NA
ATOM     12  N   UNL     1       6.757   5.793  15.229  0.00  0.00    +0.000 NA
ATOM     13  N   UNL     1       5.965   4.778  14.849  0.00  0.00    +0.000 N 
ATOM     14  C   UNL     1       6.301   3.923  13.745  0.00  0.00    +0.000 C 
ATOM     15  N   UNL     1       4.851   4.590  15.577  0.00  0.00    +0.000 NA
ENDBRANCH   7  10
BRANCH   2  16
ATOM     16  C   UNL     1       0.455   8.275  21.731  0.00  0.00    +0.000 C 
ATOM     17  N   UNL     1       1.198   8.996  22.625  0.00  0.00    +0.000 N 
ATOM     18  O   UNL     1      -0.759   8.187  21.865  0.00  0.00    +0.000 OA
ATOM     19  H   UNL     1       2.193   9.159  22.538  0.00  0.00    +0.000 HD
ATOM     20  H   UNL     1       0.722   9.415  23.412  0.00  0.00    +0.000 HD
ENDBRANCH   2  16
BRANCH   1  21
ATOM     21  N   UNL     1       2.016   9.456  19.320  0.00  0.00    +0.000 N 
ATOM     22  H   UNL     1       2.698   9.982  19.864  0.00  0.00    +0.000 HD
BRANCH  21  31
ATOM     23  C   UNL     1      -1.253  10.046  18.062  0.00  0.00    +0.000 C 
ATOM     24  C   UNL     1      -0.032  10.774  18.628  0.00  0.00    +0.000 C 
ATOM     25  C   UNL     1      -0.081  12.245  18.167  0.00  0.00    +0.000 C 
ATOM     26  C   UNL     1      -0.761  13.194  19.146  0.00  0.00    +0.000 C 
ATOM     27  N   UNL     1       0.276  13.513  20.162  0.00  0.00    +0.000 NA
ATOM     28  C   UNL     1       1.596  13.414  19.483  0.00  0.00    +0.000 C 
ATOM     29  C   UNL     1       1.357  12.714  18.133  0.00  0.00    +0.000 C 
ATOM     30  C   UNL     1       2.182  11.462  17.823  0.00  0.00    +0.000 C 
ATOM     31  C   UNL     1       1.370  10.212  18.222  0.00  0.00    +0.000 C 
BRANCH  27  32
ATOM     32  S   UNL     1       0.019  12.820  21.693  0.00  0.00    +0.000 S 
ATOM     33  C   UNL     1      -1.670  12.254  21.661  0.00  0.00    +0.000 C 
ATOM     34  O   UNL     1       0.850  11.636  21.755  0.00  0.00    +0.000 OA
ATOM     35  O   UNL     1       0.124  13.862  22.694  0.00  0.00    +0.000 OA
ENDBRANCH  27  32
ENDBRANCH  21  31
ENDBRANCH   1  21
TORSDOF 5
ENDMDL
MODEL 2
REMARK VINA RESULT:      -6.4      4.356      7.792
REMARK  Name = 
REMARK  8 active torsions:
REMARK  status: ('A' for Active; 'I' for Inactive)
REMARK    1  A    between atoms: C_1  and  C_2
REMARK    2  A    between atoms: N_5  and  S_6
REMARK    3  A    between atoms: S_6  and  C_7
REMARK    4  A    between atoms: C_13  and  N_14
REMARK    5  A    between atoms: N_14  and  C_15
REMARK    6  A    between atoms: C_16  and  C_17
REMARK    7  A    between atoms: C_24  and  C_25
REMARK    8  A    between atoms: N_28  and  C_29
REMARK                            x       y       z     vdW  Elec       q    Type
REMARK                         _______ _______ _______ _____ _____    ______ ____
ROOT
ATOM      1  C   UNL     1      -4.775  12.634  19.451  0.00  0.00    +0.000 A 
ATOM      2  C   UNL     1      -5.912  12.527  18.713  0.00  0.00    +0.000 A 
ATOM      3  C   UNL     1      -5.810  11.881  17.369  0.00  0.00    +0.000 A 
ATOM      4  N   UNL     1      -4.760  11.411  16.789  0.00  0.00    +0.000 NA
ATOM      5  N   UNL     1      -3.677  11.502  17.575  0.00  0.00    +0.000 N 
ATOM      6  C   UNL     1      -2.450  11.070  17.168  0.00  0.00    +0.000 A 
ATOM      7  C   UNL     1      -1.605  11.117  18.249  0.00  0.00    +0.000 A 
ATOM      8  C   UNL     1      -2.347  11.646  19.337  0.00  0.00    +0.000 A 
ATOM      9  C   UNL     1      -3.613  11.976  18.876  0.00  0.00    +0.000 A 
ENDROOT
BRANCH   7  10
ATOM     10  C   UNL     1      -0.217  10.691  18.265  0.00  0.00    +0.000 A 
ATOM     11  N   UNL     1       0.776  11.555  18.654  0.00  0.00    +0.000 NA
ATOM     12  N   UNL     1       1.916  10.888  18.549  0.00  0.00    +0.000 NA
ATOM     13  N   UNL     1       1.555   9.679  18.091  0.00  0.00    +0.000 N 
ATOM     14  C   UNL     1       2.517   8.646  17.827  0.00  0.00    +0.000 C 
ATOM     15  N   UNL     1       0.236   9.480  17.917  0.00  0.00    +0.000 NA
ENDBRANCH   7  10
BRANCH   2  16
ATOM     16  C   UNL     1      -7.264  12.971  19.105  0.00  0.00    +0.000 C 
ATOM     17  N   UNL     1      -7.916  13.734  18.176  0.00  0.00    +0.000 N 
ATOM     18  O   UNL     1      -7.763  12.776  20.206  0.00  0.00    +0.000 OA
ATOM     19  H   UNL     1      -7.591  13.883  17.229  0.00  0.00    +0.000 HD
ATOM     20  H   UNL     1      -8.795  14.159  18.441  0.00  0.00    +0.000 HD
ENDBRANCH   2  16
BRANCH   1  21
ATOM     21  N   UNL     1      -4.619  13.245  20.708  0.00  0.00    +0.000 N 
ATOM     22  H   UNL     1      -4.568  14.262  20.665  0.00  0.00    +0.000 HD
BRANCH  21  31
ATOM     23  C   UNL     1      -2.307  11.926  23.061  0.00  0.00    +0.000 C 
ATOM     24  C   UNL     1      -3.345  13.038  22.887  0.00  0.00    +0.000 C 
ATOM     25  C   UNL     1      -3.806  13.502  24.284  0.00  0.00    +0.000 C 
ATOM     26  C   UNL     1      -3.030  14.688  24.845  0.00  0.00    +0.000 C 
ATOM     27  N   UNL     1      -3.639  15.886  24.210  0.00  0.00    +0.000 NA
ATOM     28  C   UNL     1      -5.061  15.554  23.925  0.00  0.00    +0.000 C 
ATOM     29  C   UNL     1      -5.211  14.032  24.098  0.00  0.00    +0.000 C 
ATOM     30  C   UNL     1      -5.790  13.235  22.926  0.00  0.00    +0.000 C 
ATOM     31  C   UNL     1      -4.632  12.675  22.075  0.00  0.00    +0.000 C 
BRANCH  27  32
ATOM     32  S   UNL     1      -2.665  16.656  23.049  0.00  0.00    +0.000 S 
ATOM     33  C   UNL     1      -3.593  16.551  21.532  0.00  0.00    +0.000 C 
ATOM     34  O   UNL     1      -2.620  18.057  23.410  0.00  0.00    +0.000 OA
ATOM     35  O   UNL     1      -1.448  15.886  22.884  0.00  0.00    +0.000 OA
ENDBRANCH  27  32
ENDBRANCH  21  31
ENDBRANCH   1  21
TORSDOF 5
ENDMDL
MODEL 3
REMARK VINA RESULT:      -6.4      5.928      8.052
REMARK  Name = 
REMARK  8 active torsions:
REMARK  status: ('A' for Active; 'I' for Inactive)
REMARK    1  A    between atoms: C_1  and  C_2
REMARK    2  A    between atoms: N_5  and  S_6
REMARK    3  A    between atoms: S_6  and  C_7
REMARK    4  A    between atoms: C_13  and  N_14
REMARK    5  A    between atoms: N_14  and  C_15
REMARK    6  A    between atoms: C_16  and  C_17
REMARK    7  A    between atoms: C_24  and  C_25
REMARK    8  A    between atoms: N_28  and  C_29
REMARK                            x       y       z     vdW  Elec       q    Type
REMARK                         _______ _______ _______ _____ _____    ______ ____
ROOT
ATOM      1  C   UNL     1      -4.673  12.283  19.710  0.00  0.00    +0.000 A 
ATOM      2  C   UNL     1      -5.532  11.426  19.095  0.00  0.00    +0.000 A 
ATOM      3  C   UNL     1      -5.023  10.658  17.919  0.00  0.00    +0.000 A 
ATOM      4  N   UNL     1      -3.854  10.708  17.379  0.00  0.00    +0.000 NA
ATOM      5  N   UNL     1      -3.035  11.534  18.048  0.00  0.00    +0.000 N 
ATOM      6  C   UNL     1      -1.747  11.747  17.657  0.00  0.00    +0.000 A 
ATOM      7  C   UNL     1      -1.122  12.474  18.639  0.00  0.00    +0.000 A 
ATOM      8  C   UNL     1      -2.092  12.749  19.638  0.00  0.00    +0.000 A 
ATOM      9  C   UNL     1      -3.309  12.241  19.209  0.00  0.00    +0.000 A 
ENDROOT
BRANCH   7  10
ATOM     10  C   UNL     1       0.275  12.872  18.647  0.00  0.00    +0.000 A 
ATOM     11  N   UNL     1       1.271  11.928  18.609  0.00  0.00    +0.000 NA
ATOM     12  N   UNL     1       2.418  12.594  18.642  0.00  0.00    +0.000 NA
ATOM     13  N   UNL     1       2.054  13.883  18.714  0.00  0.00    +0.000 N 
ATOM     14  C   UNL     1       3.020  14.944  18.781  0.00  0.00    +0.000 C 
ATOM     15  N   UNL     1       0.732  14.130  18.693  0.00  0.00    +0.000 NA
ENDBRANCH   7  10
BRANCH   2  16
ATOM     16  C   UNL     1      -6.931  11.153  19.478  0.00  0.00    +0.000 C 
ATOM     17  N   UNL     1      -7.385   9.902  19.163  0.00  0.00    +0.000 N 
ATOM     18  O   UNL     1      -7.692  11.986  19.955  0.00  0.00    +0.000 OA
ATOM     19  H   UNL     1      -6.798   9.150  18.826  0.00  0.00    +0.000 HD
ATOM     20  H   UNL     1      -8.368   9.704  19.298  0.00  0.00    +0.000 HD
ENDBRANCH   2  16
BRANCH   1  21
ATOM     21  N   UNL     1      -4.940  13.142  20.792  0.00  0.00    +0.000 N 
ATOM     22  H   UNL     1      -5.262  14.066  20.510  0.00  0.00    +0.000 HD
BRANCH  21  31
ATOM     23  C   UNL     1      -2.710  11.961  23.292  0.00  0.00    +0.000 C 
ATOM     24  C   UNL     1      -3.552  13.181  22.909  0.00  0.00    +0.000 C 
ATOM     25  C   UNL     1      -3.814  14.014  24.180  0.00  0.00    +0.000 C 
ATOM     26  C   UNL     1      -2.805  15.129  24.426  0.00  0.00    +0.000 C 
ATOM     27  N   UNL     1      -3.246  16.252  23.559  0.00  0.00    +0.000 NA
ATOM     28  C   UNL     1      -4.723  16.135  23.412  0.00  0.00    +0.000 C 
ATOM     29  C   UNL     1      -5.118  14.742  23.933  0.00  0.00    +0.000 C 
ATOM     30  C   UNL     1      -5.916  13.830  22.998  0.00  0.00    +0.000 C 
ATOM     31  C   UNL     1      -4.942  12.895  22.252  0.00  0.00    +0.000 C 
BRANCH  27  32
ATOM     32  S   UNL     1      -2.250  16.558  22.216  0.00  0.00    +0.000 S 
ATOM     33  C   UNL     1      -3.300  16.301  20.800  0.00  0.00    +0.000 C 
ATOM     34  O   UNL     1      -1.936  17.970  22.247  0.00  0.00    +0.000 OA
ATOM     35  O   UNL     1      -1.201  15.557  22.183  0.00  0.00    +0.000 OA
ENDBRANCH  27  32
ENDBRANCH  21  31
ENDBRANCH   1  21
TORSDOF 5
ENDMDL
MODEL 4
REMARK VINA RESULT:      -6.4      5.553      7.933
REMARK  Name = 
REMARK  8 active torsions:
REMARK  status: ('A' for Active; 'I' for Inactive)
REMARK    1  A    between atoms: C_1  and  C_2
REMARK    2  A    between atoms: N_5  and  S_6
REMARK    3  A    between atoms: S_6  and  C_7
REMARK    4  A    between atoms: C_13  and  N_14
REMARK    5  A    between atoms: N_14  and  C_15
REMARK    6  A    between atoms: C_16  and  C_17
REMARK    7  A    between atoms: C_24  and  C_25
REMARK    8  A    between atoms: N_28  and  C_29
REMARK                            x       y       z     vdW  Elec       q    Type
REMARK                         _______ _______ _______ _____ _____    ______ ____
ROOT
ATOM      1  C   UNL     1      -2.997  11.948  19.112  0.00  0.00    +0.000 A 
ATOM      2  C   UNL     1      -2.009  11.715  20.017  0.00  0.00    +0.000 A 
ATOM      3  C   UNL     1      -0.959  10.715  19.657  0.00  0.00    +0.000 A 
ATOM      4  N   UNL     1      -0.865  10.009  18.582  0.00  0.00    +0.000 NA
ATOM      5  N   UNL     1      -1.837  10.308  17.707  0.00  0.00    +0.000 N 
ATOM      6  C   UNL     1      -1.940   9.684  16.500  0.00  0.00    +0.000 A 
ATOM      7  C   UNL     1      -2.899  10.336  15.767  0.00  0.00    +0.000 A 
ATOM      8  C   UNL     1      -3.427  11.365  16.590  0.00  0.00    +0.000 A 
ATOM      9  C   UNL     1      -2.825  11.273  17.836  0.00  0.00    +0.000 A 
ENDROOT
BRANCH   7  10
ATOM     10  C   UNL     1      -3.285  10.028  14.402  0.00  0.00    +0.000 A 
ATOM     11  N   UNL     1      -2.340   9.679  13.469  0.00  0.00    +0.000 NA
ATOM     12  N   UNL     1      -2.992   9.476  12.333  0.00  0.00    +0.000 NA
ATOM     13  N   UNL     1      -4.275   9.727  12.635  0.00  0.00    +0.000 N 
ATOM     14  C   UNL     1      -5.321   9.629  11.655  0.00  0.00    +0.000 C 
ATOM     15  N   UNL     1      -4.532  10.050  13.915  0.00  0.00    +0.000 NA
ENDBRANCH   7  10
BRANCH   2  16
ATOM     16  C   UNL     1      -1.846  12.364  21.333  0.00  0.00    +0.000 C 
ATOM     17  N   UNL     1      -0.604  12.883  21.574  0.00  0.00    +0.000 N 
ATOM     18  O   UNL     1      -2.702  12.374  22.209  0.00  0.00    +0.000 OA
ATOM     19  H   UNL     1       0.127  12.962  20.879  0.00  0.00    +0.000 HD
ATOM     20  H   UNL     1      -0.406  13.233  22.502  0.00  0.00    +0.000 HD
ENDBRANCH   2  16
BRANCH   1  21
ATOM     21  N   UNL     1      -4.110  12.797  19.251  0.00  0.00    +0.000 N 
ATOM     22  H   UNL     1      -3.871  13.787  19.258  0.00  0.00    +0.000 HD
BRANCH  21  31
ATOM     23  C   UNL     1      -6.720  12.461  21.638  0.00  0.00    +0.000 C 
ATOM     24  C   UNL     1      -6.312  13.275  20.407  0.00  0.00    +0.000 C 
ATOM     25  C   UNL     1      -7.582  13.883  19.778  0.00  0.00    +0.000 C 
ATOM     26  C   UNL     1      -7.916  15.290  20.260  0.00  0.00    +0.000 C 
ATOM     27  N   UNL     1      -7.048  16.191  19.459  0.00  0.00    +0.000 NA
ATOM     28  C   UNL     1      -6.805  15.518  18.155  0.00  0.00    +0.000 C 
ATOM     29  C   UNL     1      -7.269  14.059  18.308  0.00  0.00    +0.000 C 
ATOM     30  C   UNL     1      -6.264  12.953  17.975  0.00  0.00    +0.000 C 
ATOM     31  C   UNL     1      -5.561  12.503  19.273  0.00  0.00    +0.000 C 
BRANCH  27  32
ATOM     32  S   UNL     1      -5.778  16.920  20.324  0.00  0.00    +0.000 S 
ATOM     33  C   UNL     1      -6.192  16.672  22.038  0.00  0.00    +0.000 C 
ATOM     34  O   UNL     1      -4.595  16.128  20.065  0.00  0.00    +0.000 OA
ATOM     35  O   UNL     1      -5.799  18.345  20.059  0.00  0.00    +0.000 OA
ENDBRANCH  27  32
ENDBRANCH  21  31
ENDBRANCH   1  21
TORSDOF 5
ENDMDL
MODEL 5
REMARK VINA RESULT:      -6.4      3.599      6.618
REMARK  Name = 
REMARK  8 active torsions:
REMARK  status: ('A' for Active; 'I' for Inactive)
REMARK    1  A    between atoms: C_1  and  C_2
REMARK    2  A    between atoms: N_5  and  S_6
REMARK    3  A    between atoms: S_6  and  C_7
REMARK    4  A    between atoms: C_13  and  N_14
REMARK    5  A    between atoms: N_14  and  C_15
REMARK    6  A    between atoms: C_16  and  C_17
REMARK    7  A    between atoms: C_24  and  C_25
REMARK    8  A    between atoms: N_28  and  C_29
REMARK                            x       y       z     vdW  Elec       q    Type
REMARK                         _______ _______ _______ _____ _____    ______ ____
ROOT
ATOM      1  C   UNL     1      -0.086  13.714  22.118  0.00  0.00    +0.000 A 
ATOM      2  C   UNL     1      -1.030  13.737  23.097  0.00  0.00    +0.000 A 
ATOM      3  C   UNL     1      -1.828  12.494  23.322  0.00  0.00    +0.000 A 
ATOM      4  N   UNL     1      -1.754  11.374  22.689  0.00  0.00    +0.000 NA
ATOM      5  N   UNL     1      -0.781  11.390  21.766  0.00  0.00    +0.000 N 
ATOM      6  C   UNL     1      -0.522  10.314  20.970  0.00  0.00    +0.000 A 
ATOM      7  C   UNL     1       0.637  10.569  20.280  0.00  0.00    +0.000 A 
ATOM      8  C   UNL     1       1.062  11.874  20.642  0.00  0.00    +0.000 A 
ATOM      9  C   UNL     1       0.113  12.415  21.495  0.00  0.00    +0.000 A 
ENDROOT
BRANCH   7  10
ATOM     10  C   UNL     1       1.299   9.660  19.362  0.00  0.00    +0.000 A 
ATOM     11  N   UNL     1       1.567  10.041  18.071  0.00  0.00    +0.000 NA
ATOM     12  N   UNL     1       2.154   9.004  17.488  0.00  0.00    +0.000 NA
ATOM     13  N   UNL     1       2.192   8.062  18.443  0.00  0.00    +0.000 N 
ATOM     14  C   UNL     1       2.751   6.760  18.207  0.00  0.00    +0.000 C 
ATOM     15  N   UNL     1       1.700   8.413  19.645  0.00  0.00    +0.000 NA
ENDBRANCH   7  10
BRANCH   2  16
ATOM     16  C   UNL     1      -1.349  14.869  23.989  0.00  0.00    +0.000 C 
ATOM     17  N   UNL     1      -2.621  15.358  23.874  0.00  0.00    +0.000 N 
ATOM     18  O   UNL     1      -0.538  15.422  24.722  0.00  0.00    +0.000 OA
ATOM     19  H   UNL     1      -3.356  14.916  23.337  0.00  0.00    +0.000 HD
ATOM     20  H   UNL     1      -2.854  16.204  24.377  0.00  0.00    +0.000 HD
ENDBRANCH   2  16
BRANCH   1  21
ATOM     21  N   UNL     1       0.740  14.770  21.694  0.00  0.00    +0.000 N 
ATOM     22  H   UNL     1       0.367  15.289  20.900  0.00  0.00    +0.000 HD
BRANCH  21  31
ATOM     23  C   UNL     1       4.232  14.122  21.585  0.00  0.00    +0.000 C 
ATOM     24  C   UNL     1       3.200  15.213  21.287  0.00  0.00    +0.000 C 
ATOM     25  C   UNL     1       3.916  16.580  21.299  0.00  0.00    +0.000 C 
ATOM     26  C   UNL     1       4.404  17.051  19.934  0.00  0.00    +0.000 C 
ATOM     27  N   UNL     1       3.210  17.644  19.277  0.00  0.00    +0.000 NA
ATOM     28  C   UNL     1       2.333  18.169  20.359  0.00  0.00    +0.000 C 
ATOM     29  C   UNL     1       2.860  17.593  21.685  0.00  0.00    +0.000 C 
ATOM     30  C   UNL     1       1.874  16.829  22.572  0.00  0.00    +0.000 C 
ATOM     31  C   UNL     1       1.989  15.320  22.271  0.00  0.00    +0.000 C 
BRANCH  27  32
ATOM     32  S   UNL     1       2.573  16.735  17.990  0.00  0.00    +0.000 S 
ATOM     33  C   UNL     1       3.829  15.528  17.617  0.00  0.00    +0.000 C 
ATOM     34  O   UNL     1       1.442  16.004  18.521  0.00  0.00    +0.000 OA
ATOM     35  O   UNL     1       2.430  17.604  16.839  0.00  0.00    +0.000 OA
ENDBRANCH  27  32
ENDBRANCH  21  31
ENDBRANCH   1  21
TORSDOF 5
ENDMDL
MODEL 6
REMARK VINA RESULT:      -6.4      7.195      8.862
REMARK  Name = 
REMARK  8 active torsions:
REMARK  status: ('A' for Active; 'I' for Inactive)
REMARK    1  A    between atoms: C_1  and  C_2
REMARK    2  A    between atoms: N_5  and  S_6
REMARK    3  A    between atoms: S_6  and  C_7
REMARK    4  A    between atoms: C_13  and  N_14
REMARK    5  A    between atoms: N_14  and  C_15
REMARK    6  A    between atoms: C_16  and  C_17
REMARK    7  A    between atoms: C_24  and  C_25
REMARK    8  A    between atoms: N_28  and  C_29
REMARK                            x       y       z     vdW  Elec       q    Type
REMARK                         _______ _______ _______ _____ _____    ______ ____
ROOT
ATOM      1  C   UNL     1       9.653  13.530  20.044  0.00  0.00    +0.000 A 
ATOM      2  C   UNL     1      10.579  14.379  19.524  0.00  0.00    +0.000 A 
ATOM      3  C   UNL     1      11.392  13.896  18.367  0.00  0.00    +0.000 A 
ATOM      4  N   UNL     1      11.347  12.747  17.786  0.00  0.00    +0.000 NA
ATOM      5  N   UNL     1      10.389  11.966  18.307  0.00  0.00    +0.000 N 
ATOM      6  C   UNL     1      10.159  10.702  17.850  0.00  0.00    +0.000 A 
ATOM      7  C   UNL     1       9.008  10.242  18.440  0.00  0.00    +0.000 A 
ATOM      8  C   UNL     1       8.558  11.257  19.325  0.00  0.00    +0.000 A 
ATOM      9  C   UNL     1       9.484  12.288  19.307  0.00  0.00    +0.000 A 
ENDROOT
BRANCH   7  10
ATOM     10  C   UNL     1       8.376   8.960  18.189  0.00  0.00    +0.000 A 
ATOM     11  N   UNL     1       7.407   8.834  17.225  0.00  0.00    +0.000 NA
ATOM     12  N   UNL     1       7.020   7.566  17.246  0.00  0.00    +0.000 NA
ATOM     13  N   UNL     1       7.755   7.009  18.220  0.00  0.00    +0.000 N 
ATOM     14  C   UNL     1       7.626   5.622  18.573  0.00  0.00    +0.000 C 
ATOM     15  N   UNL     1       8.641   7.815  18.831  0.00  0.00    +0.000 NA
ENDBRANCH   7  10
BRANCH   2  16
ATOM     16  C   UNL     1      10.866  15.756  19.974  0.00  0.00    +0.000 C 
ATOM     17  N   UNL     1      12.187  16.110  19.952  0.00  0.00    +0.000 N 
ATOM     18  O   UNL     1      10.028  16.522  20.432  0.00  0.00    +0.000 OA
ATOM     19  H   UNL     1      12.920  15.553  19.534  0.00  0.00    +0.000 HD
ATOM     20  H   UNL     1      12.449  16.998  20.359  0.00  0.00    +0.000 HD
ENDBRANCH   2  16
BRANCH   1  21
ATOM     21  N   UNL     1       8.817  13.743  21.155  0.00  0.00    +0.000 N 
ATOM     22  H   UNL     1       7.889  14.084  20.910  0.00  0.00    +0.000 HD
BRANCH  21  31
ATOM     23  C   UNL     1       9.188  15.525  24.206  0.00  0.00    +0.000 C 
ATOM     24  C   UNL     1       8.299  14.484  23.521  0.00  0.00    +0.000 C 
ATOM     25  C   UNL     1       7.557  13.680  24.608  0.00  0.00    +0.000 C 
ATOM     26  C   UNL     1       6.179  14.221  24.967  0.00  0.00    +0.000 C 
ATOM     27  N   UNL     1       5.269  13.699  23.914  0.00  0.00    +0.000 NA
ATOM     28  C   UNL     1       5.842  12.408  23.445  0.00  0.00    +0.000 C 
ATOM     29  C   UNL     1       7.276  12.324  23.997  0.00  0.00    +0.000 C 
ATOM     30  C   UNL     1       8.412  12.089  22.998  0.00  0.00    +0.000 C 
ATOM     31  C   UNL     1       9.017  13.450  22.593  0.00  0.00    +0.000 C 
BRANCH  27  32
ATOM     32  S   UNL     1       4.702  14.863  22.813  0.00  0.00    +0.000 S 
ATOM     33  C   UNL     1       5.077  16.430  23.572  0.00  0.00    +0.000 C 
ATOM     34  O   UNL     1       5.540  14.762  21.637  0.00  0.00    +0.000 OA
ATOM     35  O   UNL     1       3.261  14.744  22.719  0.00  0.00    +0.000 OA
ENDBRANCH  27  32
ENDBRANCH  21  31
ENDBRANCH   1  21
TORSDOF 5
ENDMDL
MODEL 7
REMARK VINA RESULT:      -6.4      6.227      8.049
REMARK  Name = 
REMARK  8 active torsions:
REMARK  status: ('A' for Active; 'I' for Inactive)
REMARK    1  A    between atoms: C_1  and  C_2
REMARK    2  A    between atoms: N_5  and  S_6
REMARK    3  A    between atoms: S_6  and  C_7
REMARK    4  A    between atoms: C_13  and  N_14
REMARK    5  A    between atoms: N_14  and  C_15
REMARK    6  A    between atoms: C_16  and  C_17
REMARK    7  A    between atoms: C_24  and  C_25
REMARK    8  A    between atoms: N_28  and  C_29
REMARK                            x       y       z     vdW  Elec       q    Type
REMARK                         _______ _______ _______ _____ _____    ______ ____
ROOT
ATOM      1  C   UNL     1      -3.520  12.565  19.629  0.00  0.00    +0.000 A 
ATOM      2  C   UNL     1      -4.075  11.797  18.653  0.00  0.00    +0.000 A 
ATOM      3  C   UNL     1      -3.177  11.297  17.569  0.00  0.00    +0.000 A 
ATOM      4  N   UNL     1      -1.916  11.511  17.416  0.00  0.00    +0.000 NA
ATOM      5  N   UNL     1      -1.410  12.235  18.426  0.00  0.00    +0.000 N 
ATOM      6  C   UNL     1      -0.095  12.586  18.476  0.00  0.00    +0.000 A 
ATOM      7  C   UNL     1       0.148  13.144  19.706  0.00  0.00    +0.000 A 
ATOM      8  C   UNL     1      -1.088  13.171  20.404  0.00  0.00    +0.000 A 
ATOM      9  C   UNL     1      -2.074  12.692  19.555  0.00  0.00    +0.000 A 
ENDROOT
BRANCH   7  10
ATOM     10  C   UNL     1       1.435  13.606  20.194  0.00  0.00    +0.000 A 
ATOM     11  N   UNL     1       1.705  13.634  21.539  0.00  0.00    +0.000 NA
ATOM     12  N   UNL     1       2.936  14.110  21.665  0.00  0.00    +0.000 NA
ATOM     13  N   UNL     1       3.329  14.355  20.405  0.00  0.00    +0.000 N 
ATOM     14  C   UNL     1       4.624  14.899  20.104  0.00  0.00    +0.000 C 
ATOM     15  N   UNL     1       2.452  14.038  19.437  0.00  0.00    +0.000 NA
ENDBRANCH   7  10
BRANCH   2  16
ATOM     16  C   UNL     1      -5.489  11.383  18.553  0.00  0.00    +0.000 C 
ATOM     17  N   UNL     1      -6.015  11.418  17.292  0.00  0.00    +0.000 N 
ATOM     18  O   UNL     1      -6.199  11.114  19.513  0.00  0.00    +0.000 OA
ATOM     19  H   UNL     1      -5.473  11.571  16.451  0.00  0.00    +0.000 HD
ATOM     20  H   UNL     1      -7.008  11.256  17.185  0.00  0.00    +0.000 HD
ENDBRANCH   2  16
BRANCH   1  21
ATOM     21  N   UNL     1      -4.171  13.186  20.711  0.00  0.00    +0.000 N 
ATOM     22  H   UNL     1      -4.570  14.094  20.482  0.00  0.00    +0.000 HD
BRANCH  21  31
ATOM     23  C   UNL     1      -2.443  11.717  23.446  0.00  0.00    +0.000 C 
ATOM     24  C   UNL     1      -3.285  12.939  23.071  0.00  0.00    +0.000 C 
ATOM     25  C   UNL     1      -3.890  13.532  24.360  0.00  0.00    +0.000 C 
ATOM     26  C   UNL     1      -3.061  14.640  24.997  0.00  0.00    +0.000 C 
ATOM     27  N   UNL     1      -3.401  15.868  24.234  0.00  0.00    +0.000 NA
ATOM     28  C   UNL     1      -4.794  15.702  23.737  0.00  0.00    +0.000 C 
ATOM     29  C   UNL     1      -5.168  14.222  23.935  0.00  0.00    +0.000 C 
ATOM     30  C   UNL     1      -5.660  13.441  22.714  0.00  0.00    +0.000 C 
ATOM     31  C   UNL     1      -4.469  12.696  22.077  0.00  0.00    +0.000 C 
BRANCH  27  32
ATOM     32  S   UNL     1      -2.167  16.447  23.217  0.00  0.00    +0.000 S 
ATOM     33  C   UNL     1      -2.849  16.356  21.574  0.00  0.00    +0.000 C 
ATOM     34  O   UNL     1      -2.007  17.853  23.521  0.00  0.00    +0.000 OA
ATOM     35  O   UNL     1      -1.045  15.532  23.288  0.00  0.00    +0.000 OA
ENDBRANCH  27  32
ENDBRANCH  21  31
ENDBRANCH   1  21
TORSDOF 5
ENDMDL
MODEL 8
REMARK VINA RESULT:      -6.3      6.233      8.113
REMARK  Name = 
REMARK  8 active torsions:
REMARK  status: ('A' for Active; 'I' for Inactive)
REMARK    1  A    between atoms: C_1  and  C_2
REMARK    2  A    between atoms: N_5  and  S_6
REMARK    3  A    between atoms: S_6  and  C_7
REMARK    4  A    between atoms: C_13  and  N_14
REMARK    5  A    between atoms: N_14  and  C_15
REMARK    6  A    between atoms: C_16  and  C_17
REMARK    7  A    between atoms: C_24  and  C_25
REMARK    8  A    between atoms: N_28  and  C_29
REMARK                            x       y       z     vdW  Elec       q    Type
REMARK                         _______ _______ _______ _____ _____    ______ ____
ROOT
ATOM      1  C   UNL     1      -4.043  12.282  19.398  0.00  0.00    +0.000 A 
ATOM      2  C   UNL     1      -4.627  11.455  18.489  0.00  0.00    +0.000 A 
ATOM      3  C   UNL     1      -3.745  10.816  17.465  0.00  0.00    +0.000 A 
ATOM      4  N   UNL     1      -2.474  10.957  17.309  0.00  0.00    +0.000 NA
ATOM      5  N   UNL     1      -1.942  11.746  18.255  0.00  0.00    +0.000 N 
ATOM      6  C   UNL     1      -0.612  12.039  18.288  0.00  0.00    +0.000 A 
ATOM      7  C   UNL     1      -0.353  12.695  19.466  0.00  0.00    +0.000 A 
ATOM      8  C   UNL     1      -1.591  12.843  20.143  0.00  0.00    +0.000 A 
ATOM      9  C   UNL     1      -2.592  12.334  19.330  0.00  0.00    +0.000 A 
ENDROOT
BRANCH   7  10
ATOM     10  C   UNL     1       0.951  13.139  19.924  0.00  0.00    +0.000 A 
ATOM     11  N   UNL     1       1.395  12.823  21.184  0.00  0.00    +0.000 NA
ATOM     12  N   UNL     1       2.594  13.375  21.309  0.00  0.00    +0.000 NA
ATOM     13  N   UNL     1       2.797  14.000  20.138  0.00  0.00    +0.000 N 
ATOM     14  C   UNL     1       3.997  14.741  19.869  0.00  0.00    +0.000 C 
ATOM     15  N   UNL     1       1.824  13.870  19.219  0.00  0.00    +0.000 NA
ENDBRANCH   7  10
BRANCH   2  16
ATOM     16  C   UNL     1      -6.057  11.099  18.410  0.00  0.00    +0.000 C 
ATOM     17  N   UNL     1      -6.784  11.817  17.501  0.00  0.00    +0.000 N 
ATOM     18  O   UNL     1      -6.611  10.297  19.151  0.00  0.00    +0.000 OA
ATOM     19  H   UNL     1      -6.383  12.448  16.820  0.00  0.00    +0.000 HD
ATOM     20  H   UNL     1      -7.788  11.693  17.490  0.00  0.00    +0.000 HD
ENDBRANCH   2  16
BRANCH   1  21
ATOM     21  N   UNL     1      -4.672  13.029  20.411  0.00  0.00    +0.000 N 
ATOM     22  H   UNL     1      -5.043  13.921  20.091  0.00  0.00    +0.000 HD
BRANCH  21  31
ATOM     23  C   UNL     1      -2.935  12.091  23.365  0.00  0.00    +0.000 C 
ATOM     24  C   UNL     1      -3.870  13.168  22.809  0.00  0.00    +0.000 C 
ATOM     25  C   UNL     1      -4.582  13.858  23.991  0.00  0.00    +0.000 C 
ATOM     26  C   UNL     1      -3.886  15.113  24.505  0.00  0.00    +0.000 C 
ATOM     27  N   UNL     1      -4.304  16.196  23.578  0.00  0.00    +0.000 NA
ATOM     28  C   UNL     1      -5.653  15.834  23.064  0.00  0.00    +0.000 C 
ATOM     29  C   UNL     1      -5.898  14.362  23.441  0.00  0.00    +0.000 C 
ATOM     30  C   UNL     1      -6.264  13.390  22.316  0.00  0.00    +0.000 C 
ATOM     31  C   UNL     1      -4.982  12.689  21.819  0.00  0.00    +0.000 C 
BRANCH  27  32
ATOM     32  S   UNL     1      -3.086  16.758  22.534  0.00  0.00    +0.000 S 
ATOM     33  C   UNL     1      -1.569  16.122  23.217  0.00  0.00    +0.000 C 
ATOM     34  O   UNL     1      -3.284  16.085  21.268  0.00  0.00    +0.000 OA
ATOM     35  O   UNL     1      -3.042  18.205  22.615  0.00  0.00    +0.000 OA
ENDBRANCH  27  32
ENDBRANCH  21  31
ENDBRANCH   1  21
TORSDOF 5
ENDMDL
MODEL 9
REMARK VINA RESULT:      -6.3      4.070      8.465
REMARK  Name = 
REMARK  8 active torsions:
REMARK  status: ('A' for Active; 'I' for Inactive)
REMARK    1  A    between atoms: C_1  and  C_2
REMARK    2  A    between atoms: N_5  and  S_6
REMARK    3  A    between atoms: S_6  and  C_7
REMARK    4  A    between atoms: C_13  and  N_14
REMARK    5  A    between atoms: N_14  and  C_15
REMARK    6  A    between atoms: C_16  and  C_17
REMARK    7  A    between atoms: C_24  and  C_25
REMARK    8  A    between atoms: N_28  and  C_29
REMARK                            x       y       z     vdW  Elec       q    Type
REMARK                         _______ _______ _______ _____ _____    ______ ____
ROOT
ATOM      1  C   UNL     1       1.239  11.898  19.931  0.00  0.00    +0.000 A 
ATOM      2  C   UNL     1       1.039  10.682  19.354  0.00  0.00    +0.000 A 
ATOM      3  C   UNL     1       0.004   9.789  19.958  0.00  0.00    +0.000 A 
ATOM      4  N   UNL     1      -0.737  10.012  20.989  0.00  0.00    +0.000 NA
ATOM      5  N   UNL     1      -0.532  11.238  21.491  0.00  0.00    +0.000 N 
ATOM      6  C   UNL     1      -1.204  11.692  22.587  0.00  0.00    +0.000 A 
ATOM      7  C   UNL     1      -0.922  13.028  22.732  0.00  0.00    +0.000 A 
ATOM      8  C   UNL     1      -0.004  13.375  21.707  0.00  0.00    +0.000 A 
ATOM      9  C   UNL     1       0.310  12.225  21.000  0.00  0.00    +0.000 A 
ENDROOT
BRANCH   7  10
ATOM     10  C   UNL     1      -1.476  13.910  23.743  0.00  0.00    +0.000 A 
ATOM     11  N   UNL     1      -2.796  13.816  24.107  0.00  0.00    +0.000 NA
ATOM     12  N   UNL     1      -2.999  14.751  25.026  0.00  0.00    +0.000 NA
ATOM     13  N   UNL     1      -1.810  15.360  25.150  0.00  0.00    +0.000 N 
ATOM     14  C   UNL     1      -1.608  16.458  26.054  0.00  0.00    +0.000 C 
ATOM     15  N   UNL     1      -0.809  14.868  24.399  0.00  0.00    +0.000 NA
ENDBRANCH   7  10
BRANCH   2  16
ATOM     16  C   UNL     1       1.732  10.143  18.168  0.00  0.00    +0.000 C 
ATOM     17  N   UNL     1       1.488   8.824  17.903  0.00  0.00    +0.000 N 
ATOM     18  O   UNL     1       2.548  10.767  17.501  0.00  0.00    +0.000 OA
ATOM     19  H   UNL     1       0.785   8.268  18.373  0.00  0.00    +0.000 HD
ATOM     20  H   UNL     1       2.027   8.377  17.173  0.00  0.00    +0.000 HD
ENDBRANCH   2  16
BRANCH   1  21
ATOM     21  N   UNL     1       2.186  12.875  19.573  0.00  0.00    +0.000 N 
ATOM     22  H   UNL     1       3.108  12.718  19.977  0.00  0.00    +0.000 HD
BRANCH  21  31
ATOM     23  C   UNL     1      -0.090  15.474  18.742  0.00  0.00    +0.000 C 
ATOM     24  C   UNL     1       1.340  15.238  19.237  0.00  0.00    +0.000 C 
ATOM     25  C   UNL     1       2.180  16.494  18.926  0.00  0.00    +0.000 C 
ATOM     26  C   UNL     1       2.246  17.510  20.059  0.00  0.00    +0.000 C 
ATOM     27  N   UNL     1       3.293  16.997  20.980  0.00  0.00    +0.000 NA
ATOM     28  C   UNL     1       4.261  16.226  20.154  0.00  0.00    +0.000 C 
ATOM     29  C   UNL     1       3.606  16.008  18.779  0.00  0.00    +0.000 C 
ATOM     30  C   UNL     1       3.491  14.571  18.263  0.00  0.00    +0.000 C 
ATOM     31  C   UNL     1       2.099  14.014  18.629  0.00  0.00    +0.000 C 
BRANCH  27  32
ATOM     32  S   UNL     1       2.714  16.387  22.458  0.00  0.00    +0.000 S 
ATOM     33  C   UNL     1       3.685  17.210  23.704  0.00  0.00    +0.000 C 
ATOM     34  O   UNL     1       1.359  16.872  22.603  0.00  0.00    +0.000 OA
ATOM     35  O   UNL     1       3.014  14.970  22.519  0.00  0.00    +0.000 OA
ENDBRANCH  27  32
ENDBRANCH  21  31
ENDBRANCH   1  21
TORSDOF 5
ENDMDL
