MODEL 1
REMARK VINA RESULT:      -7.8      0.000      0.000
REMARK  Name = 
REMARK  5 active torsions:
REMARK  status: ('A' for Active; 'I' for Inactive)
REMARK    1  A    between atoms: C_2  and  C_13
REMARK    2  A    between atoms: N_3  and  C_4
REMARK    3  A    between atoms: C_4  and  C_5
REMARK    4  A    between atoms: C_5  and  O_6
REMARK    5  A    between atoms: C_15  and  C_16
REMARK                            x       y       z     vdW  Elec       q    Type
REMARK                         _______ _______ _______ _____ _____    ______ ____
ROOT
ATOM      1  O   UNL     1       3.887   5.353  17.340  0.00  0.00    +0.000 OA
ATOM      2  C   UNL     1       4.946   4.731  17.275  0.00  0.00    +0.000 C 
ATOM      3  N   UNL     1       5.394   3.945  18.308  0.00  0.00    +0.000 N 
ATOM      4  H   UNL     1       6.320   3.545  18.237  0.00  0.00    +0.000 HD
ENDROOT
BRANCH   2   5
ATOM      5  C   UNL     1       5.790   4.803  16.042  0.00  0.00    +0.000 A 
ATOM      6  C   UNL     1       5.362   4.027  14.944  0.00  0.00    +0.000 A 
ATOM      7  C   UNL     1       6.064   4.035  13.728  0.00  0.00    +0.000 A 
ATOM      8  C   UNL     1       7.199   4.847  13.617  0.00  0.00    +0.000 A 
ATOM      9  C   UNL     1       7.633   5.619  14.692  0.00  0.00    +0.000 A 
ATOM     10  C   UNL     1       6.940   5.596  15.904  0.00  0.00    +0.000 A 
ATOM     11 CL   UNL     1       7.595   6.601  17.144  0.00  0.00    +0.000 Cl
BRANCH   7  12
ATOM     12  C   UNL     1       5.663   3.243  12.576  0.00  0.00    +0.000 A 
ATOM     13  C   UNL     1       4.486   3.332  11.867  0.00  0.00    +0.000 A 
ATOM     14  N   UNL     1       4.584   2.386  10.881  0.00  0.00    +0.000 N 
ATOM     15  C   UNL     1       5.791   1.765  11.025  0.00  0.00    +0.000 A 
ATOM     16  N   UNL     1       6.462   2.255  12.040  0.00  0.00    +0.000 NA
ATOM     17  H   UNL     1       3.894   2.180  10.173  0.00  0.00    +0.000 HD
ENDBRANCH   7  12
ENDBRANCH   2   5
BRANCH   3  18
ATOM     18  C   UNL     1       4.733   3.865  19.603  0.00  0.00    +0.000 C 
BRANCH  18  19
ATOM     19  C   UNL     1       4.015   2.504  19.868  0.00  0.00    +0.000 C 
ATOM     20  C   UNL     1       2.996   2.624  21.023  0.00  0.00    +0.000 C 
ATOM     21  C   UNL     1       1.884   3.652  20.829  0.00  0.00    +0.000 C 
ATOM     22  C   UNL     1       0.653   3.148  20.082  0.00  0.00    +0.000 C 
ATOM     23  C   UNL     1       0.898   2.169  18.941  0.00  0.00    +0.000 C 
ATOM     24  C   UNL     1       2.100   2.506  18.065  0.00  0.00    +0.000 C 
ATOM     25  C   UNL     1       3.396   1.893  18.594  0.00  0.00    +0.000 C 
BRANCH  19  26
ATOM     26  O   UNL     1       4.991   1.537  20.317  0.00  0.00    +0.000 OA
ATOM     27  H   UNL     1       5.364   1.084  19.534  0.00  0.00    +0.000 HD
ENDBRANCH  19  26
ENDBRANCH  18  19
ENDBRANCH   3  18
TORSDOF 5
ENDMDL
MODEL 2
REMARK VINA RESULT:      -7.7      5.329      6.821
REMARK  Name = 
REMARK  5 active torsions:
REMARK  status: ('A' for Active; 'I' for Inactive)
REMARK    1  A    between atoms: C_2  and  C_13
REMARK    2  A    between atoms: N_3  and  C_4
REMARK    3  A    between atoms: C_4  and  C_5
REMARK    4  A    between atoms: C_5  and  O_6
REMARK    5  A    between atoms: C_15  and  C_16
REMARK                            x       y       z     vdW  Elec       q    Type
REMARK                         _______ _______ _______ _____ _____    ______ ____
ROOT
ATOM      1  O   UNL     1       1.795   6.531  20.710  0.00  0.00    +0.000 OA
ATOM      2  C   UNL     1       2.136   6.666  19.537  0.00  0.00    +0.000 C 
ATOM      3  N   UNL     1       2.068   7.877  18.892  0.00  0.00    +0.000 N 
ATOM      4  H   UNL     1       2.261   7.901  17.900  0.00  0.00    +0.000 HD
ENDROOT
BRANCH   2   5
ATOM      5  C   UNL     1       2.657   5.497  18.762  0.00  0.00    +0.000 A 
ATOM      6  C   UNL     1       3.761   5.745  17.919  0.00  0.00    +0.000 A 
ATOM      7  C   UNL     1       4.347   4.717  17.163  0.00  0.00    +0.000 A 
ATOM      8  C   UNL     1       3.821   3.424  17.273  0.00  0.00    +0.000 A 
ATOM      9  C   UNL     1       2.733   3.163  18.101  0.00  0.00    +0.000 A 
ATOM     10  C   UNL     1       2.144   4.192  18.840  0.00  0.00    +0.000 A 
ATOM     11 CL   UNL     1       0.805   3.719  19.820  0.00  0.00    +0.000 Cl
BRANCH   7  12
ATOM     12  C   UNL     1       5.478   4.933  16.274  0.00  0.00    +0.000 A 
ATOM     13  C   UNL     1       6.618   5.660  16.533  0.00  0.00    +0.000 A 
ATOM     14  N   UNL     1       7.376   5.560  15.395  0.00  0.00    +0.000 N 
ATOM     15  C   UNL     1       6.682   4.796  14.503  0.00  0.00    +0.000 A 
ATOM     16  N   UNL     1       5.532   4.407  15.001  0.00  0.00    +0.000 NA
ATOM     17  H   UNL     1       8.284   5.973  15.239  0.00  0.00    +0.000 HD
ENDBRANCH   7  12
ENDBRANCH   2   5
BRANCH   3  18
ATOM     18  C   UNL     1       1.486   9.072  19.486  0.00  0.00    +0.000 C 
BRANCH  18  19
ATOM     19  C   UNL     1       1.181  10.208  18.459  0.00  0.00    +0.000 C 
ATOM     20  C   UNL     1      -0.277  10.129  17.955  0.00  0.00    +0.000 C 
ATOM     21  C   UNL     1      -1.362  10.230  19.025  0.00  0.00    +0.000 C 
ATOM     22  C   UNL     1      -1.792  11.648  19.387  0.00  0.00    +0.000 C 
ATOM     23  C   UNL     1      -0.700  12.710  19.404  0.00  0.00    +0.000 C 
ATOM     24  C   UNL     1       0.619  12.252  20.018  0.00  0.00    +0.000 C 
ATOM     25  C   UNL     1       1.548  11.610  18.988  0.00  0.00    +0.000 C 
BRANCH  19  26
ATOM     26  O   UNL     1       2.002  10.016  17.287  0.00  0.00    +0.000 OA
ATOM     27  H   UNL     1       2.835   9.578  17.559  0.00  0.00    +0.000 HD
ENDBRANCH  19  26
ENDBRANCH  18  19
ENDBRANCH   3  18
TORSDOF 5
ENDMDL
MODEL 3
REMARK VINA RESULT:      -7.5      1.884      2.702
REMARK  Name = 
REMARK  5 active torsions:
REMARK  status: ('A' for Active; 'I' for Inactive)
REMARK    1  A    between atoms: C_2  and  C_13
REMARK    2  A    between atoms: N_3  and  C_4
REMARK    3  A    between atoms: C_4  and  C_5
REMARK    4  A    between atoms: C_5  and  O_6
REMARK    5  A    between atoms: C_15  and  C_16
REMARK                            x       y       z     vdW  Elec       q    Type
REMARK                         _______ _______ _______ _____ _____    ______ ____
ROOT
ATOM      1  O   UNL     1       5.083   2.992  19.502  0.00  0.00    +0.000 OA
ATOM      2  C   UNL     1       4.821   3.280  18.336  0.00  0.00    +0.000 C 
ATOM      3  N   UNL     1       3.684   2.829  17.711  0.00  0.00    +0.000 N 
ATOM      4  H   UNL     1       3.578   3.011  16.722  0.00  0.00    +0.000 HD
ENDROOT
BRANCH   2   5
ATOM      5  C   UNL     1       5.744   4.155  17.548  0.00  0.00    +0.000 A 
ATOM      6  C   UNL     1       5.806   3.911  16.159  0.00  0.00    +0.000 A 
ATOM      7  C   UNL     1       6.619   4.686  15.318  0.00  0.00    +0.000 A 
ATOM      8  C   UNL     1       7.365   5.728  15.883  0.00  0.00    +0.000 A 
ATOM      9  C   UNL     1       7.313   5.982  17.252  0.00  0.00    +0.000 A 
ATOM     10  C   UNL     1       6.514   5.198  18.086  0.00  0.00    +0.000 A 
ATOM     11 CL   UNL     1       6.552   5.629  19.757  0.00  0.00    +0.000 Cl
BRANCH   7  12
ATOM     12  C   UNL     1       6.719   4.460  13.884  0.00  0.00    +0.000 A 
ATOM     13  C   UNL     1       6.031   3.535  13.132  0.00  0.00    +0.000 A 
ATOM     14  N   UNL     1       6.468   3.716  11.847  0.00  0.00    +0.000 N 
ATOM     15  C   UNL     1       7.390   4.722  11.862  0.00  0.00    +0.000 A 
ATOM     16  N   UNL     1       7.567   5.188  13.076  0.00  0.00    +0.000 NA
ATOM     17  H   UNL     1       6.166   3.204  11.030  0.00  0.00    +0.000 HD
ENDBRANCH   7  12
ENDBRANCH   2   5
BRANCH   3  18
ATOM     18  C   UNL     1       2.753   1.889  18.318  0.00  0.00    +0.000 C 
BRANCH  18  19
ATOM     19  C   UNL     1       1.435   2.544  18.839  0.00  0.00    +0.000 C 
ATOM     20  C   UNL     1       1.298   2.383  20.369  0.00  0.00    +0.000 C 
ATOM     21  C   UNL     1       2.424   2.983  21.209  0.00  0.00    +0.000 C 
ATOM     22  C   UNL     1       2.257   4.457  21.565  0.00  0.00    +0.000 C 
ATOM     23  C   UNL     1       1.633   5.352  20.503  0.00  0.00    +0.000 C 
ATOM     24  C   UNL     1       2.112   5.075  19.081  0.00  0.00    +0.000 C 
ATOM     25  C   UNL     1       1.270   4.008  18.381  0.00  0.00    +0.000 C 
BRANCH  19  26
ATOM     26  O   UNL     1       0.305   1.840  18.278  0.00  0.00    +0.000 OA
ATOM     27  H   UNL     1      -0.033   1.211  18.947  0.00  0.00    +0.000 HD
ENDBRANCH  19  26
ENDBRANCH  18  19
ENDBRANCH   3  18
TORSDOF 5
ENDMDL
MODEL 4
REMARK VINA RESULT:      -7.4      1.896      2.914
REMARK  Name = 
REMARK  5 active torsions:
REMARK  status: ('A' for Active; 'I' for Inactive)
REMARK    1  A    between atoms: C_2  and  C_13
REMARK    2  A    between atoms: N_3  and  C_4
REMARK    3  A    between atoms: C_4  and  C_5
REMARK    4  A    between atoms: C_5  and  O_6
REMARK    5  A    between atoms: C_15  and  C_16
REMARK                            x       y       z     vdW  Elec       q    Type
REMARK                         _______ _______ _______ _____ _____    ______ ____
ROOT
ATOM      1  O   UNL     1       3.166   6.200  18.018  0.00  0.00    +0.000 OA
ATOM      2  C   UNL     1       3.579   5.142  17.550  0.00  0.00    +0.000 C 
ATOM      3  N   UNL     1       2.764   4.047  17.393  0.00  0.00    +0.000 N 
ATOM      4  H   UNL     1       3.186   3.175  17.103  0.00  0.00    +0.000 HD
ENDROOT
BRANCH   2   5
ATOM      5  C   UNL     1       5.005   5.011  17.118  0.00  0.00    +0.000 A 
ATOM      6  C   UNL     1       5.228   4.845  15.734  0.00  0.00    +0.000 A 
ATOM      7  C   UNL     1       6.527   4.736  15.212  0.00  0.00    +0.000 A 
ATOM      8  C   UNL     1       7.611   4.812  16.096  0.00  0.00    +0.000 A 
ATOM      9  C   UNL     1       7.407   4.977  17.464  0.00  0.00    +0.000 A 
ATOM     10  C   UNL     1       6.112   5.069  17.979  0.00  0.00    +0.000 A 
ATOM     11 CL   UNL     1       6.015   5.270  19.691  0.00  0.00    +0.000 Cl
BRANCH   7  12
ATOM     12  C   UNL     1       6.799   4.554  13.795  0.00  0.00    +0.000 A 
ATOM     13  C   UNL     1       6.261   3.605  12.955  0.00  0.00    +0.000 A 
ATOM     14  N   UNL     1       6.823   3.847  11.729  0.00  0.00    +0.000 N 
ATOM     15  C   UNL     1       7.669   4.909  11.866  0.00  0.00    +0.000 A 
ATOM     16  N   UNL     1       7.681   5.354  13.099  0.00  0.00    +0.000 NA
ATOM     17  H   UNL     1       6.647   3.337  10.875  0.00  0.00    +0.000 HD
ENDBRANCH   7  12
ENDBRANCH   2   5
BRANCH   3  18
ATOM     18  C   UNL     1       1.388   3.995  17.865  0.00  0.00    +0.000 C 
BRANCH  18  19
ATOM     19  C   UNL     1       1.097   2.816  18.847  0.00  0.00    +0.000 C 
ATOM     20  C   UNL     1       2.258   1.797  18.858  0.00  0.00    +0.000 C 
ATOM     21  C   UNL     1       3.626   2.347  19.259  0.00  0.00    +0.000 C 
ATOM     22  C   UNL     1       3.908   2.361  20.759  0.00  0.00    +0.000 C 
ATOM     23  C   UNL     1       2.735   2.688  21.673  0.00  0.00    +0.000 C 
ATOM     24  C   UNL     1       1.832   3.809  21.169  0.00  0.00    +0.000 C 
ATOM     25  C   UNL     1       0.714   3.293  20.262  0.00  0.00    +0.000 C 
BRANCH  19  26
ATOM     26  O   UNL     1      -0.052   2.080  18.370  0.00  0.00    +0.000 OA
ATOM     27  H   UNL     1      -0.839   2.659  18.430  0.00  0.00    +0.000 HD
ENDBRANCH  19  26
ENDBRANCH  18  19
ENDBRANCH   3  18
TORSDOF 5
ENDMDL
MODEL 5
REMARK VINA RESULT:      -7.3      6.704      8.512
REMARK  Name = 
REMARK  5 active torsions:
REMARK  status: ('A' for Active; 'I' for Inactive)
REMARK    1  A    between atoms: C_2  and  C_13
REMARK    2  A    between atoms: N_3  and  C_4
REMARK    3  A    between atoms: C_4  and  C_5
REMARK    4  A    between atoms: C_5  and  O_6
REMARK    5  A    between atoms: C_15  and  C_16
REMARK                            x       y       z     vdW  Elec       q    Type
REMARK                         _______ _______ _______ _____ _____    ______ ____
ROOT
ATOM      1  O   UNL     1       2.343   9.173  17.433  0.00  0.00    +0.000 OA
ATOM      2  C   UNL     1       1.647   8.874  18.401  0.00  0.00    +0.000 C 
ATOM      3  N   UNL     1       1.906   7.765  19.170  0.00  0.00    +0.000 N 
ATOM      4  H   UNL     1       1.237   7.512  19.885  0.00  0.00    +0.000 HD
ENDROOT
BRANCH   2   5
ATOM      5  C   UNL     1       0.481   9.727  18.787  0.00  0.00    +0.000 A 
ATOM      6  C   UNL     1      -0.536   9.875  17.820  0.00  0.00    +0.000 A 
ATOM      7  C   UNL     1      -1.688  10.634  18.083  0.00  0.00    +0.000 A 
ATOM      8  C   UNL     1      -1.820  11.236  19.340  0.00  0.00    +0.000 A 
ATOM      9  C   UNL     1      -0.825  11.098  20.305  0.00  0.00    +0.000 A 
ATOM     10  C   UNL     1       0.325  10.354  20.034  0.00  0.00    +0.000 A 
ATOM     11 CL   UNL     1       1.469  10.273  21.324  0.00  0.00    +0.000 Cl
BRANCH   7  12
ATOM     12  C   UNL     1      -2.753  10.820  17.109  0.00  0.00    +0.000 A 
ATOM     13  C   UNL     1      -4.044  11.232  17.350  0.00  0.00    +0.000 A 
ATOM     14  N   UNL     1      -4.652  11.254  16.122  0.00  0.00    +0.000 N 
ATOM     15  C   UNL     1      -3.728  10.859  15.198  0.00  0.00    +0.000 A 
ATOM     16  N   UNL     1      -2.576  10.586  15.762  0.00  0.00    +0.000 NA
ATOM     17  H   UNL     1      -5.608  11.515  15.928  0.00  0.00    +0.000 HD
ENDBRANCH   7  12
ENDBRANCH   2   5
BRANCH   3  18
ATOM     18  C   UNL     1       2.938   6.789  18.851  0.00  0.00    +0.000 C 
BRANCH  18  19
ATOM     19  C   UNL     1       2.818   5.452  19.650  0.00  0.00    +0.000 C 
ATOM     20  C   UNL     1       1.646   4.592  19.129  0.00  0.00    +0.000 C 
ATOM     21  C   UNL     1       1.711   4.195  17.656  0.00  0.00    +0.000 C 
ATOM     22  C   UNL     1       2.496   2.920  17.359  0.00  0.00    +0.000 C 
ATOM     23  C   UNL     1       3.741   2.672  18.199  0.00  0.00    +0.000 C 
ATOM     24  C   UNL     1       4.588   3.914  18.459  0.00  0.00    +0.000 C 
ATOM     25  C   UNL     1       4.145   4.669  19.712  0.00  0.00    +0.000 C 
BRANCH  19  26
ATOM     26  O   UNL     1       2.490   5.754  21.024  0.00  0.00    +0.000 OA
ATOM     27  H   UNL     1       1.517   5.713  21.128  0.00  0.00    +0.000 HD
ENDBRANCH  19  26
ENDBRANCH  18  19
ENDBRANCH   3  18
TORSDOF 5
ENDMDL
MODEL 6
REMARK VINA RESULT:      -7.3      3.762      7.313
REMARK  Name = 
REMARK  5 active torsions:
REMARK  status: ('A' for Active; 'I' for Inactive)
REMARK    1  A    between atoms: C_2  and  C_13
REMARK    2  A    between atoms: N_3  and  C_4
REMARK    3  A    between atoms: C_4  and  C_5
REMARK    4  A    between atoms: C_5  and  O_6
REMARK    5  A    between atoms: C_15  and  C_16
REMARK                            x       y       z     vdW  Elec       q    Type
REMARK                         _______ _______ _______ _____ _____    ______ ____
ROOT
ATOM      1  O   UNL     1       4.457   2.800  18.778  0.00  0.00    +0.000 OA
ATOM      2  C   UNL     1       3.943   3.815  18.313  0.00  0.00    +0.000 C 
ATOM      3  N   UNL     1       4.087   4.164  16.992  0.00  0.00    +0.000 N 
ATOM      4  H   UNL     1       3.732   5.063  16.694  0.00  0.00    +0.000 HD
ENDROOT
BRANCH   2   5
ATOM      5  C   UNL     1       3.120   4.712  19.180  0.00  0.00    +0.000 A 
ATOM      6  C   UNL     1       2.900   6.021  18.700  0.00  0.00    +0.000 A 
ATOM      7  C   UNL     1       2.123   6.942  19.420  0.00  0.00    +0.000 A 
ATOM      8  C   UNL     1       1.549   6.531  20.629  0.00  0.00    +0.000 A 
ATOM      9  C   UNL     1       1.756   5.243  21.116  0.00  0.00    +0.000 A 
ATOM     10  C   UNL     1       2.542   4.335  20.404  0.00  0.00    +0.000 A 
ATOM     11 CL   UNL     1       2.709   2.779  21.130  0.00  0.00    +0.000 Cl
BRANCH   7  12
ATOM     12  C   UNL     1       1.881   8.302  18.964  0.00  0.00    +0.000 A 
ATOM     13  C   UNL     1       2.286   8.872  17.778  0.00  0.00    +0.000 A 
ATOM     14  N   UNL     1       1.815  10.158  17.816  0.00  0.00    +0.000 N 
ATOM     15  C   UNL     1       1.158  10.322  19.000  0.00  0.00    +0.000 A 
ATOM     16  N   UNL     1       1.184   9.224  19.716  0.00  0.00    +0.000 NA
ATOM     17  H   UNL     1       1.929  10.862  17.100  0.00  0.00    +0.000 HD
ENDBRANCH   7  12
ENDBRANCH   2   5
BRANCH   3  18
ATOM     18  C   UNL     1       4.944   3.446  16.059  0.00  0.00    +0.000 C 
BRANCH  18  19
ATOM     19  C   UNL     1       6.140   4.289  15.515  0.00  0.00    +0.000 C 
ATOM     20  C   UNL     1       5.685   5.709  15.110  0.00  0.00    +0.000 C 
ATOM     21  C   UNL     1       5.051   6.549  16.217  0.00  0.00    +0.000 C 
ATOM     22  C   UNL     1       6.032   7.341  17.077  0.00  0.00    +0.000 C 
ATOM     23  C   UNL     1       7.362   6.670  17.392  0.00  0.00    +0.000 C 
ATOM     24  C   UNL     1       7.260   5.184  17.720  0.00  0.00    +0.000 C 
ATOM     25  C   UNL     1       7.348   4.305  16.473  0.00  0.00    +0.000 C 
BRANCH  19  26
ATOM     26  O   UNL     1       6.627   3.682  14.298  0.00  0.00    +0.000 OA
ATOM     27  H   UNL     1       7.435   4.157  14.014  0.00  0.00    +0.000 HD
ENDBRANCH  19  26
ENDBRANCH  18  19
ENDBRANCH   3  18
TORSDOF 5
ENDMDL
MODEL 7
REMARK VINA RESULT:      -7.2      5.288      6.896
REMARK  Name = 
REMARK  5 active torsions:
REMARK  status: ('A' for Active; 'I' for Inactive)
REMARK    1  A    between atoms: C_2  and  C_13
REMARK    2  A    between atoms: N_3  and  C_4
REMARK    3  A    between atoms: C_4  and  C_5
REMARK    4  A    between atoms: C_5  and  O_6
REMARK    5  A    between atoms: C_15  and  C_16
REMARK                            x       y       z     vdW  Elec       q    Type
REMARK                         _______ _______ _______ _____ _____    ______ ____
ROOT
ATOM      1  O   UNL     1       1.725   8.652  17.292  0.00  0.00    +0.000 OA
ATOM      2  C   UNL     1       2.139   8.262  18.382  0.00  0.00    +0.000 C 
ATOM      3  N   UNL     1       1.932   8.976  19.537  0.00  0.00    +0.000 N 
ATOM      4  H   UNL     1       2.387   8.659  20.383  0.00  0.00    +0.000 HD
ENDROOT
BRANCH   2   5
ATOM      5  C   UNL     1       2.884   6.970  18.491  0.00  0.00    +0.000 A 
ATOM      6  C   UNL     1       3.885   6.740  17.523  0.00  0.00    +0.000 A 
ATOM      7  C   UNL     1       4.663   5.571  17.542  0.00  0.00    +0.000 A 
ATOM      8  C   UNL     1       4.438   4.635  18.559  0.00  0.00    +0.000 A 
ATOM      9  C   UNL     1       3.455   4.848  19.521  0.00  0.00    +0.000 A 
ATOM     10  C   UNL     1       2.673   6.005  19.489  0.00  0.00    +0.000 A 
ATOM     11 CL   UNL     1       1.495   6.132  20.744  0.00  0.00    +0.000 Cl
BRANCH   7  12
ATOM     12  C   UNL     1       5.697   5.292  16.558  0.00  0.00    +0.000 A 
ATOM     13  C   UNL     1       7.013   4.965  16.795  0.00  0.00    +0.000 A 
ATOM     14  N   UNL     1       7.572   4.795  15.556  0.00  0.00    +0.000 N 
ATOM     15  C   UNL     1       6.598   5.023  14.629  0.00  0.00    +0.000 A 
ATOM     16  N   UNL     1       5.458   5.329  15.200  0.00  0.00    +0.000 NA
ATOM     17  H   UNL     1       8.531   4.544  15.358  0.00  0.00    +0.000 HD
ENDBRANCH   7  12
ENDBRANCH   2   5
BRANCH   3  18
ATOM     18  C   UNL     1       1.318  10.296  19.567  0.00  0.00    +0.000 C 
BRANCH  18  19
ATOM     19  C   UNL     1      -0.214  10.279  19.869  0.00  0.00    +0.000 C 
ATOM     20  C   UNL     1      -0.577   9.146  20.854  0.00  0.00    +0.000 C 
ATOM     21  C   UNL     1       0.116   9.194  22.214  0.00  0.00    +0.000 C 
ATOM     22  C   UNL     1      -0.581  10.045  23.271  0.00  0.00    +0.000 C 
ATOM     23  C   UNL     1      -1.249  11.326  22.788  0.00  0.00    +0.000 C 
ATOM     24  C   UNL     1      -0.448  12.104  21.749  0.00  0.00    +0.000 C 
ATOM     25  C   UNL     1      -0.753  11.652  20.321  0.00  0.00    +0.000 C 
BRANCH  19  26
ATOM     26  O   UNL     1      -0.929   9.971  18.651  0.00  0.00    +0.000 OA
ATOM     27  H   UNL     1      -1.457  10.755  18.394  0.00  0.00    +0.000 HD
ENDBRANCH  19  26
ENDBRANCH  18  19
ENDBRANCH   3  18
TORSDOF 5
ENDMDL
MODEL 8
REMARK VINA RESULT:      -7.2      6.066      8.190
REMARK  Name = 
REMARK  5 active torsions:
REMARK  status: ('A' for Active; 'I' for Inactive)
REMARK    1  A    between atoms: C_2  and  C_13
REMARK    2  A    between atoms: N_3  and  C_4
REMARK    3  A    between atoms: C_4  and  C_5
REMARK    4  A    between atoms: C_5  and  O_6
REMARK    5  A    between atoms: C_15  and  C_16
REMARK                            x       y       z     vdW  Elec       q    Type
REMARK                         _______ _______ _______ _____ _____    ______ ____
ROOT
ATOM      1  O   UNL     1       2.808   7.702  18.957  0.00  0.00    +0.000 OA
ATOM      2  C   UNL     1       1.971   7.662  19.856  0.00  0.00    +0.000 C 
ATOM      3  N   UNL     1       1.853   6.580  20.695  0.00  0.00    +0.000 N 
ATOM      4  H   UNL     1       1.078   6.561  21.344  0.00  0.00    +0.000 HD
ENDROOT
BRANCH   2   5
ATOM      5  C   UNL     1       1.044   8.815  20.078  0.00  0.00    +0.000 A 
ATOM      6  C   UNL     1       0.227   9.182  18.988  0.00  0.00    +0.000 A 
ATOM      7  C   UNL     1      -0.697  10.234  19.091  0.00  0.00    +0.000 A 
ATOM      8  C   UNL     1      -0.808  10.910  20.312  0.00  0.00    +0.000 A 
ATOM      9  C   UNL     1      -0.009  10.558  21.397  0.00  0.00    +0.000 A 
ATOM     10  C   UNL     1       0.919   9.521  21.286  0.00  0.00    +0.000 A 
ATOM     11 CL   UNL     1       1.838   9.200  22.711  0.00  0.00    +0.000 Cl
BRANCH   7  12
ATOM     12  C   UNL     1      -1.550  10.650  17.988  0.00  0.00    +0.000 A 
ATOM     13  C   UNL     1      -2.222  11.844  17.854  0.00  0.00    +0.000 A 
ATOM     14  N   UNL     1      -2.876  11.758  16.653  0.00  0.00    +0.000 N 
ATOM     15  C   UNL     1      -2.588  10.539  16.113  0.00  0.00    +0.000 A 
ATOM     16  N   UNL     1      -1.795   9.846  16.895  0.00  0.00    +0.000 NA
ATOM     17  H   UNL     1      -3.465  12.466  16.237  0.00  0.00    +0.000 HD
ENDBRANCH   7  12
ENDBRANCH   2   5
BRANCH   3  18
ATOM     18  C   UNL     1       2.612   5.349  20.530  0.00  0.00    +0.000 C 
BRANCH  18  19
ATOM     19  C   UNL     1       1.795   4.176  19.903  0.00  0.00    +0.000 C 
ATOM     20  C   UNL     1       1.648   4.351  18.375  0.00  0.00    +0.000 C 
ATOM     21  C   UNL     1       2.951   4.424  17.582  0.00  0.00    +0.000 C 
ATOM     22  C   UNL     1       3.531   3.078  17.155  0.00  0.00    +0.000 C 
ATOM     23  C   UNL     1       3.383   1.926  18.140  0.00  0.00    +0.000 C 
ATOM     24  C   UNL     1       3.619   2.306  19.598  0.00  0.00    +0.000 C 
ATOM     25  C   UNL     1       2.344   2.787  20.289  0.00  0.00    +0.000 C 
BRANCH  19  26
ATOM     26  O   UNL     1       0.448   4.211  20.423  0.00  0.00    +0.000 OA
ATOM     27  H   UNL     1      -0.081   3.525  19.966  0.00  0.00    +0.000 HD
ENDBRANCH  19  26
ENDBRANCH  18  19
ENDBRANCH   3  18
TORSDOF 5
ENDMDL
MODEL 9
REMARK VINA RESULT:      -7.0      5.267      8.258
REMARK  Name = 
REMARK  5 active torsions:
REMARK  status: ('A' for Active; 'I' for Inactive)
REMARK    1  A    between atoms: C_2  and  C_13
REMARK    2  A    between atoms: N_3  and  C_4
REMARK    3  A    between atoms: C_4  and  C_5
REMARK    4  A    between atoms: C_5  and  O_6
REMARK    5  A    between atoms: C_15  and  C_16
REMARK                            x       y       z     vdW  Elec       q    Type
REMARK                         _______ _______ _______ _____ _____    ______ ____
ROOT
ATOM      1  O   UNL     1       1.948   5.719  20.837  0.00  0.00    +0.000 OA
ATOM      2  C   UNL     1       2.535   6.475  20.066  0.00  0.00    +0.000 C 
ATOM      3  N   UNL     1       3.754   6.156  19.518  0.00  0.00    +0.000 N 
ATOM      4  H   UNL     1       4.235   6.862  18.978  0.00  0.00    +0.000 HD
ENDROOT
BRANCH   2   5
ATOM      5  C   UNL     1       1.927   7.787  19.685  0.00  0.00    +0.000 A 
ATOM      6  C   UNL     1       1.142   8.425  20.669  0.00  0.00    +0.000 A 
ATOM      7  C   UNL     1       0.543   9.671  20.430  0.00  0.00    +0.000 A 
ATOM      8  C   UNL     1       0.751  10.286  19.189  0.00  0.00    +0.000 A 
ATOM      9  C   UNL     1       1.524   9.670  18.208  0.00  0.00    +0.000 A 
ATOM     10  C   UNL     1       2.106   8.423  18.446  0.00  0.00    +0.000 A 
ATOM     11 CL   UNL     1       3.034   7.784  17.139  0.00  0.00    +0.000 Cl
BRANCH   7  12
ATOM     12  C   UNL     1      -0.282  10.356  21.413  0.00  0.00    +0.000 A 
ATOM     13  C   UNL     1      -0.513   9.982  22.718  0.00  0.00    +0.000 A 
ATOM     14  N   UNL     1      -1.344  10.945  23.229  0.00  0.00    +0.000 N 
ATOM     15  C   UNL     1      -1.587  11.848  22.236  0.00  0.00    +0.000 A 
ATOM     16  N   UNL     1      -0.965  11.519  21.128  0.00  0.00    +0.000 NA
ATOM     17  H   UNL     1      -1.712  10.985  24.168  0.00  0.00    +0.000 HD
ENDBRANCH   7  12
ENDBRANCH   2   5
BRANCH   3  18
ATOM     18  C   UNL     1       4.511   4.966  19.879  0.00  0.00    +0.000 C 
BRANCH  18  19
ATOM     19  C   UNL     1       4.497   3.847  18.790  0.00  0.00    +0.000 C 
ATOM     20  C   UNL     1       4.113   2.480  19.397  0.00  0.00    +0.000 C 
ATOM     21  C   UNL     1       2.750   2.412  20.083  0.00  0.00    +0.000 C 
ATOM     22  C   UNL     1       1.573   2.093  19.165  0.00  0.00    +0.000 C 
ATOM     23  C   UNL     1       1.615   2.692  17.766  0.00  0.00    +0.000 C 
ATOM     24  C   UNL     1       2.116   4.132  17.708  0.00  0.00    +0.000 C 
ATOM     25  C   UNL     1       3.636   4.214  17.564  0.00  0.00    +0.000 C 
BRANCH  19  26
ATOM     26  O   UNL     1       5.836   3.675  18.276  0.00  0.00    +0.000 OA
ATOM     27  H   UNL     1       6.362   3.179  18.937  0.00  0.00    +0.000 HD
ENDBRANCH  19  26
ENDBRANCH  18  19
ENDBRANCH   3  18
TORSDOF 5
ENDMDL
