MODEL 1
REMARK VINA RESULT:      -7.5      0.000      0.000
REMARK  Name = 
REMARK  11 active torsions:
REMARK  status: ('A' for Active; 'I' for Inactive)
REMARK    1  A    between atoms: C_1  and  C_2
REMARK    2  A    between atoms: C_2  and  C_3
REMARK    3  A    between atoms: C_2  and  N_4
REMARK    4  A    between atoms: C_7  and  N_8
REMARK    5  A    between atoms: N_11  and  C_12
REMARK    6  A    between atoms: C_12  and  C_13
REMARK    7  A    between atoms: C_13  and  C_14
REMARK    8  A    between atoms: C_14  and  C_15
REMARK    9  A    between atoms: C_21  and  C_22
REMARK   10  A    between atoms: C_22  and  C_23
REMARK   11  A    between atoms: C_23  and  O_24
REMARK                            x       y       z     vdW  Elec       q    Type
REMARK                         _______ _______ _______ _____ _____    ______ ____
ROOT
ATOM      1  N   UNL     1       4.662   5.268  18.197  0.00  0.00    +0.000 NA
ATOM      2  C   UNL     1       5.759   5.670  19.103  0.00  0.00    +0.000 C 
ATOM      3  C   UNL     1       7.136   5.950  18.438  0.00  0.00    +0.000 C 
ATOM      4  N   UNL     1       7.139   6.632  17.132  0.00  0.00    +0.000 NA
ATOM      5  C   UNL     1       5.971   6.275  16.320  0.00  0.00    +0.000 C 
ATOM      6  C   UNL     1       4.604   6.181  17.038  0.00  0.00    +0.000 C 
ENDROOT
BRANCH   1  10
ATOM      7  N   UNL     1       2.322   2.331  19.496  0.00  0.00    +0.000 NA
ATOM      8  C   UNL     1       2.074   2.963  18.187  0.00  0.00    +0.000 C 
ATOM      9  C   UNL     1       3.280   3.199  17.280  0.00  0.00    +0.000 C 
ATOM     10  C   UNL     1       4.517   3.799  17.976  0.00  0.00    +0.000 C 
ATOM     11  C   UNL     1       4.810   2.854  19.152  0.00  0.00    +0.000 C 
ATOM     12  C   UNL     1       3.625   2.651  20.097  0.00  0.00    +0.000 C 
BRANCH   7  14
ATOM     13  C   UNL     1       1.544   2.360  21.906  0.00  0.00    +0.000 C 
ATOM     14  C   UNL     1       1.189   2.629  20.435  0.00  0.00    +0.000 C 
ATOM     15  C   UNL     1       0.639   4.062  20.339  0.00  0.00    +0.000 C 
ENDBRANCH   7  14
ENDBRANCH   1  10
BRANCH   4  16
ATOM     16  C   UNL     1       7.373   8.071  17.154  0.00  0.00    +0.000 C 
BRANCH  16  17
ATOM     17  C   UNL     1       8.388   8.535  18.193  0.00  0.00    +0.000 C 
BRANCH  17  18
ATOM     18  C   UNL     1       8.635  10.044  18.177  0.00  0.00    +0.000 C 
BRANCH  18  19
ATOM     19  C   UNL     1       9.735  10.414  19.167  0.00  0.00    +0.000 C 
ATOM     20  C   UNL     1      10.759  11.381  18.587  0.00  0.00    +0.000 C 
ATOM     21  C   UNL     1      11.465  11.923  19.822  0.00  0.00    +0.000 C 
ATOM     22  C   UNL     1      10.418  11.924  20.936  0.00  0.00    +0.000 C 
ATOM     23  C   UNL     1       9.217  11.161  20.395  0.00  0.00    +0.000 C 
ENDBRANCH  18  19
ENDBRANCH  17  18
ENDBRANCH  16  17
ENDBRANCH   4  16
BRANCH   6  24
ATOM     24  C   UNL     1       4.090   7.603  17.409  0.00  0.00    +0.000 C 
BRANCH  24  25
ATOM     25  C   UNL     1       2.651   7.643  17.908  0.00  0.00    +0.000 C 
BRANCH  25  26
ATOM     26  O   UNL     1       2.566   7.205  19.255  0.00  0.00    +0.000 OA
ATOM     27  H   UNL     1       2.839   6.263  19.249  0.00  0.00    +0.000 HD
ENDBRANCH  25  26
ENDBRANCH  24  25
ENDBRANCH   6  24
TORSDOF 9
ENDMDL
MODEL 2
REMARK VINA RESULT:      -7.4      3.355      6.675
REMARK  Name = 
REMARK  11 active torsions:
REMARK  status: ('A' for Active; 'I' for Inactive)
REMARK    1  A    between atoms: C_1  and  C_2
REMARK    2  A    between atoms: C_2  and  C_3
REMARK    3  A    between atoms: C_2  and  N_4
REMARK    4  A    between atoms: C_7  and  N_8
REMARK    5  A    between atoms: N_11  and  C_12
REMARK    6  A    between atoms: C_12  and  C_13
REMARK    7  A    between atoms: C_13  and  C_14
REMARK    8  A    between atoms: C_14  and  C_15
REMARK    9  A    between atoms: C_21  and  C_22
REMARK   10  A    between atoms: C_22  and  C_23
REMARK   11  A    between atoms: C_23  and  O_24
REMARK                            x       y       z     vdW  Elec       q    Type
REMARK                         _______ _______ _______ _____ _____    ______ ____
ROOT
ATOM      1  N   UNL     1       4.885   5.408  18.209  0.00  0.00    +0.000 NA
ATOM      2  C   UNL     1       4.799   4.010  17.737  0.00  0.00    +0.000 C 
ATOM      3  C   UNL     1       4.651   3.806  16.204  0.00  0.00    +0.000 C 
ATOM      4  N   UNL     1       5.412   4.706  15.317  0.00  0.00    +0.000 NA
ATOM      5  C   UNL     1       5.555   6.050  15.888  0.00  0.00    +0.000 C 
ATOM      6  C   UNL     1       5.868   6.155  17.398  0.00  0.00    +0.000 C 
ENDROOT
BRANCH   1  10
ATOM      7  N   UNL     1       1.368   4.292  19.685  0.00  0.00    +0.000 NA
ATOM      8  C   UNL     1       2.374   4.932  20.551  0.00  0.00    +0.000 C 
ATOM      9  C   UNL     1       3.088   6.168  20.006  0.00  0.00    +0.000 C 
ATOM     10  C   UNL     1       3.582   6.052  18.551  0.00  0.00    +0.000 C 
ATOM     11  C   UNL     1       2.339   5.653  17.739  0.00  0.00    +0.000 C 
ATOM     12  C   UNL     1       1.646   4.388  18.244  0.00  0.00    +0.000 C 
BRANCH   7  14
ATOM     13  C   UNL     1       1.841   1.852  19.195  0.00  0.00    +0.000 C 
ATOM     14  C   UNL     1       1.148   2.870  20.115  0.00  0.00    +0.000 C 
ATOM     15  C   UNL     1       1.576   2.566  21.560  0.00  0.00    +0.000 C 
ENDBRANCH   7  14
ENDBRANCH   1  10
BRANCH   4  16
ATOM     16  C   UNL     1       6.674   4.191  14.802  0.00  0.00    +0.000 C 
BRANCH  16  17
ATOM     17  C   UNL     1       7.374   5.105  13.802  0.00  0.00    +0.000 C 
BRANCH  17  18
ATOM     18  C   UNL     1       7.331   4.588  12.363  0.00  0.00    +0.000 C 
BRANCH  18  19
ATOM     19  C   UNL     1       6.469   3.333  12.274  0.00  0.00    +0.000 C 
ATOM     20  C   UNL     1       5.124   3.580  11.602  0.00  0.00    +0.000 C 
ATOM     21  C   UNL     1       4.651   2.177  11.245  0.00  0.00    +0.000 C 
ATOM     22  C   UNL     1       5.917   1.367  10.969  0.00  0.00    +0.000 C 
ATOM     23  C   UNL     1       7.087   2.236  11.409  0.00  0.00    +0.000 C 
ENDBRANCH  18  19
ENDBRANCH  17  18
ENDBRANCH  16  17
ENDBRANCH   4  16
BRANCH   6  24
ATOM     24  C   UNL     1       7.338   5.725  17.677  0.00  0.00    +0.000 C 
BRANCH  24  25
ATOM     25  C   UNL     1       7.827   6.029  19.087  0.00  0.00    +0.000 C 
BRANCH  25  26
ATOM     26  O   UNL     1       7.137   5.243  20.048  0.00  0.00    +0.000 OA
ATOM     27  H   UNL     1       7.825   4.724  20.514  0.00  0.00    +0.000 HD
ENDBRANCH  25  26
ENDBRANCH  24  25
ENDBRANCH   6  24
TORSDOF 9
ENDMDL
MODEL 3
REMARK VINA RESULT:      -7.0      0.710      1.007
REMARK  Name = 
REMARK  11 active torsions:
REMARK  status: ('A' for Active; 'I' for Inactive)
REMARK    1  A    between atoms: C_1  and  C_2
REMARK    2  A    between atoms: C_2  and  C_3
REMARK    3  A    between atoms: C_2  and  N_4
REMARK    4  A    between atoms: C_7  and  N_8
REMARK    5  A    between atoms: N_11  and  C_12
REMARK    6  A    between atoms: C_12  and  C_13
REMARK    7  A    between atoms: C_13  and  C_14
REMARK    8  A    between atoms: C_14  and  C_15
REMARK    9  A    between atoms: C_21  and  C_22
REMARK   10  A    between atoms: C_22  and  C_23
REMARK   11  A    between atoms: C_23  and  O_24
REMARK                            x       y       z     vdW  Elec       q    Type
REMARK                         _______ _______ _______ _____ _____    ______ ____
ROOT
ATOM      1  N   UNL     1       4.789   5.342  18.249  0.00  0.00    +0.000 NA
ATOM      2  C   UNL     1       5.882   5.708  19.175  0.00  0.00    +0.000 C 
ATOM      3  C   UNL     1       7.260   6.018  18.529  0.00  0.00    +0.000 C 
ATOM      4  N   UNL     1       7.268   6.754  17.252  0.00  0.00    +0.000 NA
ATOM      5  C   UNL     1       6.104   6.429  16.421  0.00  0.00    +0.000 C 
ATOM      6  C   UNL     1       4.735   6.303  17.128  0.00  0.00    +0.000 C 
ENDROOT
BRANCH   1  10
ATOM      7  N   UNL     1       2.441   2.353  19.404  0.00  0.00    +0.000 NA
ATOM      8  C   UNL     1       2.204   3.037  18.120  0.00  0.00    +0.000 C 
ATOM      9  C   UNL     1       3.418   3.312  17.234  0.00  0.00    +0.000 C 
ATOM     10  C   UNL     1       4.648   3.884  17.966  0.00  0.00    +0.000 C 
ATOM     11  C   UNL     1       4.931   2.891  19.105  0.00  0.00    +0.000 C 
ATOM     12  C   UNL     1       3.738   2.649  20.030  0.00  0.00    +0.000 C 
BRANCH   7  14
ATOM     13  C   UNL     1       1.688   2.438  21.821  0.00  0.00    +0.000 C 
ATOM     14  C   UNL     1       1.299   2.611  20.344  0.00  0.00    +0.000 C 
ATOM     15  C   UNL     1       0.644   3.994  20.189  0.00  0.00    +0.000 C 
ENDBRANCH   7  14
ENDBRANCH   1  10
BRANCH   4  16
ATOM     16  C   UNL     1       7.499   8.191  17.335  0.00  0.00    +0.000 C 
BRANCH  16  17
ATOM     17  C   UNL     1       8.603   8.604  18.303  0.00  0.00    +0.000 C 
BRANCH  17  18
ATOM     18  C   UNL     1       8.529  10.071  18.727  0.00  0.00    +0.000 C 
BRANCH  18  19
ATOM     19  C   UNL     1       9.659  10.869  18.083  0.00  0.00    +0.000 C 
ATOM     20  C   UNL     1       9.222  12.249  17.610  0.00  0.00    +0.000 C 
ATOM     21  C   UNL     1      10.540  12.986  17.420  0.00  0.00    +0.000 C 
ATOM     22  C   UNL     1      11.500  12.401  18.455  0.00  0.00    +0.000 C 
ATOM     23  C   UNL     1      10.802  11.184  19.046  0.00  0.00    +0.000 C 
ENDBRANCH  18  19
ENDBRANCH  17  18
ENDBRANCH  16  17
ENDBRANCH   4  16
BRANCH   6  24
ATOM     24  C   UNL     1       4.216   7.707  17.556  0.00  0.00    +0.000 C 
BRANCH  24  25
ATOM     25  C   UNL     1       2.737   7.751  17.916  0.00  0.00    +0.000 C 
BRANCH  25  26
ATOM     26  O   UNL     1       2.422   6.777  18.900  0.00  0.00    +0.000 OA
ATOM     27  H   UNL     1       3.028   6.949  19.651  0.00  0.00    +0.000 HD
ENDBRANCH  25  26
ENDBRANCH  24  25
ENDBRANCH   6  24
TORSDOF 9
ENDMDL
MODEL 4
REMARK VINA RESULT:      -7.0      3.390      6.566
REMARK  Name = 
REMARK  11 active torsions:
REMARK  status: ('A' for Active; 'I' for Inactive)
REMARK    1  A    between atoms: C_1  and  C_2
REMARK    2  A    between atoms: C_2  and  C_3
REMARK    3  A    between atoms: C_2  and  N_4
REMARK    4  A    between atoms: C_7  and  N_8
REMARK    5  A    between atoms: N_11  and  C_12
REMARK    6  A    between atoms: C_12  and  C_13
REMARK    7  A    between atoms: C_13  and  C_14
REMARK    8  A    between atoms: C_14  and  C_15
REMARK    9  A    between atoms: C_21  and  C_22
REMARK   10  A    between atoms: C_22  and  C_23
REMARK   11  A    between atoms: C_23  and  O_24
REMARK                            x       y       z     vdW  Elec       q    Type
REMARK                         _______ _______ _______ _____ _____    ______ ____
ROOT
ATOM      1  N   UNL     1       4.566   5.187  18.024  0.00  0.00    +0.000 NA
ATOM      2  C   UNL     1       4.533   4.290  16.850  0.00  0.00    +0.000 C 
ATOM      3  C   UNL     1       4.847   4.940  15.474  0.00  0.00    +0.000 C 
ATOM      4  N   UNL     1       5.902   5.969  15.428  0.00  0.00    +0.000 NA
ATOM      5  C   UNL     1       5.956   6.758  16.664  0.00  0.00    +0.000 C 
ATOM      6  C   UNL     1       5.798   6.001  18.002  0.00  0.00    +0.000 C 
ENDROOT
BRANCH   1  10
ATOM      7  N   UNL     1       1.236   4.220  19.964  0.00  0.00    +0.000 NA
ATOM      8  C   UNL     1       2.280   5.024  20.624  0.00  0.00    +0.000 C 
ATOM      9  C   UNL     1       2.892   6.175  19.828  0.00  0.00    +0.000 C 
ATOM     10  C   UNL     1       3.269   5.838  18.372  0.00  0.00    +0.000 C 
ATOM     11  C   UNL     1       1.982   5.274  17.747  0.00  0.00    +0.000 C 
ATOM     12  C   UNL     1       1.390   4.088  18.508  0.00  0.00    +0.000 C 
BRANCH   7  14
ATOM     13  C   UNL     1       1.461   1.712  19.700  0.00  0.00    +0.000 C 
ATOM     14  C   UNL     1       1.115   2.882  20.634  0.00  0.00    +0.000 C 
ATOM     15  C   UNL     1       1.957   2.729  21.911  0.00  0.00    +0.000 C 
ENDBRANCH   7  14
ENDBRANCH   1  10
BRANCH   4  16
ATOM     16  C   UNL     1       7.223   5.524  15.004  0.00  0.00    +0.000 C 
BRANCH  16  17
ATOM     17  C   UNL     1       7.218   4.343  14.039  0.00  0.00    +0.000 C 
BRANCH  17  18
ATOM     18  C   UNL     1       7.511   4.734  12.590  0.00  0.00    +0.000 C 
BRANCH  18  19
ATOM     19  C   UNL     1       6.878   3.730  11.629  0.00  0.00    +0.000 C 
ATOM     20  C   UNL     1       7.646   2.418  11.548  0.00  0.00    +0.000 C 
ATOM     21  C   UNL     1       6.642   1.467  10.910  0.00  0.00    +0.000 C 
ATOM     22  C   UNL     1       5.265   1.940  11.374  0.00  0.00    +0.000 C 
ATOM     23  C   UNL     1       5.481   3.284  12.056  0.00  0.00    +0.000 C 
ENDBRANCH  18  19
ENDBRANCH  17  18
ENDBRANCH  16  17
ENDBRANCH   4  16
BRANCH   6  24
ATOM     24  C   UNL     1       7.080   5.172  18.308  0.00  0.00    +0.000 C 
BRANCH  24  25
ATOM     25  C   UNL     1       8.093   5.881  19.198  0.00  0.00    +0.000 C 
BRANCH  25  26
ATOM     26  O   UNL     1       7.973   5.456  20.547  0.00  0.00    +0.000 OA
ATOM     27  H   UNL     1       8.563   6.042  21.066  0.00  0.00    +0.000 HD
ENDBRANCH  25  26
ENDBRANCH  24  25
ENDBRANCH   6  24
TORSDOF 9
ENDMDL
MODEL 5
REMARK VINA RESULT:      -6.9      3.474      6.699
REMARK  Name = 
REMARK  11 active torsions:
REMARK  status: ('A' for Active; 'I' for Inactive)
REMARK    1  A    between atoms: C_1  and  C_2
REMARK    2  A    between atoms: C_2  and  C_3
REMARK    3  A    between atoms: C_2  and  N_4
REMARK    4  A    between atoms: C_7  and  N_8
REMARK    5  A    between atoms: N_11  and  C_12
REMARK    6  A    between atoms: C_12  and  C_13
REMARK    7  A    between atoms: C_13  and  C_14
REMARK    8  A    between atoms: C_14  and  C_15
REMARK    9  A    between atoms: C_21  and  C_22
REMARK   10  A    between atoms: C_22  and  C_23
REMARK   11  A    between atoms: C_23  and  O_24
REMARK                            x       y       z     vdW  Elec       q    Type
REMARK                         _______ _______ _______ _____ _____    ______ ____
ROOT
ATOM      1  N   UNL     1       4.527   5.945  18.512  0.00  0.00    +0.000 NA
ATOM      2  C   UNL     1       4.709   4.487  18.355  0.00  0.00    +0.000 C 
ATOM      3  C   UNL     1       4.642   3.933  16.905  0.00  0.00    +0.000 C 
ATOM      4  N   UNL     1       5.249   4.744  15.834  0.00  0.00    +0.000 NA
ATOM      5  C   UNL     1       5.130   6.182  16.097  0.00  0.00    +0.000 C 
ATOM      6  C   UNL     1       5.379   6.666  17.544  0.00  0.00    +0.000 C 
ENDROOT
BRANCH   1  10
ATOM      7  N   UNL     1       1.111   4.375  19.798  0.00  0.00    +0.000 NA
ATOM      8  C   UNL     1       1.940   5.201  20.695  0.00  0.00    +0.000 C 
ATOM      9  C   UNL     1       2.503   6.504  20.132  0.00  0.00    +0.000 C 
ATOM     10  C   UNL     1       3.121   6.398  18.724  0.00  0.00    +0.000 C 
ATOM     11  C   UNL     1       2.018   5.778  17.851  0.00  0.00    +0.000 C 
ATOM     12  C   UNL     1       1.483   4.446  18.377  0.00  0.00    +0.000 C 
BRANCH   7  14
ATOM     13  C   UNL     1       1.782   1.975  19.348  0.00  0.00    +0.000 C 
ATOM     14  C   UNL     1       1.072   2.958  20.292  0.00  0.00    +0.000 C 
ATOM     15  C   UNL     1       1.650   2.757  21.702  0.00  0.00    +0.000 C 
ENDBRANCH   7  14
ENDBRANCH   1  10
BRANCH   4  16
ATOM     16  C   UNL     1       6.596   4.370  15.424  0.00  0.00    +0.000 C 
BRANCH  16  17
ATOM     17  C   UNL     1       6.846   4.430  13.921  0.00  0.00    +0.000 C 
BRANCH  17  18
ATOM     18  C   UNL     1       5.625   4.052  13.081  0.00  0.00    +0.000 C 
BRANCH  18  19
ATOM     19  C   UNL     1       6.053   3.274  11.841  0.00  0.00    +0.000 C 
ATOM     20  C   UNL     1       7.537   2.933  11.832  0.00  0.00    +0.000 C 
ATOM     21  C   UNL     1       7.636   1.836  10.781  0.00  0.00    +0.000 C 
ATOM     22  C   UNL     1       6.307   1.084  10.835  0.00  0.00    +0.000 C 
ATOM     23  C   UNL     1       5.386   1.904  11.728  0.00  0.00    +0.000 C 
ENDBRANCH  18  19
ENDBRANCH  17  18
ENDBRANCH  16  17
ENDBRANCH   4  16
BRANCH   6  24
ATOM     24  C   UNL     1       6.895   6.584  17.889  0.00  0.00    +0.000 C 
BRANCH  24  25
ATOM     25  C   UNL     1       7.676   7.862  17.611  0.00  0.00    +0.000 C 
BRANCH  25  26
ATOM     26  O   UNL     1       8.592   8.138  18.660  0.00  0.00    +0.000 OA
ATOM     27  H   UNL     1       9.056   8.962  18.401  0.00  0.00    +0.000 HD
ENDBRANCH  25  26
ENDBRANCH  24  25
ENDBRANCH   6  24
TORSDOF 9
ENDMDL
MODEL 6
REMARK VINA RESULT:      -6.8      1.980      2.452
REMARK  Name = 
REMARK  11 active torsions:
REMARK  status: ('A' for Active; 'I' for Inactive)
REMARK    1  A    between atoms: C_1  and  C_2
REMARK    2  A    between atoms: C_2  and  C_3
REMARK    3  A    between atoms: C_2  and  N_4
REMARK    4  A    between atoms: C_7  and  N_8
REMARK    5  A    between atoms: N_11  and  C_12
REMARK    6  A    between atoms: C_12  and  C_13
REMARK    7  A    between atoms: C_13  and  C_14
REMARK    8  A    between atoms: C_14  and  C_15
REMARK    9  A    between atoms: C_21  and  C_22
REMARK   10  A    between atoms: C_22  and  C_23
REMARK   11  A    between atoms: C_23  and  O_24
REMARK                            x       y       z     vdW  Elec       q    Type
REMARK                         _______ _______ _______ _____ _____    ______ ____
ROOT
ATOM      1  N   UNL     1       4.633   3.971  16.826  0.00  0.00    +0.000 NA
ATOM      2  C   UNL     1       4.270   5.162  17.622  0.00  0.00    +0.000 C 
ATOM      3  C   UNL     1       5.375   5.733  18.554  0.00  0.00    +0.000 C 
ATOM      4  N   UNL     1       6.761   5.731  18.054  0.00  0.00    +0.000 NA
ATOM      5  C   UNL     1       7.031   4.581  17.184  0.00  0.00    +0.000 C 
ATOM      6  C   UNL     1       5.937   4.184  16.165  0.00  0.00    +0.000 C 
ENDROOT
BRANCH   1  10
ATOM      7  N   UNL     1       2.354   2.591  19.773  0.00  0.00    +0.000 NA
ATOM      8  C   UNL     1       1.927   2.452  18.369  0.00  0.00    +0.000 C 
ATOM      9  C   UNL     1       2.971   1.975  17.360  0.00  0.00    +0.000 C 
ATOM     10  C   UNL     1       4.349   2.656  17.471  0.00  0.00    +0.000 C 
ATOM     11  C   UNL     1       4.775   2.457  18.934  0.00  0.00    +0.000 C 
ATOM     12  C   UNL     1       3.761   2.977  19.953  0.00  0.00    +0.000 C 
BRANCH   7  14
ATOM     13  C   UNL     1       1.133   3.058  21.942  0.00  0.00    +0.000 C 
ATOM     14  C   UNL     1       1.425   3.516  20.505  0.00  0.00    +0.000 C 
ATOM     15  C   UNL     1       1.897   4.978  20.564  0.00  0.00    +0.000 C 
ENDBRANCH   7  14
ENDBRANCH   1  10
BRANCH   4  16
ATOM     16  C   UNL     1       7.244   6.980  17.479  0.00  0.00    +0.000 C 
BRANCH  16  17
ATOM     17  C   UNL     1       8.200   7.765  18.371  0.00  0.00    +0.000 C 
BRANCH  17  18
ATOM     18  C   UNL     1       8.212   9.267  18.086  0.00  0.00    +0.000 C 
BRANCH  18  19
ATOM     19  C   UNL     1       9.429   9.922  18.732  0.00  0.00    +0.000 C 
ATOM     20  C   UNL     1       9.936  11.132  17.958  0.00  0.00    +0.000 C 
ATOM     21  C   UNL     1      10.824  11.844  18.969  0.00  0.00    +0.000 C 
ATOM     22  C   UNL     1      10.210  11.559  20.339  0.00  0.00    +0.000 C 
ATOM     23  C   UNL     1       9.141  10.498  20.117  0.00  0.00    +0.000 C 
ENDBRANCH  18  19
ENDBRANCH  17  18
ENDBRANCH  16  17
ENDBRANCH   4  16
BRANCH   6  24
ATOM     24  C   UNL     1       5.871   5.225  15.010  0.00  0.00    +0.000 C 
BRANCH  24  25
ATOM     25  C   UNL     1       6.698   4.860  13.784  0.00  0.00    +0.000 C 
BRANCH  25  26
ATOM     26  O   UNL     1       7.911   5.598  13.748  0.00  0.00    +0.000 OA
ATOM     27  H   UNL     1       8.383   5.301  12.942  0.00  0.00    +0.000 HD
ENDBRANCH  25  26
ENDBRANCH  24  25
ENDBRANCH   6  24
TORSDOF 9
ENDMDL
MODEL 7
REMARK VINA RESULT:      -6.7      3.130      6.999
REMARK  Name = 
REMARK  11 active torsions:
REMARK  status: ('A' for Active; 'I' for Inactive)
REMARK    1  A    between atoms: C_1  and  C_2
REMARK    2  A    between atoms: C_2  and  C_3
REMARK    3  A    between atoms: C_2  and  N_4
REMARK    4  A    between atoms: C_7  and  N_8
REMARK    5  A    between atoms: N_11  and  C_12
REMARK    6  A    between atoms: C_12  and  C_13
REMARK    7  A    between atoms: C_13  and  C_14
REMARK    8  A    between atoms: C_14  and  C_15
REMARK    9  A    between atoms: C_21  and  C_22
REMARK   10  A    between atoms: C_22  and  C_23
REMARK   11  A    between atoms: C_23  and  O_24
REMARK                            x       y       z     vdW  Elec       q    Type
REMARK                         _______ _______ _______ _____ _____    ______ ____
ROOT
ATOM      1  N   UNL     1       3.954   4.014  17.714  0.00  0.00    +0.000 NA
ATOM      2  C   UNL     1       4.615   4.447  18.964  0.00  0.00    +0.000 C 
ATOM      3  C   UNL     1       4.197   5.835  19.521  0.00  0.00    +0.000 C 
ATOM      4  N   UNL     1       2.777   6.216  19.416  0.00  0.00    +0.000 NA
ATOM      5  C   UNL     1       2.147   5.670  18.209  0.00  0.00    +0.000 C 
ATOM      6  C   UNL     1       2.494   4.214  17.820  0.00  0.00    +0.000 C 
ENDROOT
BRANCH   1  10
ATOM      7  N   UNL     1       7.127   6.163  16.664  0.00  0.00    +0.000 NA
ATOM      8  C   UNL     1       7.210   4.694  16.740  0.00  0.00    +0.000 C 
ATOM      9  C   UNL     1       6.069   3.890  16.119  0.00  0.00    +0.000 C 
ATOM     10  C   UNL     1       4.652   4.397  16.452  0.00  0.00    +0.000 C 
ATOM     11  C   UNL     1       4.654   5.879  16.043  0.00  0.00    +0.000 C 
ATOM     12  C   UNL     1       5.760   6.704  16.700  0.00  0.00    +0.000 C 
BRANCH   7  14
ATOM     13  C   UNL     1       7.817   8.307  17.822  0.00  0.00    +0.000 C 
ATOM     14  C   UNL     1       7.998   6.785  17.716  0.00  0.00    +0.000 C 
ATOM     15  C   UNL     1       7.822   6.192  19.124  0.00  0.00    +0.000 C 
ENDBRANCH   7  14
ENDBRANCH   1  10
BRANCH   4  16
ATOM     16  C   UNL     1       1.961   6.005  20.605  0.00  0.00    +0.000 C 
BRANCH  16  17
ATOM     17  C   UNL     1       1.043   7.169  20.963  0.00  0.00    +0.000 C 
BRANCH  17  18
ATOM     18  C   UNL     1       1.570   8.529  20.506  0.00  0.00    +0.000 C 
BRANCH  18  19
ATOM     19  C   UNL     1       0.979   9.645  21.363  0.00  0.00    +0.000 C 
ATOM     20  C   UNL     1      -0.120  10.424  20.652  0.00  0.00    +0.000 C 
ATOM     21  C   UNL     1      -0.824  11.149  21.791  0.00  0.00    +0.000 C 
ATOM     22  C   UNL     1      -0.698  10.235  23.010  0.00  0.00    +0.000 C 
ATOM     23  C   UNL     1       0.278   9.134  22.620  0.00  0.00    +0.000 C 
ENDBRANCH  18  19
ENDBRANCH  17  18
ENDBRANCH  16  17
ENDBRANCH   4  16
BRANCH   6  24
ATOM     24  C   UNL     1       1.813   3.215  18.800  0.00  0.00    +0.000 C 
BRANCH  24  25
ATOM     25  C   UNL     1       1.850   1.761  18.347  0.00  0.00    +0.000 C 
BRANCH  25  26
ATOM     26  O   UNL     1       3.179   1.260  18.347  0.00  0.00    +0.000 OA
ATOM     27  H   UNL     1       3.209   0.580  19.052  0.00  0.00    +0.000 HD
ENDBRANCH  25  26
ENDBRANCH  24  25
ENDBRANCH   6  24
TORSDOF 9
ENDMDL
MODEL 8
REMARK VINA RESULT:      -6.6      2.163      3.130
REMARK  Name = 
REMARK  11 active torsions:
REMARK  status: ('A' for Active; 'I' for Inactive)
REMARK    1  A    between atoms: C_1  and  C_2
REMARK    2  A    between atoms: C_2  and  C_3
REMARK    3  A    between atoms: C_2  and  N_4
REMARK    4  A    between atoms: C_7  and  N_8
REMARK    5  A    between atoms: N_11  and  C_12
REMARK    6  A    between atoms: C_12  and  C_13
REMARK    7  A    between atoms: C_13  and  C_14
REMARK    8  A    between atoms: C_14  and  C_15
REMARK    9  A    between atoms: C_21  and  C_22
REMARK   10  A    between atoms: C_22  and  C_23
REMARK   11  A    between atoms: C_23  and  O_24
REMARK                            x       y       z     vdW  Elec       q    Type
REMARK                         _______ _______ _______ _____ _____    ______ ____
ROOT
ATOM      1  N   UNL     1       5.027   4.515  16.947  0.00  0.00    +0.000 NA
ATOM      2  C   UNL     1       4.722   5.815  16.312  0.00  0.00    +0.000 C 
ATOM      3  C   UNL     1       5.070   7.085  17.136  0.00  0.00    +0.000 C 
ATOM      4  N   UNL     1       6.313   7.068  17.928  0.00  0.00    +0.000 NA
ATOM      5  C   UNL     1       6.620   5.729  18.444  0.00  0.00    +0.000 C 
ATOM      6  C   UNL     1       6.399   4.530  17.492  0.00  0.00    +0.000 C 
ENDROOT
BRANCH   1  10
ATOM      7  N   UNL     1       2.324   5.783  19.569  0.00  0.00    +0.000 NA
ATOM      8  C   UNL     1       1.951   5.554  18.161  0.00  0.00    +0.000 C 
ATOM      9  C   UNL     1       2.445   4.267  17.502  0.00  0.00    +0.000 C 
ATOM     10  C   UNL     1       3.925   3.924  17.762  0.00  0.00    +0.000 C 
ATOM     11  C   UNL     1       4.072   3.925  19.292  0.00  0.00    +0.000 C 
ATOM     12  C   UNL     1       3.629   5.228  19.958  0.00  0.00    +0.000 C 
BRANCH   7  14
ATOM     13  C   UNL     1       1.942   8.117  18.666  0.00  0.00    +0.000 C 
ATOM     14  C   UNL     1       2.221   7.244  19.899  0.00  0.00    +0.000 C 
ATOM     15  C   UNL     1       1.166   7.585  20.965  0.00  0.00    +0.000 C 
ENDBRANCH   7  14
ENDBRANCH   1  10
BRANCH   4  16
ATOM     16  C   UNL     1       7.476   7.702  17.321  0.00  0.00    +0.000 C 
BRANCH  16  17
ATOM     17  C   UNL     1       8.477   8.283  18.314  0.00  0.00    +0.000 C 
BRANCH  17  18
ATOM     18  C   UNL     1       8.487   9.811  18.352  0.00  0.00    +0.000 C 
BRANCH  18  19
ATOM     19  C   UNL     1       9.706  10.317  19.117  0.00  0.00    +0.000 C 
ATOM     20  C   UNL     1      10.542  11.308  18.318  0.00  0.00    +0.000 C 
ATOM     21  C   UNL     1      11.403  11.975  19.383  0.00  0.00    +0.000 C 
ATOM     22  C   UNL     1      10.560  11.982  20.657  0.00  0.00    +0.000 C 
ATOM     23  C   UNL     1       9.346  11.108  20.373  0.00  0.00    +0.000 C 
ENDBRANCH  18  19
ENDBRANCH  17  18
ENDBRANCH  16  17
ENDBRANCH   4  16
BRANCH   6  24
ATOM     24  C   UNL     1       7.494   4.510  16.386  0.00  0.00    +0.000 C 
BRANCH  24  25
ATOM     25  C   UNL     1       6.954   4.564  14.962  0.00  0.00    +0.000 C 
BRANCH  25  26
ATOM     26  O   UNL     1       7.681   5.495  14.175  0.00  0.00    +0.000 OA
ATOM     27  H   UNL     1       7.867   6.257  14.763  0.00  0.00    +0.000 HD
ENDBRANCH  25  26
ENDBRANCH  24  25
ENDBRANCH   6  24
TORSDOF 9
ENDMDL
MODEL 9
REMARK VINA RESULT:      -6.6      0.851      1.045
REMARK  Name = 
REMARK  11 active torsions:
REMARK  status: ('A' for Active; 'I' for Inactive)
REMARK    1  A    between atoms: C_1  and  C_2
REMARK    2  A    between atoms: C_2  and  C_3
REMARK    3  A    between atoms: C_2  and  N_4
REMARK    4  A    between atoms: C_7  and  N_8
REMARK    5  A    between atoms: N_11  and  C_12
REMARK    6  A    between atoms: C_12  and  C_13
REMARK    7  A    between atoms: C_13  and  C_14
REMARK    8  A    between atoms: C_14  and  C_15
REMARK    9  A    between atoms: C_21  and  C_22
REMARK   10  A    between atoms: C_22  and  C_23
REMARK   11  A    between atoms: C_23  and  O_24
REMARK                            x       y       z     vdW  Elec       q    Type
REMARK                         _______ _______ _______ _____ _____    ______ ____
ROOT
ATOM      1  N   UNL     1       4.884   5.082  18.355  0.00  0.00    +0.000 NA
ATOM      2  C   UNL     1       5.990   5.530  19.227  0.00  0.00    +0.000 C 
ATOM      3  C   UNL     1       7.370   5.733  18.542  0.00  0.00    +0.000 C 
ATOM      4  N   UNL     1       7.384   6.316  17.189  0.00  0.00    +0.000 NA
ATOM      5  C   UNL     1       6.207   5.921  16.407  0.00  0.00    +0.000 C 
ATOM      6  C   UNL     1       4.841   5.908  17.131  0.00  0.00    +0.000 C 
ENDROOT
BRANCH   1  10
ATOM      7  N   UNL     1       2.366   2.323  19.710  0.00  0.00    +0.000 NA
ATOM      8  C   UNL     1       2.233   2.849  18.339  0.00  0.00    +0.000 C 
ATOM      9  C   UNL     1       3.509   2.979  17.508  0.00  0.00    +0.000 C 
ATOM     10  C   UNL     1       4.710   3.604  18.244  0.00  0.00    +0.000 C 
ATOM     11  C   UNL     1       4.887   2.754  19.512  0.00  0.00    +0.000 C 
ATOM     12  C   UNL     1       3.631   2.660  20.378  0.00  0.00    +0.000 C 
BRANCH   7  14
ATOM     13  C   UNL     1       1.377   2.477  22.036  0.00  0.00    +0.000 C 
ATOM     14  C   UNL     1       1.177   2.726  20.533  0.00  0.00    +0.000 C 
ATOM     15  C   UNL     1       0.743   4.190  20.353  0.00  0.00    +0.000 C 
ENDBRANCH   7  14
ENDBRANCH   1  10
BRANCH   4  16
ATOM     16  C   UNL     1       7.645   7.747  17.103  0.00  0.00    +0.000 C 
BRANCH  16  17
ATOM     17  C   UNL     1       8.150   8.381  18.395  0.00  0.00    +0.000 C 
BRANCH  17  18
ATOM     18  C   UNL     1       9.212   9.459  18.175  0.00  0.00    +0.000 C 
BRANCH  18  19
ATOM     19  C   UNL     1       8.821  10.746  18.895  0.00  0.00    +0.000 C 
ATOM     20  C   UNL     1       9.780  11.116  20.018  0.00  0.00    +0.000 C 
ATOM     21  C   UNL     1       9.459  12.581  20.282  0.00  0.00    +0.000 C 
ATOM     22  C   UNL     1       9.020  13.161  18.938  0.00  0.00    +0.000 C 
ATOM     23  C   UNL     1       8.860  11.978  17.993  0.00  0.00    +0.000 C 
ENDBRANCH  18  19
ENDBRANCH  17  18
ENDBRANCH  16  17
ENDBRANCH   4  16
BRANCH   6  24
ATOM     24  C   UNL     1       4.354   7.363  17.395  0.00  0.00    +0.000 C 
BRANCH  24  25
ATOM     25  C   UNL     1       2.948   7.463  17.971  0.00  0.00    +0.000 C 
BRANCH  25  26
ATOM     26  O   UNL     1       2.294   6.203  17.945  0.00  0.00    +0.000 OA
ATOM     27  H   UNL     1       1.867   6.104  18.821  0.00  0.00    +0.000 HD
ENDBRANCH  25  26
ENDBRANCH  24  25
ENDBRANCH   6  24
TORSDOF 9
ENDMDL
