MODEL 1
REMARK VINA RESULT:      -7.6      0.000      0.000
REMARK  Name = 
REMARK  5 active torsions:
REMARK  status: ('A' for Active; 'I' for Inactive)
REMARK    1  A    between atoms: C_1  and  O_2
REMARK    2  A    between atoms: O_2  and  C_3
REMARK    3  A    between atoms: C_6  and  N_7
REMARK    4  A    between atoms: N_7  and  C_8
REMARK    5  A    between atoms: C_8  and  C_9
REMARK                            x       y       z     vdW  Elec       q    Type
REMARK                         _______ _______ _______ _____ _____    ______ ____
ROOT
ATOM      1  N   UNL     1       3.175   6.975  17.917  0.00  0.00    +0.000 N 
ATOM      2  C   UNL     1       2.557   8.231  18.120  0.00  0.00    +0.000 C 
ATOM      3  O   UNL     1       2.850   9.189  17.407  0.00  0.00    +0.000 OA
ATOM      4  N   UNL     1       1.703   8.295  19.197  0.00  0.00    +0.000 N 
ATOM      5  C   UNL     1       1.065   9.457  19.536  0.00  0.00    +0.000 A 
ATOM      6  N   UNL     1       0.977  10.581  18.868  0.00  0.00    +0.000 NA
ATOM      7  C   UNL     1       0.295  11.514  19.627  0.00  0.00    +0.000 A 
ATOM      8  C   UNL     1      -0.136  11.050  20.846  0.00  0.00    +0.000 A 
ATOM      9 BR   UNL     1      -1.045  12.084  22.106  0.00  0.00    +0.000 Br
ATOM     10  S   UNL     1       0.285   9.418  21.058  0.00  0.00    +0.000 S 
ATOM     11  H   UNL     1       1.678   7.551  19.874  0.00  0.00    +0.000 HD
ENDROOT
BRANCH   1  15
ATOM     12  C   UNL     1       2.044   3.454  19.820  0.00  0.00    +0.000 A 
ATOM     13  C   UNL     1       1.458   3.748  18.602  0.00  0.00    +0.000 A 
ATOM     14  C   UNL     1       1.818   4.932  17.955  0.00  0.00    +0.000 A 
ATOM     15  C   UNL     1       2.757   5.780  18.547  0.00  0.00    +0.000 A 
ATOM     16  C   UNL     1       3.258   5.407  19.793  0.00  0.00    +0.000 A 
ATOM     17  N   UNL     1       2.926   4.264  20.439  0.00  0.00    +0.000 NA
BRANCH  12  19
ATOM     18  C   UNL     1       1.488   2.388  21.826  0.00  0.00    +0.000 C 
ATOM     19  O   UNL     1       1.673   2.264  20.417  0.00  0.00    +0.000 OA
ENDBRANCH  12  19
ENDBRANCH   1  15
BRANCH   1  20
ATOM     20  C   UNL     1       4.187   6.954  16.845  0.00  0.00    +0.000 C 
BRANCH  20  21
ATOM     21  C   UNL     1       5.034   5.709  16.565  0.00  0.00    +0.000 C 
ATOM     22  C   UNL     1       5.534   5.517  15.134  0.00  0.00    +0.000 C 
ATOM     23  C   UNL     1       6.564   4.403  15.302  0.00  0.00    +0.000 C 
ATOM     24  C   UNL     1       7.223   4.669  16.655  0.00  0.00    +0.000 C 
ATOM     25  C   UNL     1       6.371   5.748  17.324  0.00  0.00    +0.000 C 
ENDBRANCH  20  21
ENDBRANCH   1  20
TORSDOF 4
ENDMDL
MODEL 2
REMARK VINA RESULT:      -7.5      0.651      1.023
REMARK  Name = 
REMARK  5 active torsions:
REMARK  status: ('A' for Active; 'I' for Inactive)
REMARK    1  A    between atoms: C_1  and  O_2
REMARK    2  A    between atoms: O_2  and  C_3
REMARK    3  A    between atoms: C_6  and  N_7
REMARK    4  A    between atoms: N_7  and  C_8
REMARK    5  A    between atoms: C_8  and  C_9
REMARK                            x       y       z     vdW  Elec       q    Type
REMARK                         _______ _______ _______ _____ _____    ______ ____
ROOT
ATOM      1  N   UNL     1       3.121   7.068  17.966  0.00  0.00    +0.000 N 
ATOM      2  C   UNL     1       2.484   8.325  18.081  0.00  0.00    +0.000 C 
ATOM      3  O   UNL     1       2.815   9.258  17.350  0.00  0.00    +0.000 OA
ATOM      4  N   UNL     1       1.564   8.423  19.100  0.00  0.00    +0.000 N 
ATOM      5  C   UNL     1       0.899   9.592  19.353  0.00  0.00    +0.000 A 
ATOM      6  N   UNL     1       0.846  10.689  18.638  0.00  0.00    +0.000 NA
ATOM      7  C   UNL     1       0.112  11.644  19.316  0.00  0.00    +0.000 A 
ATOM      8  C   UNL     1      -0.390  11.225  20.524  0.00  0.00    +0.000 A 
ATOM      9 BR   UNL     1      -1.383  12.298  21.683  0.00  0.00    +0.000 Br
ATOM     10  S   UNL     1       0.027   9.605  20.825  0.00  0.00    +0.000 S 
ATOM     11  H   UNL     1       1.502   7.706  19.803  0.00  0.00    +0.000 HD
ENDROOT
BRANCH   1  15
ATOM     12  C   UNL     1       1.709   3.620  19.814  0.00  0.00    +0.000 A 
ATOM     13  C   UNL     1       2.560   4.439  20.535  0.00  0.00    +0.000 A 
ATOM     14  C   UNL     1       3.053   5.594  19.925  0.00  0.00    +0.000 A 
ATOM     15  C   UNL     1       2.672   5.894  18.615  0.00  0.00    +0.000 A 
ATOM     16  C   UNL     1       1.841   4.983  17.967  0.00  0.00    +0.000 A 
ATOM     17  N   UNL     1       1.349   3.858  18.537  0.00  0.00    +0.000 NA
BRANCH  12  19
ATOM     18  C   UNL     1       1.583   2.463  21.843  0.00  0.00    +0.000 C 
ATOM     19  O   UNL     1       1.232   2.497  20.461  0.00  0.00    +0.000 OA
ENDBRANCH  12  19
ENDBRANCH   1  15
BRANCH   1  20
ATOM     20  C   UNL     1       4.197   7.015  16.959  0.00  0.00    +0.000 C 
BRANCH  20  21
ATOM     21  C   UNL     1       5.066   5.765  16.779  0.00  0.00    +0.000 C 
ATOM     22  C   UNL     1       5.650   5.521  15.388  0.00  0.00    +0.000 C 
ATOM     23  C   UNL     1       6.674   4.422  15.659  0.00  0.00    +0.000 C 
ATOM     24  C   UNL     1       7.251   4.746  17.037  0.00  0.00    +0.000 C 
ATOM     25  C   UNL     1       6.356   5.844  17.612  0.00  0.00    +0.000 C 
ENDBRANCH  20  21
ENDBRANCH   1  20
TORSDOF 4
ENDMDL
MODEL 3
REMARK VINA RESULT:      -7.0      0.830      1.404
REMARK  Name = 
REMARK  5 active torsions:
REMARK  status: ('A' for Active; 'I' for Inactive)
REMARK    1  A    between atoms: C_1  and  O_2
REMARK    2  A    between atoms: O_2  and  C_3
REMARK    3  A    between atoms: C_6  and  N_7
REMARK    4  A    between atoms: N_7  and  C_8
REMARK    5  A    between atoms: C_8  and  C_9
REMARK                            x       y       z     vdW  Elec       q    Type
REMARK                         _______ _______ _______ _____ _____    ______ ____
ROOT
ATOM      1  N   UNL     1       3.204   6.948  17.799  0.00  0.00    +0.000 N 
ATOM      2  C   UNL     1       2.571   8.186  18.058  0.00  0.00    +0.000 C 
ATOM      3  O   UNL     1       2.782   9.155  17.331  0.00  0.00    +0.000 OA
ATOM      4  N   UNL     1       1.800   8.221  19.198  0.00  0.00    +0.000 N 
ATOM      5  C   UNL     1       1.160   9.364  19.593  0.00  0.00    +0.000 A 
ATOM      6  N   UNL     1       0.991  10.489  18.942  0.00  0.00    +0.000 NA
ATOM      7  C   UNL     1       0.345  11.399  19.757  0.00  0.00    +0.000 A 
ATOM      8  C   UNL     1       0.022  10.918  21.003  0.00  0.00    +0.000 A 
ATOM      9 BR   UNL     1      -0.816  11.920  22.336  0.00  0.00    +0.000 Br
ATOM     10  S   UNL     1       0.500   9.296  21.170  0.00  0.00    +0.000 S 
ATOM     11  H   UNL     1       1.847   7.474  19.870  0.00  0.00    +0.000 HD
ENDROOT
BRANCH   1  15
ATOM     12  C   UNL     1       2.116   3.396  19.669  0.00  0.00    +0.000 A 
ATOM     13  C   UNL     1       3.048   4.201  20.300  0.00  0.00    +0.000 A 
ATOM     14  C   UNL     1       3.433   5.391  19.680  0.00  0.00    +0.000 A 
ATOM     15  C   UNL     1       2.868   5.739  18.451  0.00  0.00    +0.000 A 
ATOM     16  C   UNL     1       1.967   4.840  17.884  0.00  0.00    +0.000 A 
ATOM     17  N   UNL     1       1.576   3.681  18.466  0.00  0.00    +0.000 NA
BRANCH  12  19
ATOM     18  C   UNL     1       1.550   2.432  21.723  0.00  0.00    +0.000 C 
ATOM     19  O   UNL     1       1.750   2.237  20.324  0.00  0.00    +0.000 OA
ENDBRANCH  12  19
ENDBRANCH   1  15
BRANCH   1  20
ATOM     20  C   UNL     1       4.130   6.961  16.652  0.00  0.00    +0.000 C 
BRANCH  20  21
ATOM     21  C   UNL     1       5.574   6.464  16.782  0.00  0.00    +0.000 C 
ATOM     22  C   UNL     1       6.257   6.662  18.135  0.00  0.00    +0.000 C 
ATOM     23  C   UNL     1       7.504   5.793  17.994  0.00  0.00    +0.000 C 
ATOM     24  C   UNL     1       7.058   4.585  17.170  0.00  0.00    +0.000 C 
ATOM     25  C   UNL     1       5.664   4.934  16.647  0.00  0.00    +0.000 C 
ENDBRANCH  20  21
ENDBRANCH   1  20
TORSDOF 4
ENDMDL
MODEL 4
REMARK VINA RESULT:      -7.0      2.315      4.378
REMARK  Name = 
REMARK  5 active torsions:
REMARK  status: ('A' for Active; 'I' for Inactive)
REMARK    1  A    between atoms: C_1  and  O_2
REMARK    2  A    between atoms: O_2  and  C_3
REMARK    3  A    between atoms: C_6  and  N_7
REMARK    4  A    between atoms: N_7  and  C_8
REMARK    5  A    between atoms: C_8  and  C_9
REMARK                            x       y       z     vdW  Elec       q    Type
REMARK                         _______ _______ _______ _____ _____    ______ ____
ROOT
ATOM      1  N   UNL     1       2.967   5.711  19.719  0.00  0.00    +0.000 N 
ATOM      2  C   UNL     1       2.154   6.813  20.076  0.00  0.00    +0.000 C 
ATOM      3  O   UNL     1       1.373   6.727  21.022  0.00  0.00    +0.000 OA
ATOM      4  N   UNL     1       2.253   7.906  19.246  0.00  0.00    +0.000 N 
ATOM      5  C   UNL     1       1.497   9.028  19.448  0.00  0.00    +0.000 A 
ATOM      6  N   UNL     1       0.748   9.352  20.473  0.00  0.00    +0.000 NA
ATOM      7  C   UNL     1       0.107  10.548  20.214  0.00  0.00    +0.000 A 
ATOM      8  C   UNL     1       0.415  11.108  18.998  0.00  0.00    +0.000 A 
ATOM      9 BR   UNL     1      -0.321  12.696  18.351  0.00  0.00    +0.000 Br
ATOM     10  S   UNL     1       1.542  10.153  18.159  0.00  0.00    +0.000 S 
ATOM     11  H   UNL     1       2.733   7.836  18.364  0.00  0.00    +0.000 HD
ENDROOT
BRANCH   1  15
ATOM     12  C   UNL     1       6.149   5.973  17.053  0.00  0.00    +0.000 A 
ATOM     13  C   UNL     1       4.866   5.994  16.535  0.00  0.00    +0.000 A 
ATOM     14  C   UNL     1       3.787   5.895  17.415  0.00  0.00    +0.000 A 
ATOM     15  C   UNL     1       4.027   5.784  18.786  0.00  0.00    +0.000 A 
ATOM     16  C   UNL     1       5.357   5.735  19.200  0.00  0.00    +0.000 A 
ATOM     17  N   UNL     1       6.420   5.831  18.367  0.00  0.00    +0.000 NA
BRANCH  12  19
ATOM     18  C   UNL     1       7.161   5.081  15.143  0.00  0.00    +0.000 C 
ATOM     19  O   UNL     1       7.187   6.091  16.150  0.00  0.00    +0.000 OA
ENDBRANCH  12  19
ENDBRANCH   1  15
BRANCH   1  20
ATOM     20  C   UNL     1       2.754   4.502  20.534  0.00  0.00    +0.000 C 
BRANCH  20  21
ATOM     21  C   UNL     1       2.552   3.126  19.890  0.00  0.00    +0.000 C 
ATOM     22  C   UNL     1       1.775   3.084  18.574  0.00  0.00    +0.000 C 
ATOM     23  C   UNL     1       2.045   1.662  18.088  0.00  0.00    +0.000 C 
ATOM     24  C   UNL     1       3.484   1.364  18.509  0.00  0.00    +0.000 C 
ATOM     25  C   UNL     1       3.886   2.505  19.443  0.00  0.00    +0.000 C 
ENDBRANCH  20  21
ENDBRANCH   1  20
TORSDOF 4
ENDMDL
MODEL 5
REMARK VINA RESULT:      -6.9      2.174      4.646
REMARK  Name = 
REMARK  5 active torsions:
REMARK  status: ('A' for Active; 'I' for Inactive)
REMARK    1  A    between atoms: C_1  and  O_2
REMARK    2  A    between atoms: O_2  and  C_3
REMARK    3  A    between atoms: C_6  and  N_7
REMARK    4  A    between atoms: N_7  and  C_8
REMARK    5  A    between atoms: C_8  and  C_9
REMARK                            x       y       z     vdW  Elec       q    Type
REMARK                         _______ _______ _______ _____ _____    ______ ____
ROOT
ATOM      1  N   UNL     1       2.942   5.786  19.846  0.00  0.00    +0.000 N 
ATOM      2  C   UNL     1       2.102   6.872  20.186  0.00  0.00    +0.000 C 
ATOM      3  O   UNL     1       1.336   6.787  21.145  0.00  0.00    +0.000 OA
ATOM      4  N   UNL     1       2.160   7.947  19.329  0.00  0.00    +0.000 N 
ATOM      5  C   UNL     1       1.375   9.052  19.514  0.00  0.00    +0.000 A 
ATOM      6  N   UNL     1       0.629   9.380  20.541  0.00  0.00    +0.000 NA
ATOM      7  C   UNL     1      -0.049  10.551  20.262  0.00  0.00    +0.000 A 
ATOM      8  C   UNL     1       0.228  11.089  19.029  0.00  0.00    +0.000 A 
ATOM      9 BR   UNL     1      -0.561  12.639  18.354  0.00  0.00    +0.000 Br
ATOM     10  S   UNL     1       1.372  10.146  18.199  0.00  0.00    +0.000 S 
ATOM     11  H   UNL     1       2.630   7.870  18.444  0.00  0.00    +0.000 HD
ENDROOT
BRANCH   1  15
ATOM     12  C   UNL     1       5.947   5.994  16.978  0.00  0.00    +0.000 A 
ATOM     13  C   UNL     1       6.309   5.668  18.273  0.00  0.00    +0.000 A 
ATOM     14  C   UNL     1       5.314   5.605  19.250  0.00  0.00    +0.000 A 
ATOM     15  C   UNL     1       3.988   5.866  18.897  0.00  0.00    +0.000 A 
ATOM     16  C   UNL     1       3.737   6.221  17.574  0.00  0.00    +0.000 A 
ATOM     17  N   UNL     1       4.683   6.287  16.608  0.00  0.00    +0.000 NA
BRANCH  12  19
ATOM     18  C   UNL     1       6.955   4.888  15.181  0.00  0.00    +0.000 C 
ATOM     19  O   UNL     1       6.959   6.028  16.039  0.00  0.00    +0.000 OA
ENDBRANCH  12  19
ENDBRANCH   1  15
BRANCH   1  20
ATOM     20  C   UNL     1       2.773   4.591  20.692  0.00  0.00    +0.000 C 
BRANCH  20  21
ATOM     21  C   UNL     1       2.114   3.315  20.156  0.00  0.00    +0.000 C 
ATOM     22  C   UNL     1       0.867   3.490  19.291  0.00  0.00    +0.000 C 
ATOM     23  C   UNL     1       0.690   2.095  18.698  0.00  0.00    +0.000 C 
ATOM     24  C   UNL     1       2.109   1.578  18.465  0.00  0.00    +0.000 C 
ATOM     25  C   UNL     1       3.032   2.570  19.173  0.00  0.00    +0.000 C 
ENDBRANCH  20  21
ENDBRANCH   1  20
TORSDOF 4
ENDMDL
MODEL 6
REMARK VINA RESULT:      -6.9      1.011      1.382
REMARK  Name = 
REMARK  5 active torsions:
REMARK  status: ('A' for Active; 'I' for Inactive)
REMARK    1  A    between atoms: C_1  and  O_2
REMARK    2  A    between atoms: O_2  and  C_3
REMARK    3  A    between atoms: C_6  and  N_7
REMARK    4  A    between atoms: N_7  and  C_8
REMARK    5  A    between atoms: C_8  and  C_9
REMARK                            x       y       z     vdW  Elec       q    Type
REMARK                         _______ _______ _______ _____ _____    ______ ____
ROOT
ATOM      1  N   UNL     1       3.403   6.532  17.807  0.00  0.00    +0.000 N 
ATOM      2  C   UNL     1       2.922   7.860  17.865  0.00  0.00    +0.000 C 
ATOM      3  O   UNL     1       3.360   8.713  17.093  0.00  0.00    +0.000 OA
ATOM      4  N   UNL     1       2.024   8.114  18.876  0.00  0.00    +0.000 N 
ATOM      5  C   UNL     1       1.504   9.364  19.075  0.00  0.00    +0.000 A 
ATOM      6  N   UNL     1       1.581  10.426  18.311  0.00  0.00    +0.000 NA
ATOM      7  C   UNL     1       0.969  11.492  18.944  0.00  0.00    +0.000 A 
ATOM      8  C   UNL     1       0.424  11.190  20.168  0.00  0.00    +0.000 A 
ATOM      9 BR   UNL     1      -0.429  12.426  21.276  0.00  0.00    +0.000 Br
ATOM     10  S   UNL     1       0.644   9.547  20.543  0.00  0.00    +0.000 S 
ATOM     11  H   UNL     1       1.878   7.441  19.610  0.00  0.00    +0.000 HD
ENDROOT
BRANCH   1  15
ATOM     12  C   UNL     1       1.768   3.356  19.939  0.00  0.00    +0.000 A 
ATOM     13  C   UNL     1       1.495   3.437  18.585  0.00  0.00    +0.000 A 
ATOM     14  C   UNL     1       2.026   4.503  17.857  0.00  0.00    +0.000 A 
ATOM     15  C   UNL     1       2.819   5.451  18.507  0.00  0.00    +0.000 A 
ATOM     16  C   UNL     1       3.002   5.297  19.880  0.00  0.00    +0.000 A 
ATOM     17  N   UNL     1       2.499   4.271  20.608  0.00  0.00    +0.000 NA
BRANCH  12  19
ATOM     18  C   UNL     1       1.499   2.323  22.019  0.00  0.00    +0.000 C 
ATOM     19  O   UNL     1       1.238   2.276  20.617  0.00  0.00    +0.000 OA
ENDBRANCH  12  19
ENDBRANCH   1  15
BRANCH   1  20
ATOM     20  C   UNL     1       4.462   6.305  16.807  0.00  0.00    +0.000 C 
BRANCH  20  21
ATOM     21  C   UNL     1       5.941   6.243  17.204  0.00  0.00    +0.000 C 
ATOM     22  C   UNL     1       6.639   7.573  17.486  0.00  0.00    +0.000 C 
ATOM     23  C   UNL     1       7.942   7.118  18.138  0.00  0.00    +0.000 C 
ATOM     24  C   UNL     1       7.565   5.893  18.970  0.00  0.00    +0.000 C 
ATOM     25  C   UNL     1       6.138   5.534  18.554  0.00  0.00    +0.000 C 
ENDBRANCH  20  21
ENDBRANCH   1  20
TORSDOF 4
ENDMDL
MODEL 7
REMARK VINA RESULT:      -6.5      0.966      1.331
REMARK  Name = 
REMARK  5 active torsions:
REMARK  status: ('A' for Active; 'I' for Inactive)
REMARK    1  A    between atoms: C_1  and  O_2
REMARK    2  A    between atoms: O_2  and  C_3
REMARK    3  A    between atoms: C_6  and  N_7
REMARK    4  A    between atoms: N_7  and  C_8
REMARK    5  A    between atoms: C_8  and  C_9
REMARK                            x       y       z     vdW  Elec       q    Type
REMARK                         _______ _______ _______ _____ _____    ______ ____
ROOT
ATOM      1  N   UNL     1       3.237   7.176  17.743  0.00  0.00    +0.000 N 
ATOM      2  C   UNL     1       2.493   8.297  18.179  0.00  0.00    +0.000 C 
ATOM      3  O   UNL     1       2.584   9.371  17.586  0.00  0.00    +0.000 OA
ATOM      4  N   UNL     1       1.761   8.102  19.328  0.00  0.00    +0.000 N 
ATOM      5  C   UNL     1       1.024   9.111  19.886  0.00  0.00    +0.000 A 
ATOM      6  N   UNL     1       0.723  10.289  19.397  0.00  0.00    +0.000 NA
ATOM      7  C   UNL     1       0.018  11.012  20.340  0.00  0.00    +0.000 A 
ATOM      8  C   UNL     1      -0.215  10.339  21.515  0.00  0.00    +0.000 A 
ATOM      9 BR   UNL     1      -1.103  11.065  22.987  0.00  0.00    +0.000 Br
ATOM     10  S   UNL     1       0.427   8.768  21.452  0.00  0.00    +0.000 S 
ATOM     11  H   UNL     1       1.904   7.281  19.891  0.00  0.00    +0.000 HD
ENDROOT
BRANCH   1  15
ATOM     12  C   UNL     1       2.773   3.314  19.215  0.00  0.00    +0.000 A 
ATOM     13  C   UNL     1       1.980   3.700  18.149  0.00  0.00    +0.000 A 
ATOM     14  C   UNL     1       2.115   4.997  17.651  0.00  0.00    +0.000 A 
ATOM     15  C   UNL     1       3.044   5.863  18.232  0.00  0.00    +0.000 A 
ATOM     16  C   UNL     1       3.765   5.386  19.325  0.00  0.00    +0.000 A 
ATOM     17  N   UNL     1       3.654   4.133  19.825  0.00  0.00    +0.000 NA
BRANCH  12  19
ATOM     18  C   UNL     1       3.535   1.109  19.057  0.00  0.00    +0.000 C 
ATOM     19  O   UNL     1       2.620   2.017  19.666  0.00  0.00    +0.000 OA
ENDBRANCH  12  19
ENDBRANCH   1  15
BRANCH   1  20
ATOM     20  C   UNL     1       4.119   7.435  16.591  0.00  0.00    +0.000 C 
BRANCH  20  21
ATOM     21  C   UNL     1       5.471   6.728  16.441  0.00  0.00    +0.000 C 
ATOM     22  C   UNL     1       6.283   6.506  17.716  0.00  0.00    +0.000 C 
ATOM     23  C   UNL     1       7.359   5.532  17.245  0.00  0.00    +0.000 C 
ATOM     24  C   UNL     1       6.661   4.626  16.231  0.00  0.00    +0.000 C 
ATOM     25  C   UNL     1       5.304   5.277  15.962  0.00  0.00    +0.000 C 
ENDBRANCH  20  21
ENDBRANCH   1  20
TORSDOF 4
ENDMDL
MODEL 8
REMARK VINA RESULT:      -6.4      2.395      5.265
REMARK  Name = 
REMARK  5 active torsions:
REMARK  status: ('A' for Active; 'I' for Inactive)
REMARK    1  A    between atoms: C_1  and  O_2
REMARK    2  A    between atoms: O_2  and  C_3
REMARK    3  A    between atoms: C_6  and  N_7
REMARK    4  A    between atoms: N_7  and  C_8
REMARK    5  A    between atoms: C_8  and  C_9
REMARK                            x       y       z     vdW  Elec       q    Type
REMARK                         _______ _______ _______ _____ _____    ______ ____
ROOT
ATOM      1  N   UNL     1       4.145   4.681  18.820  0.00  0.00    +0.000 N 
ATOM      2  C   UNL     1       3.321   5.689  19.373  0.00  0.00    +0.000 C 
ATOM      3  O   UNL     1       2.709   5.484  20.420  0.00  0.00    +0.000 OA
ATOM      4  N   UNL     1       3.208   6.833  18.617  0.00  0.00    +0.000 N 
ATOM      5  C   UNL     1       2.414   7.876  19.011  0.00  0.00    +0.000 A 
ATOM      6  N   UNL     1       1.816   8.076  20.159  0.00  0.00    +0.000 NA
ATOM      7  C   UNL     1       1.057   9.229  20.086  0.00  0.00    +0.000 A 
ATOM      8  C   UNL     1       1.127   9.881  18.880  0.00  0.00    +0.000 A 
ATOM      9 BR   UNL     1       0.184  11.438  18.466  0.00  0.00    +0.000 Br
ATOM     10  S   UNL     1       2.173   9.073  17.812  0.00  0.00    +0.000 S 
ATOM     11  H   UNL     1       3.546   6.854  17.669  0.00  0.00    +0.000 HD
ENDROOT
BRANCH   1  15
ATOM     12  C   UNL     1       6.814   5.391  15.710  0.00  0.00    +0.000 A 
ATOM     13  C   UNL     1       5.566   4.884  15.390  0.00  0.00    +0.000 A 
ATOM     14  C   UNL     1       4.663   4.629  16.424  0.00  0.00    +0.000 A 
ATOM     15  C   UNL     1       5.036   4.895  17.743  0.00  0.00    +0.000 A 
ATOM     16  C   UNL     1       6.328   5.370  17.958  0.00  0.00    +0.000 A 
ATOM     17  N   UNL     1       7.222   5.627  16.973  0.00  0.00    +0.000 NA
BRANCH  12  19
ATOM     18  C   UNL     1       7.351   4.889  13.490  0.00  0.00    +0.000 C 
ATOM     19  O   UNL     1       7.670   5.645  14.656  0.00  0.00    +0.000 OA
ENDBRANCH  12  19
ENDBRANCH   1  15
BRANCH   1  20
ATOM     20  C   UNL     1       4.152   3.413  19.571  0.00  0.00    +0.000 C 
BRANCH  20  21
ATOM     21  C   UNL     1       2.945   2.468  19.562  0.00  0.00    +0.000 C 
ATOM     22  C   UNL     1       1.898   2.670  20.657  0.00  0.00    +0.000 C 
ATOM     23  C   UNL     1       0.742   1.809  20.156  0.00  0.00    +0.000 C 
ATOM     24  C   UNL     1       0.764   1.956  18.635  0.00  0.00    +0.000 C 
ATOM     25  C   UNL     1       2.077   2.666  18.308  0.00  0.00    +0.000 C 
ENDBRANCH  20  21
ENDBRANCH   1  20
TORSDOF 4
ENDMDL
MODEL 9
REMARK VINA RESULT:      -6.3      1.760      1.900
REMARK  Name = 
REMARK  5 active torsions:
REMARK  status: ('A' for Active; 'I' for Inactive)
REMARK    1  A    between atoms: C_1  and  O_2
REMARK    2  A    between atoms: O_2  and  C_3
REMARK    3  A    between atoms: C_6  and  N_7
REMARK    4  A    between atoms: N_7  and  C_8
REMARK    5  A    between atoms: C_8  and  C_9
REMARK                            x       y       z     vdW  Elec       q    Type
REMARK                         _______ _______ _______ _____ _____    ______ ____
ROOT
ATOM      1  N   UNL     1       4.070   6.297  17.505  0.00  0.00    +0.000 N 
ATOM      2  C   UNL     1       3.218   7.372  17.849  0.00  0.00    +0.000 C 
ATOM      3  O   UNL     1       3.147   8.364  17.125  0.00  0.00    +0.000 OA
ATOM      4  N   UNL     1       2.575   7.245  19.059  0.00  0.00    +0.000 N 
ATOM      5  C   UNL     1       1.749   8.226  19.537  0.00  0.00    +0.000 A 
ATOM      6  N   UNL     1       1.283   9.289  18.929  0.00  0.00    +0.000 NA
ATOM      7  C   UNL     1       0.544  10.042  19.821  0.00  0.00    +0.000 A 
ATOM      8  C   UNL     1       0.455   9.505  21.082  0.00  0.00    +0.000 A 
ATOM      9 BR   UNL     1      -0.438  10.308  22.510  0.00  0.00    +0.000 Br
ATOM     10  S   UNL     1       1.280   8.022  21.170  0.00  0.00    +0.000 S 
ATOM     11  H   UNL     1       2.845   6.525  19.708  0.00  0.00    +0.000 HD
ENDROOT
BRANCH   1  15
ATOM     12  C   UNL     1       4.160   2.619  19.445  0.00  0.00    +0.000 A 
ATOM     13  C   UNL     1       3.112   2.868  18.576  0.00  0.00    +0.000 A 
ATOM     14  C   UNL     1       3.060   4.102  17.926  0.00  0.00    +0.000 A 
ATOM     15  C   UNL     1       4.063   5.045  18.162  0.00  0.00    +0.000 A 
ATOM     16  C   UNL     1       5.053   4.708  19.084  0.00  0.00    +0.000 A 
ATOM     17  N   UNL     1       5.126   3.518  19.725  0.00  0.00    +0.000 NA
BRANCH  12  19
ATOM     18  C   UNL     1       5.233   1.252  21.009  0.00  0.00    +0.000 C 
ATOM     19  O   UNL     1       4.182   1.379  20.053  0.00  0.00    +0.000 OA
ENDBRANCH  12  19
ENDBRANCH   1  15
BRANCH   1  20
ATOM     20  C   UNL     1       4.854   6.504  16.274  0.00  0.00    +0.000 C 
BRANCH  20  21
ATOM     21  C   UNL     1       5.645   5.364  15.625  0.00  0.00    +0.000 C 
ATOM     22  C   UNL     1       4.992   4.654  14.439  0.00  0.00    +0.000 C 
ATOM     23  C   UNL     1       6.153   3.839  13.876  0.00  0.00    +0.000 C 
ATOM     24  C   UNL     1       7.388   4.718  14.069  0.00  0.00    +0.000 C 
ATOM     25  C   UNL     1       6.939   5.871  14.967  0.00  0.00    +0.000 C 
ENDBRANCH  20  21
ENDBRANCH   1  20
TORSDOF 4
ENDMDL
