MODEL 1
REMARK VINA RESULT:      -7.9      0.000      0.000
REMARK  Name = 
REMARK  7 active torsions:
REMARK  status: ('A' for Active; 'I' for Inactive)
REMARK    1  A    between atoms: C_1  and  O_2
REMARK    2  A    between atoms: O_2  and  C_3
REMARK    3  A    between atoms: C_6  and  O_7
REMARK    4  A    between atoms: O_7  and  C_8
REMARK    5  A    between atoms: C_8  and  C_9
REMARK    6  A    between atoms: C_12  and  C_13
REMARK    7  A    between atoms: C_13  and  N_14
REMARK                            x       y       z     vdW  Elec       q    Type
REMARK                         _______ _______ _______ _____ _____    ______ ____
ROOT
ATOM      1  C   UNL     1       1.842   5.407  20.344  0.00  0.00    +0.000 A 
ATOM      2  N   UNL     1       2.973   5.521  19.692  0.00  0.00    +0.000 NA
ATOM      3  N   UNL     1       3.190   4.339  19.071  0.00  0.00    +0.000 N 
ATOM      4  C   UNL     1       4.183   3.827  18.246  0.00  0.00    +0.000 A 
ATOM      5  N   UNL     1       3.775   2.563  17.951  0.00  0.00    +0.000 NA
ATOM      6  N   UNL     1       2.559   2.259  18.563  0.00  0.00    +0.000 NA
ATOM      7  C   UNL     1       2.253   3.345  19.209  0.00  0.00    +0.000 A 
ATOM      8  S   UNL     1       0.952   3.874  20.228  0.00  0.00    +0.000 S 
ENDROOT
BRANCH   1   9
ATOM      9  C   UNL     1       1.269   6.570  21.109  0.00  0.00    +0.000 C 
BRANCH   9  10
ATOM     10  O   UNL     1       1.929   7.807  20.895  0.00  0.00    +0.000 OA
BRANCH  10  14
ATOM     11  C   UNL     1      -0.303  10.553  18.645  0.00  0.00    +0.000 A 
ATOM     12  C   UNL     1      -0.559  10.315  19.997  0.00  0.00    +0.000 A 
ATOM     13  C   UNL     1       0.219   9.405  20.722  0.00  0.00    +0.000 A 
ATOM     14  C   UNL     1       1.249   8.699  20.097  0.00  0.00    +0.000 A 
ATOM     15  C   UNL     1       1.510   8.946  18.745  0.00  0.00    +0.000 A 
ATOM     16  C   UNL     1       0.741   9.870  18.026  0.00  0.00    +0.000 A 
BRANCH  11  18
ATOM     17  C   UNL     1      -0.947  12.835  18.632  0.00  0.00    +0.000 C 
ATOM     18  O   UNL     1      -1.054  11.535  18.063  0.00  0.00    +0.000 OA
ENDBRANCH  11  18
ENDBRANCH  10  14
ENDBRANCH   9  10
ENDBRANCH   1   9
BRANCH   4  19
ATOM     19  C   UNL     1       5.604   4.415  17.673  0.00  0.00    +0.000 C 
BRANCH  19  20
ATOM     20  N   UNL     1       6.060   4.615  16.175  0.00  0.00    +0.000 N 
ATOM     21  C   UNL     1       7.441   4.532  16.137  0.00  0.00    +0.000 A 
ATOM     22  N   UNL     1       7.651   5.511  15.322  0.00  0.00    +0.000 NA
ATOM     23  C   UNL     1       6.914   4.970  14.325  0.00  0.00    +0.000 A 
ATOM     24  C   UNL     1       7.448   5.147  13.003  0.00  0.00    +0.000 A 
ATOM     25  C   UNL     1       7.202   4.347  11.923  0.00  0.00    +0.000 A 
ATOM     26  C   UNL     1       6.259   3.403  12.161  0.00  0.00    +0.000 A 
ATOM     27  C   UNL     1       5.581   3.361  13.489  0.00  0.00    +0.000 A 
ATOM     28  C   UNL     1       5.814   3.995  14.870  0.00  0.00    +0.000 A 
ENDBRANCH  19  20
ENDBRANCH   4  19
TORSDOF 6
ENDMDL
MODEL 2
REMARK VINA RESULT:      -7.9      3.420      8.670
REMARK  Name = 
REMARK  7 active torsions:
REMARK  status: ('A' for Active; 'I' for Inactive)
REMARK    1  A    between atoms: C_1  and  O_2
REMARK    2  A    between atoms: O_2  and  C_3
REMARK    3  A    between atoms: C_6  and  O_7
REMARK    4  A    between atoms: O_7  and  C_8
REMARK    5  A    between atoms: C_8  and  C_9
REMARK    6  A    between atoms: C_12  and  C_13
REMARK    7  A    between atoms: C_13  and  N_14
REMARK                            x       y       z     vdW  Elec       q    Type
REMARK                         _______ _______ _______ _____ _____    ______ ____
ROOT
ATOM      1  C   UNL     1       4.026   4.411  17.606  0.00  0.00    +0.000 A 
ATOM      2  N   UNL     1       3.569   5.637  17.679  0.00  0.00    +0.000 NA
ATOM      3  N   UNL     1       2.895   5.737  18.847  0.00  0.00    +0.000 N 
ATOM      4  C   UNL     1       2.195   6.745  19.499  0.00  0.00    +0.000 A 
ATOM      5  N   UNL     1       1.774   6.182  20.664  0.00  0.00    +0.000 NA
ATOM      6  N   UNL     1       2.183   4.852  20.768  0.00  0.00    +0.000 NA
ATOM      7  C   UNL     1       2.847   4.639  19.672  0.00  0.00    +0.000 A 
ATOM      8  S   UNL     1       3.695   3.306  18.957  0.00  0.00    +0.000 S 
ENDROOT
BRANCH   1   9
ATOM      9  C   UNL     1       4.878   3.970  16.445  0.00  0.00    +0.000 C 
BRANCH   9  10
ATOM     10  O   UNL     1       6.269   3.910  16.716  0.00  0.00    +0.000 OA
BRANCH  10  14
ATOM     11  C   UNL     1       8.018   7.399  18.247  0.00  0.00    +0.000 A 
ATOM     12  C   UNL     1       8.056   6.185  18.934  0.00  0.00    +0.000 A 
ATOM     13  C   UNL     1       7.477   5.035  18.383  0.00  0.00    +0.000 A 
ATOM     14  C   UNL     1       6.828   5.091  17.148  0.00  0.00    +0.000 A 
ATOM     15  C   UNL     1       6.801   6.306  16.456  0.00  0.00    +0.000 A 
ATOM     16  C   UNL     1       7.395   7.452  17.002  0.00  0.00    +0.000 A 
BRANCH  11  18
ATOM     17  C   UNL     1       8.535   9.714  18.234  0.00  0.00    +0.000 C 
ATOM     18  O   UNL     1       8.702   8.430  18.827  0.00  0.00    +0.000 OA
ENDBRANCH  11  18
ENDBRANCH  10  14
ENDBRANCH   9  10
ENDBRANCH   1   9
BRANCH   4  19
ATOM     19  C   UNL     1       1.814   8.295  19.119  0.00  0.00    +0.000 C 
BRANCH  19  20
ATOM     20  N   UNL     1       1.191   9.414  20.042  0.00  0.00    +0.000 N 
ATOM     21  C   UNL     1       0.335  10.177  19.266  0.00  0.00    +0.000 A 
ATOM     22  N   UNL     1       0.670  11.335  19.726  0.00  0.00    +0.000 NA
ATOM     23  C   UNL     1       0.338  11.036  21.002  0.00  0.00    +0.000 A 
ATOM     24  C   UNL     1      -0.287  12.100  21.739  0.00  0.00    +0.000 A 
ATOM     25  C   UNL     1      -1.119  11.954  22.812  0.00  0.00    +0.000 A 
ATOM     26  C   UNL     1      -1.212  10.672  23.246  0.00  0.00    +0.000 A 
ATOM     27  C   UNL     1      -0.404   9.612  22.579  0.00  0.00    +0.000 A 
ATOM     28  C   UNL     1       0.416   9.495  21.284  0.00  0.00    +0.000 A 
ENDBRANCH  19  20
ENDBRANCH   4  19
TORSDOF 6
ENDMDL
MODEL 3
REMARK VINA RESULT:      -7.9      1.901      2.255
REMARK  Name = 
REMARK  7 active torsions:
REMARK  status: ('A' for Active; 'I' for Inactive)
REMARK    1  A    between atoms: C_1  and  O_2
REMARK    2  A    between atoms: O_2  and  C_3
REMARK    3  A    between atoms: C_6  and  O_7
REMARK    4  A    between atoms: O_7  and  C_8
REMARK    5  A    between atoms: C_8  and  C_9
REMARK    6  A    between atoms: C_12  and  C_13
REMARK    7  A    between atoms: C_13  and  N_14
REMARK                            x       y       z     vdW  Elec       q    Type
REMARK                         _______ _______ _______ _____ _____    ______ ____
ROOT
ATOM      1  C   UNL     1       2.138   6.458  20.304  0.00  0.00    +0.000 A 
ATOM      2  N   UNL     1       2.914   6.742  19.286  0.00  0.00    +0.000 NA
ATOM      3  N   UNL     1       3.346   5.563  18.780  0.00  0.00    +0.000 N 
ATOM      4  C   UNL     1       4.171   5.185  17.729  0.00  0.00    +0.000 A 
ATOM      5  N   UNL     1       4.171   3.824  17.757  0.00  0.00    +0.000 NA
ATOM      6  N   UNL     1       3.375   3.332  18.792  0.00  0.00    +0.000 NA
ATOM      7  C   UNL     1       2.905   4.400  19.364  0.00  0.00    +0.000 A 
ATOM      8  S   UNL     1       1.858   4.750  20.701  0.00  0.00    +0.000 S 
ENDROOT
BRANCH   1   9
ATOM      9  C   UNL     1       1.438   7.549  21.070  0.00  0.00    +0.000 C 
BRANCH   9  10
ATOM     10  O   UNL     1       0.844   8.555  20.266  0.00  0.00    +0.000 OA
BRANCH  10  14
ATOM     11  C   UNL     1      -1.149  11.436  22.571  0.00  0.00    +0.000 A 
ATOM     12  C   UNL     1      -0.819  10.177  23.076  0.00  0.00    +0.000 A 
ATOM     13  C   UNL     1      -0.136   9.246  22.283  0.00  0.00    +0.000 A 
ATOM     14  C   UNL     1       0.203   9.553  20.964  0.00  0.00    +0.000 A 
ATOM     15  C   UNL     1      -0.119  10.819  20.463  0.00  0.00    +0.000 A 
ATOM     16  C   UNL     1      -0.788  11.755  21.264  0.00  0.00    +0.000 A 
BRANCH  11  18
ATOM     17  C   UNL     1      -3.123  12.505  23.332  0.00  0.00    +0.000 C 
ATOM     18  O   UNL     1      -1.721  12.300  23.461  0.00  0.00    +0.000 OA
ENDBRANCH  11  18
ENDBRANCH  10  14
ENDBRANCH   9  10
ENDBRANCH   1   9
BRANCH   4  19
ATOM     19  C   UNL     1       5.059   6.011  16.624  0.00  0.00    +0.000 C 
BRANCH  19  20
ATOM     20  N   UNL     1       5.697   5.488  15.278  0.00  0.00    +0.000 N 
ATOM     21  C   UNL     1       6.945   4.967  15.575  0.00  0.00    +0.000 A 
ATOM     22  N   UNL     1       7.581   5.454  14.564  0.00  0.00    +0.000 NA
ATOM     23  C   UNL     1       6.795   4.844  13.647  0.00  0.00    +0.000 A 
ATOM     24  C   UNL     1       7.480   4.340  12.489  0.00  0.00    +0.000 A 
ATOM     25  C   UNL     1       7.059   3.319  11.686  0.00  0.00    +0.000 A 
ATOM     26  C   UNL     1       5.813   2.878  11.992  0.00  0.00    +0.000 A 
ATOM     27  C   UNL     1       5.045   3.547  13.081  0.00  0.00    +0.000 A 
ATOM     28  C   UNL     1       5.364   4.539  14.211  0.00  0.00    +0.000 A 
ENDBRANCH  19  20
ENDBRANCH   4  19
TORSDOF 6
ENDMDL
MODEL 4
REMARK VINA RESULT:      -7.8      2.447      3.353
REMARK  Name = 
REMARK  7 active torsions:
REMARK  status: ('A' for Active; 'I' for Inactive)
REMARK    1  A    between atoms: C_1  and  O_2
REMARK    2  A    between atoms: O_2  and  C_3
REMARK    3  A    between atoms: C_6  and  O_7
REMARK    4  A    between atoms: O_7  and  C_8
REMARK    5  A    between atoms: C_8  and  C_9
REMARK    6  A    between atoms: C_12  and  C_13
REMARK    7  A    between atoms: C_13  and  N_14
REMARK                            x       y       z     vdW  Elec       q    Type
REMARK                         _______ _______ _______ _____ _____    ______ ____
ROOT
ATOM      1  C   UNL     1       1.861   5.119  20.230  0.00  0.00    +0.000 A 
ATOM      2  N   UNL     1       2.773   5.108  19.290  0.00  0.00    +0.000 NA
ATOM      3  N   UNL     1       2.802   3.854  18.784  0.00  0.00    +0.000 N 
ATOM      4  C   UNL     1       3.530   3.206  17.793  0.00  0.00    +0.000 A 
ATOM      5  N   UNL     1       3.044   1.935  17.777  0.00  0.00    +0.000 NA
ATOM      6  N   UNL     1       2.037   1.758  18.726  0.00  0.00    +0.000 NA
ATOM      7  C   UNL     1       1.928   2.923  19.291  0.00  0.00    +0.000 A 
ATOM      8  S   UNL     1       0.958   3.623  20.547  0.00  0.00    +0.000 S 
ENDROOT
BRANCH   1   9
ATOM      9  C   UNL     1       1.528   6.387  20.970  0.00  0.00    +0.000 C 
BRANCH   9  10
ATOM     10  O   UNL     1       1.572   7.566  20.182  0.00  0.00    +0.000 OA
BRANCH  10  14
ATOM     11  C   UNL     1      -0.123  10.834  22.189  0.00  0.00    +0.000 A 
ATOM     12  C   UNL     1      -0.040   9.567  22.768  0.00  0.00    +0.000 A 
ATOM     13  C   UNL     1       0.550   8.503  22.075  0.00  0.00    +0.000 A 
ATOM     14  C   UNL     1       1.042   8.686  20.781  0.00  0.00    +0.000 A 
ATOM     15  C   UNL     1       0.967   9.959  20.207  0.00  0.00    +0.000 A 
ATOM     16  C   UNL     1       0.391  11.026  20.909  0.00  0.00    +0.000 A 
BRANCH  11  18
ATOM     17  C   UNL     1      -2.034  11.833  23.176  0.00  0.00    +0.000 C 
ATOM     18  O   UNL     1      -0.623  11.821  22.991  0.00  0.00    +0.000 OA
ENDBRANCH  11  18
ENDBRANCH  10  14
ENDBRANCH   9  10
ENDBRANCH   1   9
BRANCH   4  19
ATOM     19  C   UNL     1       4.748   3.662  16.793  0.00  0.00    +0.000 C 
BRANCH  19  20
ATOM     20  N   UNL     1       5.718   4.902  16.918  0.00  0.00    +0.000 N 
ATOM     21  C   UNL     1       4.948   6.051  16.856  0.00  0.00    +0.000 A 
ATOM     22  N   UNL     1       5.725   6.739  16.091  0.00  0.00    +0.000 NA
ATOM     23  C   UNL     1       6.779   6.677  16.936  0.00  0.00    +0.000 A 
ATOM     24  C   UNL     1       7.560   7.879  17.032  0.00  0.00    +0.000 A 
ATOM     25  C   UNL     1       8.333   8.253  18.094  0.00  0.00    +0.000 A 
ATOM     26  C   UNL     1       8.429   7.295  19.049  0.00  0.00    +0.000 A 
ATOM     27  C   UNL     1       7.760   5.979  18.837  0.00  0.00    +0.000 A 
ATOM     28  C   UNL     1       6.715   5.414  17.863  0.00  0.00    +0.000 A 
ENDBRANCH  19  20
ENDBRANCH   4  19
TORSDOF 6
ENDMDL
MODEL 5
REMARK VINA RESULT:      -7.7      3.304      8.023
REMARK  Name = 
REMARK  7 active torsions:
REMARK  status: ('A' for Active; 'I' for Inactive)
REMARK    1  A    between atoms: C_1  and  O_2
REMARK    2  A    between atoms: O_2  and  C_3
REMARK    3  A    between atoms: C_6  and  O_7
REMARK    4  A    between atoms: O_7  and  C_8
REMARK    5  A    between atoms: C_8  and  C_9
REMARK    6  A    between atoms: C_12  and  C_13
REMARK    7  A    between atoms: C_13  and  N_14
REMARK                            x       y       z     vdW  Elec       q    Type
REMARK                         _______ _______ _______ _____ _____    ______ ____
ROOT
ATOM      1  C   UNL     1       3.666   4.217  17.253  0.00  0.00    +0.000 A 
ATOM      2  N   UNL     1       3.477   5.180  18.121  0.00  0.00    +0.000 NA
ATOM      3  N   UNL     1       2.522   4.755  18.980  0.00  0.00    +0.000 N 
ATOM      4  C   UNL     1       1.888   5.290  20.094  0.00  0.00    +0.000 A 
ATOM      5  N   UNL     1       1.030   4.318  20.509  0.00  0.00    +0.000 NA
ATOM      6  N   UNL     1       1.100   3.189  19.694  0.00  0.00    +0.000 NA
ATOM      7  C   UNL     1       2.001   3.495  18.808  0.00  0.00    +0.000 A 
ATOM      8  S   UNL     1       2.723   2.722  17.433  0.00  0.00    +0.000 S 
ENDROOT
BRANCH   1   9
ATOM      9  C   UNL     1       4.712   4.339  16.177  0.00  0.00    +0.000 C 
BRANCH   9  10
ATOM     10  O   UNL     1       6.028   4.007  16.586  0.00  0.00    +0.000 OA
BRANCH  10  14
ATOM     11  C   UNL     1       8.059   7.219  18.357  0.00  0.00    +0.000 A 
ATOM     12  C   UNL     1       7.345   7.357  17.166  0.00  0.00    +0.000 A 
ATOM     13  C   UNL     1       6.662   6.266  16.613  0.00  0.00    +0.000 A 
ATOM     14  C   UNL     1       6.708   5.015  17.232  0.00  0.00    +0.000 A 
ATOM     15  C   UNL     1       7.416   4.882  18.431  0.00  0.00    +0.000 A 
ATOM     16  C   UNL     1       8.084   5.979  18.991  0.00  0.00    +0.000 A 
BRANCH  11  18
ATOM     17  C   UNL     1       8.385   9.554  18.102  0.00  0.00    +0.000 C 
ATOM     18  O   UNL     1       8.600   8.369  18.860  0.00  0.00    +0.000 OA
ENDBRANCH  11  18
ENDBRANCH  10  14
ENDBRANCH   9  10
ENDBRANCH   1   9
BRANCH   4  19
ATOM     19  C   UNL     1       1.972   6.735  20.868  0.00  0.00    +0.000 C 
BRANCH  19  20
ATOM     20  N   UNL     1       1.144   8.051  20.596  0.00  0.00    +0.000 N 
ATOM     21  C   UNL     1       1.085   8.767  21.779  0.00  0.00    +0.000 A 
ATOM     22  N   UNL     1      -0.153   9.122  21.706  0.00  0.00    +0.000 NA
ATOM     23  C   UNL     1      -0.001   9.772  20.530  0.00  0.00    +0.000 A 
ATOM     24  C   UNL     1      -0.743  10.997  20.405  0.00  0.00    +0.000 A 
ATOM     25  C   UNL     1      -0.431  12.047  19.590  0.00  0.00    +0.000 A 
ATOM     26  C   UNL     1       0.607  11.786  18.757  0.00  0.00    +0.000 A 
ATOM     27  C   UNL     1       1.241  10.437  18.774  0.00  0.00    +0.000 A 
ATOM     28  C   UNL     1       1.202   9.208  19.698  0.00  0.00    +0.000 A 
ENDBRANCH  19  20
ENDBRANCH   4  19
TORSDOF 6
ENDMDL
MODEL 6
REMARK VINA RESULT:      -7.7      0.893      1.326
REMARK  Name = 
REMARK  7 active torsions:
REMARK  status: ('A' for Active; 'I' for Inactive)
REMARK    1  A    between atoms: C_1  and  O_2
REMARK    2  A    between atoms: O_2  and  C_3
REMARK    3  A    between atoms: C_6  and  O_7
REMARK    4  A    between atoms: O_7  and  C_8
REMARK    5  A    between atoms: C_8  and  C_9
REMARK    6  A    between atoms: C_12  and  C_13
REMARK    7  A    between atoms: C_13  and  N_14
REMARK                            x       y       z     vdW  Elec       q    Type
REMARK                         _______ _______ _______ _____ _____    ______ ____
ROOT
ATOM      1  C   UNL     1       1.784   5.658  20.400  0.00  0.00    +0.000 A 
ATOM      2  N   UNL     1       2.764   5.976  19.589  0.00  0.00    +0.000 NA
ATOM      3  N   UNL     1       3.210   4.823  19.039  0.00  0.00    +0.000 N 
ATOM      4  C   UNL     1       4.201   4.484  18.127  0.00  0.00    +0.000 A 
ATOM      5  N   UNL     1       4.106   3.133  17.994  0.00  0.00    +0.000 NA
ATOM      6  N   UNL     1       3.090   2.608  18.793  0.00  0.00    +0.000 NA
ATOM      7  C   UNL     1       2.587   3.648  19.387  0.00  0.00    +0.000 A 
ATOM      8  S   UNL     1       1.319   3.949  20.532  0.00  0.00    +0.000 S 
ENDROOT
BRANCH   1   9
ATOM      9  C   UNL     1       1.018   6.721  21.142  0.00  0.00    +0.000 C 
BRANCH   9  10
ATOM     10  O   UNL     1       1.675   7.975  21.232  0.00  0.00    +0.000 OA
BRANCH  10  14
ATOM     11  C   UNL     1      -0.655  11.296  20.174  0.00  0.00    +0.000 A 
ATOM     12  C   UNL     1       0.045  10.547  19.227  0.00  0.00    +0.000 A 
ATOM     13  C   UNL     1       0.799   9.432  19.615  0.00  0.00    +0.000 A 
ATOM     14  C   UNL     1       0.883   9.067  20.960  0.00  0.00    +0.000 A 
ATOM     15  C   UNL     1       0.172   9.814  21.905  0.00  0.00    +0.000 A 
ATOM     16  C   UNL     1      -0.595  10.919  21.513  0.00  0.00    +0.000 A 
BRANCH  11  18
ATOM     17  C   UNL     1      -2.274  12.973  20.609  0.00  0.00    +0.000 C 
ATOM     18  O   UNL     1      -1.439  12.298  19.675  0.00  0.00    +0.000 OA
ENDBRANCH  11  18
ENDBRANCH  10  14
ENDBRANCH   9  10
ENDBRANCH   1   9
BRANCH   4  19
ATOM     19  C   UNL     1       5.343   5.338  17.317  0.00  0.00    +0.000 C 
BRANCH  19  20
ATOM     20  N   UNL     1       5.872   5.133  15.844  0.00  0.00    +0.000 N 
ATOM     21  C   UNL     1       7.169   4.653  15.921  0.00  0.00    +0.000 A 
ATOM     22  N   UNL     1       7.676   5.371  14.977  0.00  0.00    +0.000 NA
ATOM     23  C   UNL     1       6.835   4.897  14.029  0.00  0.00    +0.000 A 
ATOM     24  C   UNL     1       7.428   4.677  12.738  0.00  0.00    +0.000 A 
ATOM     25  C   UNL     1       6.983   3.805  11.787  0.00  0.00    +0.000 A 
ATOM     26  C   UNL     1       5.799   3.226  12.105  0.00  0.00    +0.000 A 
ATOM     27  C   UNL     1       5.108   3.614  13.368  0.00  0.00    +0.000 A 
ATOM     28  C   UNL     1       5.485   4.389  14.642  0.00  0.00    +0.000 A 
ENDBRANCH  19  20
ENDBRANCH   4  19
TORSDOF 6
ENDMDL
MODEL 7
REMARK VINA RESULT:      -7.6      3.315      9.158
REMARK  Name = 
REMARK  7 active torsions:
REMARK  status: ('A' for Active; 'I' for Inactive)
REMARK    1  A    between atoms: C_1  and  O_2
REMARK    2  A    between atoms: O_2  and  C_3
REMARK    3  A    between atoms: C_6  and  O_7
REMARK    4  A    between atoms: O_7  and  C_8
REMARK    5  A    between atoms: C_8  and  C_9
REMARK    6  A    between atoms: C_12  and  C_13
REMARK    7  A    between atoms: C_13  and  N_14
REMARK                            x       y       z     vdW  Elec       q    Type
REMARK                         _______ _______ _______ _____ _____    ______ ____
ROOT
ATOM      1  C   UNL     1       5.770   5.228  17.678  0.00  0.00    +0.000 A 
ATOM      2  N   UNL     1       5.045   6.319  17.722  0.00  0.00    +0.000 NA
ATOM      3  N   UNL     1       3.949   6.033  18.462  0.00  0.00    +0.000 N 
ATOM      4  C   UNL     1       2.824   6.738  18.873  0.00  0.00    +0.000 A 
ATOM      5  N   UNL     1       2.112   5.854  19.622  0.00  0.00    +0.000 NA
ATOM      6  N   UNL     1       2.747   4.614  19.697  0.00  0.00    +0.000 NA
ATOM      7  C   UNL     1       3.832   4.773  18.999  0.00  0.00    +0.000 A 
ATOM      8  S   UNL     1       5.190   3.793  18.550  0.00  0.00    +0.000 S 
ENDROOT
BRANCH   1   9
ATOM      9  C   UNL     1       7.101   5.212  16.974  0.00  0.00    +0.000 C 
BRANCH   9  10
ATOM     10  O   UNL     1       7.127   5.900  15.734  0.00  0.00    +0.000 OA
BRANCH  10  14
ATOM     11  C   UNL     1       5.939   3.476  12.525  0.00  0.00    +0.000 A 
ATOM     12  C   UNL     1       5.173   3.603  13.685  0.00  0.00    +0.000 A 
ATOM     13  C   UNL     1       5.592   4.437  14.729  0.00  0.00    +0.000 A 
ATOM     14  C   UNL     1       6.798   5.135  14.638  0.00  0.00    +0.000 A 
ATOM     15  C   UNL     1       7.558   5.014  13.470  0.00  0.00    +0.000 A 
ATOM     16  C   UNL     1       7.129   4.192  12.420  0.00  0.00    +0.000 A 
BRANCH  11  18
ATOM     17  C   UNL     1       4.082   3.092  11.101  0.00  0.00    +0.000 C 
ATOM     18  O   UNL     1       5.387   2.719  11.530  0.00  0.00    +0.000 OA
ENDBRANCH  11  18
ENDBRANCH  10  14
ENDBRANCH   9  10
ENDBRANCH   1   9
BRANCH   4  19
ATOM     19  C   UNL     1       2.273   8.260  18.602  0.00  0.00    +0.000 C 
BRANCH  19  20
ATOM     20  N   UNL     1       1.566   9.248  19.610  0.00  0.00    +0.000 N 
ATOM     21  C   UNL     1       0.517   9.857  18.941  0.00  0.00    +0.000 A 
ATOM     22  N   UNL     1       0.694  11.052  19.393  0.00  0.00    +0.000 NA
ATOM     23  C   UNL     1       0.550  10.691  20.689  0.00  0.00    +0.000 A 
ATOM     24  C   UNL     1      -0.169  11.626  21.510  0.00  0.00    +0.000 A 
ATOM     25  C   UNL     1      -0.849  11.331  22.657  0.00  0.00    +0.000 A 
ATOM     26  C   UNL     1      -0.678  10.050  23.066  0.00  0.00    +0.000 A 
ATOM     27  C   UNL     1       0.228   9.150  22.297  0.00  0.00    +0.000 A 
ATOM     28  C   UNL     1       0.919   9.185  20.924  0.00  0.00    +0.000 A 
ENDBRANCH  19  20
ENDBRANCH   4  19
TORSDOF 6
ENDMDL
MODEL 8
REMARK VINA RESULT:      -7.6      1.839      2.349
REMARK  Name = 
REMARK  7 active torsions:
REMARK  status: ('A' for Active; 'I' for Inactive)
REMARK    1  A    between atoms: C_1  and  O_2
REMARK    2  A    between atoms: O_2  and  C_3
REMARK    3  A    between atoms: C_6  and  O_7
REMARK    4  A    between atoms: O_7  and  C_8
REMARK    5  A    between atoms: C_8  and  C_9
REMARK    6  A    between atoms: C_12  and  C_13
REMARK    7  A    between atoms: C_13  and  N_14
REMARK                            x       y       z     vdW  Elec       q    Type
REMARK                         _______ _______ _______ _____ _____    ______ ____
ROOT
ATOM      1  C   UNL     1       2.126   6.713  19.911  0.00  0.00    +0.000 A 
ATOM      2  N   UNL     1       3.117   6.856  19.065  0.00  0.00    +0.000 NA
ATOM      3  N   UNL     1       3.725   5.651  18.964  0.00  0.00    +0.000 N 
ATOM      4  C   UNL     1       4.808   5.150  18.253  0.00  0.00    +0.000 A 
ATOM      5  N   UNL     1       4.874   3.835  18.598  0.00  0.00    +0.000 NA
ATOM      6  N   UNL     1       3.871   3.490  19.504  0.00  0.00    +0.000 NA
ATOM      7  C   UNL     1       3.215   4.598  19.684  0.00  0.00    +0.000 A 
ATOM      8  S   UNL     1       1.847   5.108  20.620  0.00  0.00    +0.000 S 
ENDROOT
BRANCH   1   9
ATOM      9  C   UNL     1       1.198   7.858  20.216  0.00  0.00    +0.000 C 
BRANCH   9  10
ATOM     10  O   UNL     1       1.229   8.308  21.561  0.00  0.00    +0.000 OA
BRANCH  10  14
ATOM     11  C   UNL     1      -1.363  11.537  22.224  0.00  0.00    +0.000 A 
ATOM     12  C   UNL     1      -0.756  11.311  20.987  0.00  0.00    +0.000 A 
ATOM     13  C   UNL     1       0.089  10.211  20.796  0.00  0.00    +0.000 A 
ATOM     14  C   UNL     1       0.361   9.336  21.850  0.00  0.00    +0.000 A 
ATOM     15  C   UNL     1      -0.256   9.559  23.086  0.00  0.00    +0.000 A 
ATOM     16  C   UNL     1      -1.115  10.650  23.269  0.00  0.00    +0.000 A 
BRANCH  11  18
ATOM     17  C   UNL     1      -3.253  12.509  23.274  0.00  0.00    +0.000 C 
ATOM     18  O   UNL     1      -2.247  12.577  22.269  0.00  0.00    +0.000 OA
ENDBRANCH  11  18
ENDBRANCH  10  14
ENDBRANCH   9  10
ENDBRANCH   1   9
BRANCH   4  19
ATOM     19  C   UNL     1       5.901   5.814  17.225  0.00  0.00    +0.000 C 
BRANCH  19  20
ATOM     20  N   UNL     1       6.225   5.412  15.733  0.00  0.00    +0.000 N 
ATOM     21  C   UNL     1       7.475   4.817  15.716  0.00  0.00    +0.000 A 
ATOM     22  N   UNL     1       7.922   5.385  14.647  0.00  0.00    +0.000 NA
ATOM     23  C   UNL     1       6.935   4.904  13.858  0.00  0.00    +0.000 A 
ATOM     24  C   UNL     1       7.343   4.500  12.541  0.00  0.00    +0.000 A 
ATOM     25  C   UNL     1       6.712   3.585  11.748  0.00  0.00    +0.000 A 
ATOM     26  C   UNL     1       5.530   3.160  12.259  0.00  0.00    +0.000 A 
ATOM     27  C   UNL     1       5.036   3.738  13.542  0.00  0.00    +0.000 A 
ATOM     28  C   UNL     1       5.631   4.594  14.672  0.00  0.00    +0.000 A 
ENDBRANCH  19  20
ENDBRANCH   4  19
TORSDOF 6
ENDMDL
MODEL 9
REMARK VINA RESULT:      -7.5      1.627      2.064
REMARK  Name = 
REMARK  7 active torsions:
REMARK  status: ('A' for Active; 'I' for Inactive)
REMARK    1  A    between atoms: C_1  and  O_2
REMARK    2  A    between atoms: O_2  and  C_3
REMARK    3  A    between atoms: C_6  and  O_7
REMARK    4  A    between atoms: O_7  and  C_8
REMARK    5  A    between atoms: C_8  and  C_9
REMARK    6  A    between atoms: C_12  and  C_13
REMARK    7  A    between atoms: C_13  and  N_14
REMARK                            x       y       z     vdW  Elec       q    Type
REMARK                         _______ _______ _______ _____ _____    ______ ____
ROOT
ATOM      1  C   UNL     1       2.077   6.050  20.307  0.00  0.00    +0.000 A 
ATOM      2  N   UNL     1       3.198   6.013  19.628  0.00  0.00    +0.000 NA
ATOM      3  N   UNL     1       3.233   4.821  18.991  0.00  0.00    +0.000 N 
ATOM      4  C   UNL     1       4.125   4.185  18.137  0.00  0.00    +0.000 A 
ATOM      5  N   UNL     1       3.537   2.994  17.840  0.00  0.00    +0.000 NA
ATOM      6  N   UNL     1       2.305   2.856  18.479  0.00  0.00    +0.000 NA
ATOM      7  C   UNL     1       2.168   3.966  19.143  0.00  0.00    +0.000 A 
ATOM      8  S   UNL     1       0.979   4.658  20.198  0.00  0.00    +0.000 S 
ENDROOT
BRANCH   1   9
ATOM      9  C   UNL     1       1.690   7.272  21.096  0.00  0.00    +0.000 C 
BRANCH   9  10
ATOM     10  O   UNL     1       0.862   8.192  20.403  0.00  0.00    +0.000 OA
BRANCH  10  14
ATOM     11  C   UNL     1      -0.664  11.406  22.621  0.00  0.00    +0.000 A 
ATOM     12  C   UNL     1      -0.030  11.585  21.391  0.00  0.00    +0.000 A 
ATOM     13  C   UNL     1       0.450  10.486  20.668  0.00  0.00    +0.000 A 
ATOM     14  C   UNL     1       0.327   9.193  21.181  0.00  0.00    +0.000 A 
ATOM     15  C   UNL     1      -0.318   9.015  22.409  0.00  0.00    +0.000 A 
ATOM     16  C   UNL     1      -0.813  10.115  23.122  0.00  0.00    +0.000 A 
BRANCH  11  18
ATOM     17  C   UNL     1      -0.696  13.776  22.696  0.00  0.00    +0.000 C 
ATOM     18  O   UNL     1      -1.186  12.534  23.190  0.00  0.00    +0.000 OA
ENDBRANCH  11  18
ENDBRANCH  10  14
ENDBRANCH   9  10
ENDBRANCH   1   9
BRANCH   4  19
ATOM     19  C   UNL     1       5.601   4.576  17.536  0.00  0.00    +0.000 C 
BRANCH  19  20
ATOM     20  N   UNL     1       6.054   4.701  16.029  0.00  0.00    +0.000 N 
ATOM     21  C   UNL     1       7.430   4.556  15.985  0.00  0.00    +0.000 A 
ATOM     22  N   UNL     1       7.676   5.493  15.134  0.00  0.00    +0.000 NA
ATOM     23  C   UNL     1       6.908   4.950  14.162  0.00  0.00    +0.000 A 
ATOM     24  C   UNL     1       7.440   5.054  12.831  0.00  0.00    +0.000 A 
ATOM     25  C   UNL     1       7.151   4.227  11.783  0.00  0.00    +0.000 A 
ATOM     26  C   UNL     1       6.169   3.334  12.062  0.00  0.00    +0.000 A 
ATOM     27  C   UNL     1       5.501   3.371  13.394  0.00  0.00    +0.000 A 
ATOM     28  C   UNL     1       5.771   4.044  14.749  0.00  0.00    +0.000 A 
ENDBRANCH  19  20
ENDBRANCH   4  19
TORSDOF 6
ENDMDL
