MODEL 1
REMARK VINA RESULT:      -8.6      0.000      0.000
REMARK  Name = 
REMARK  8 active torsions:
REMARK  status: ('A' for Active; 'I' for Inactive)
REMARK    1  A    between atoms: N_1  and  C_2
REMARK    2  A    between atoms: C_3  and  C_4
REMARK    3  A    between atoms: N_6  and  C_7
REMARK    4  A    between atoms: C_7  and  C_8
REMARK    5  A    between atoms: N_25  and  C_26
REMARK    6  A    between atoms: C_26  and  C_27
REMARK    7  A    between atoms: C_27  and  C_28
REMARK    8  A    between atoms: C_28  and  N_29
REMARK                            x       y       z     vdW  Elec       q    Type
REMARK                         _______ _______ _______ _____ _____    ______ ____
ROOT
ATOM      1  C   UNL     1       6.445   5.362  18.572  0.00  0.00    +0.000 A 
ATOM      2  C   UNL     1       5.595   4.524  17.881  0.00  0.00    +0.000 A 
ATOM      3  C   UNL     1       5.728   4.908  16.532  0.00  0.00    +0.000 A 
ATOM      4  N   UNL     1       4.974   4.523  15.484  0.00  0.00    +0.000 NA
ATOM      5  C   UNL     1       5.627   4.440  14.338  0.00  0.00    +0.000 A 
ATOM      6  C   UNL     1       4.943   3.748  13.343  0.00  0.00    +0.000 A 
ATOM      7  C   UNL     1       5.569   3.377  12.167  0.00  0.00    +0.000 A 
ATOM      8  C   UNL     1       6.893   3.739  11.986  0.00  0.00    +0.000 A 
ATOM      9  C   UNL     1       7.567   4.492  12.975  0.00  0.00    +0.000 A 
ATOM     10  C   UNL     1       6.963   4.880  14.185  0.00  0.00    +0.000 A 
ATOM     11  N   UNL     1       7.627   5.573  15.186  0.00  0.00    +0.000 NA
ATOM     12  C   UNL     1       6.960   5.539  16.377  0.00  0.00    +0.000 A 
ATOM     13  N   UNL     1       7.276   6.009  17.646  0.00  0.00    +0.000 N 
ENDROOT
BRANCH   2  14
ATOM     14  C   UNL     1       4.788   3.466  18.461  0.00  0.00    +0.000 C 
ATOM     15  O   UNL     1       5.286   2.519  19.069  0.00  0.00    +0.000 OA
ATOM     16  N   UNL     1       3.428   3.454  18.196  0.00  0.00    +0.000 N 
ATOM     17  H   UNL     1       2.930   2.701  18.649  0.00  0.00    +0.000 HD
BRANCH  16  18
ATOM     18  C   UNL     1       2.664   4.548  17.646  0.00  0.00    +0.000 C 
BRANCH  18  19
ATOM     19  C   UNL     1       2.407   5.685  18.580  0.00  0.00    +0.000 A 
ATOM     20  C   UNL     1       2.450   7.005  18.104  0.00  0.00    +0.000 A 
ATOM     21  C   UNL     1       2.136   8.059  18.953  0.00  0.00    +0.000 A 
ATOM     22  C   UNL     1       1.778   7.789  20.269  0.00  0.00    +0.000 A 
ATOM     23  F   UNL     1       1.472   8.802  21.077  0.00  0.00    +0.000 F 
ATOM     24  C   UNL     1       1.718   6.491  20.755  0.00  0.00    +0.000 A 
ATOM     25  C   UNL     1       2.031   5.432  19.906  0.00  0.00    +0.000 A 
ENDBRANCH  18  19
ENDBRANCH  16  18
ENDBRANCH   2  14
BRANCH   1  26
ATOM     26  N   UNL     1       6.520   5.554  19.911  0.00  0.00    +0.000 N 
ATOM     27  H   UNL     1       7.074   4.878  20.448  0.00  0.00    +0.000 HD
ATOM     28  H   UNL     1       5.768   5.941  20.471  0.00  0.00    +0.000 HD
ENDBRANCH   1  26
BRANCH  13  29
ATOM     29  C   UNL     1       8.065   7.146  18.071  0.00  0.00    +0.000 C 
BRANCH  29  30
ATOM     30  C   UNL     1       7.729   8.602  17.772  0.00  0.00    +0.000 C 
BRANCH  30  31
ATOM     31  C   UNL     1       8.933   9.453  18.270  0.00  0.00    +0.000 C 
BRANCH  31  32
ATOM     32  N   UNL     1       8.596  10.768  18.831  0.00  0.00    +0.000 NA
ATOM     33  C   UNL     1       8.861  11.862  17.859  0.00  0.00    +0.000 C 
ATOM     34  C   UNL     1      10.353  12.205  17.669  0.00  0.00    +0.000 C 
ATOM     35  O   UNL     1      10.992  12.489  18.919  0.00  0.00    +0.000 OA
ATOM     36  C   UNL     1      10.823  11.407  19.842  0.00  0.00    +0.000 C 
ATOM     37  C   UNL     1       9.337  11.085  20.067  0.00  0.00    +0.000 C 
ENDBRANCH  31  32
ENDBRANCH  30  31
ENDBRANCH  29  30
ENDBRANCH  13  29
TORSDOF 8
ENDMDL
MODEL 2
REMARK VINA RESULT:      -8.5      3.937      8.380
REMARK  Name = 
REMARK  8 active torsions:
REMARK  status: ('A' for Active; 'I' for Inactive)
REMARK    1  A    between atoms: N_1  and  C_2
REMARK    2  A    between atoms: C_3  and  C_4
REMARK    3  A    between atoms: N_6  and  C_7
REMARK    4  A    between atoms: C_7  and  C_8
REMARK    5  A    between atoms: N_25  and  C_26
REMARK    6  A    between atoms: C_26  and  C_27
REMARK    7  A    between atoms: C_27  and  C_28
REMARK    8  A    between atoms: C_28  and  N_29
REMARK                            x       y       z     vdW  Elec       q    Type
REMARK                         _______ _______ _______ _____ _____    ______ ____
ROOT
ATOM      1  C   UNL     1       5.757   4.975  18.609  0.00  0.00    +0.000 A 
ATOM      2  C   UNL     1       5.394   6.042  17.815  0.00  0.00    +0.000 A 
ATOM      3  C   UNL     1       4.060   6.322  18.173  0.00  0.00    +0.000 A 
ATOM      4  N   UNL     1       3.195   7.150  17.558  0.00  0.00    +0.000 NA
ATOM      5  C   UNL     1       2.337   7.748  18.366  0.00  0.00    +0.000 A 
ATOM      6  C   UNL     1       1.669   8.824  17.790  0.00  0.00    +0.000 A 
ATOM      7  C   UNL     1       0.912   9.692  18.556  0.00  0.00    +0.000 A 
ATOM      8  C   UNL     1       0.806   9.447  19.915  0.00  0.00    +0.000 A 
ATOM      9  C   UNL     1       1.439   8.319  20.486  0.00  0.00    +0.000 A 
ATOM     10  C   UNL     1       2.222   7.421  19.738  0.00  0.00    +0.000 A 
ATOM     11  N   UNL     1       2.892   6.340  20.294  0.00  0.00    +0.000 NA
ATOM     12  C   UNL     1       3.840   5.826  19.456  0.00  0.00    +0.000 A 
ATOM     13  N   UNL     1       4.788   4.822  19.613  0.00  0.00    +0.000 N 
ENDROOT
BRANCH   2  14
ATOM     14  C   UNL     1       6.250   6.719  16.858  0.00  0.00    +0.000 C 
ATOM     15  O   UNL     1       7.080   7.561  17.200  0.00  0.00    +0.000 OA
ATOM     16  N   UNL     1       6.024   6.508  15.507  0.00  0.00    +0.000 N 
ATOM     17  H   UNL     1       6.671   6.996  14.903  0.00  0.00    +0.000 HD
BRANCH  16  18
ATOM     18  C   UNL     1       5.216   5.456  14.939  0.00  0.00    +0.000 C 
BRANCH  18  19
ATOM     19  C   UNL     1       5.878   4.641  13.877  0.00  0.00    +0.000 A 
ATOM     20  C   UNL     1       5.149   3.651  13.199  0.00  0.00    +0.000 A 
ATOM     21  C   UNL     1       5.741   2.944  12.160  0.00  0.00    +0.000 A 
ATOM     22  C   UNL     1       7.054   3.231  11.802  0.00  0.00    +0.000 A 
ATOM     23  F   UNL     1       7.614   2.555  10.800  0.00  0.00    +0.000 F 
ATOM     24  C   UNL     1       7.787   4.213  12.452  0.00  0.00    +0.000 A 
ATOM     25  C   UNL     1       7.195   4.925  13.494  0.00  0.00    +0.000 A 
ENDBRANCH  18  19
ENDBRANCH  16  18
ENDBRANCH   2  14
BRANCH   1  26
ATOM     26  N   UNL     1       6.854   4.187  18.498  0.00  0.00    +0.000 N 
ATOM     27  H   UNL     1       7.685   4.605  18.065  0.00  0.00    +0.000 HD
ATOM     28  H   UNL     1       6.818   3.186  18.338  0.00  0.00    +0.000 HD
ENDBRANCH   1  26
BRANCH  13  29
ATOM     29  C   UNL     1       4.773   3.613  20.409  0.00  0.00    +0.000 C 
BRANCH  29  30
ATOM     30  C   UNL     1       4.242   2.266  19.937  0.00  0.00    +0.000 C 
BRANCH  30  31
ATOM     31  C   UNL     1       2.707   2.270  20.195  0.00  0.00    +0.000 C 
BRANCH  31  32
ATOM     32  N   UNL     1       1.871   1.802  19.083  0.00  0.00    +0.000 NA
ATOM     33  C   UNL     1       2.632   1.763  17.805  0.00  0.00    +0.000 C 
ATOM     34  C   UNL     1       2.891   3.146  17.171  0.00  0.00    +0.000 C 
ATOM     35  O   UNL     1       1.676   3.884  17.001  0.00  0.00    +0.000 OA
ATOM     36  C   UNL     1       0.970   4.009  18.241  0.00  0.00    +0.000 C 
ATOM     37  C   UNL     1       0.672   2.634  18.860  0.00  0.00    +0.000 C 
ENDBRANCH  31  32
ENDBRANCH  30  31
ENDBRANCH  29  30
ENDBRANCH  13  29
TORSDOF 8
ENDMDL
MODEL 3
REMARK VINA RESULT:      -8.4      4.072      7.353
REMARK  Name = 
REMARK  8 active torsions:
REMARK  status: ('A' for Active; 'I' for Inactive)
REMARK    1  A    between atoms: N_1  and  C_2
REMARK    2  A    between atoms: C_3  and  C_4
REMARK    3  A    between atoms: N_6  and  C_7
REMARK    4  A    between atoms: C_7  and  C_8
REMARK    5  A    between atoms: N_25  and  C_26
REMARK    6  A    between atoms: C_26  and  C_27
REMARK    7  A    between atoms: C_27  and  C_28
REMARK    8  A    between atoms: C_28  and  N_29
REMARK                            x       y       z     vdW  Elec       q    Type
REMARK                         _______ _______ _______ _____ _____    ______ ____
ROOT
ATOM      1  C   UNL     1       5.207   6.720  17.620  0.00  0.00    +0.000 A 
ATOM      2  C   UNL     1       5.519   5.588  18.343  0.00  0.00    +0.000 A 
ATOM      3  C   UNL     1       4.424   5.399  19.208  0.00  0.00    +0.000 A 
ATOM      4  N   UNL     1       4.326   4.542  20.242  0.00  0.00    +0.000 NA
ATOM      5  C   UNL     1       3.110   4.067  20.450  0.00  0.00    +0.000 A 
ATOM      6  C   UNL     1       3.068   2.960  21.293  0.00  0.00    +0.000 A 
ATOM      7  C   UNL     1       1.915   2.209  21.434  0.00  0.00    +0.000 A 
ATOM      8  C   UNL     1       0.786   2.604  20.737  0.00  0.00    +0.000 A 
ATOM      9  C   UNL     1       0.817   3.762  19.927  0.00  0.00    +0.000 A 
ATOM     10  C   UNL     1       1.973   4.544  19.755  0.00  0.00    +0.000 A 
ATOM     11  N   UNL     1       2.034   5.653  18.922  0.00  0.00    +0.000 NA
ATOM     12  C   UNL     1       3.316   6.038  18.657  0.00  0.00    +0.000 A 
ATOM     13  N   UNL     1       3.852   7.016  17.828  0.00  0.00    +0.000 N 
ENDROOT
BRANCH   2  14
ATOM     14  C   UNL     1       6.715   4.781  18.182  0.00  0.00    +0.000 C 
ATOM     15  O   UNL     1       7.628   4.789  19.007  0.00  0.00    +0.000 OA
ATOM     16  N   UNL     1       6.889   4.091  16.993  0.00  0.00    +0.000 N 
ATOM     17  H   UNL     1       7.732   3.536  16.962  0.00  0.00    +0.000 HD
BRANCH  16  18
ATOM     18  C   UNL     1       5.870   3.845  16.001  0.00  0.00    +0.000 C 
BRANCH  18  19
ATOM     19  C   UNL     1       6.261   4.146  14.592  0.00  0.00    +0.000 A 
ATOM     20  C   UNL     1       7.301   5.051  14.332  0.00  0.00    +0.000 A 
ATOM     21  C   UNL     1       7.717   5.275  13.025  0.00  0.00    +0.000 A 
ATOM     22  C   UNL     1       7.094   4.591  11.987  0.00  0.00    +0.000 A 
ATOM     23  F   UNL     1       7.501   4.803  10.737  0.00  0.00    +0.000 F 
ATOM     24  C   UNL     1       6.073   3.683  12.224  0.00  0.00    +0.000 A 
ATOM     25  C   UNL     1       5.654   3.456  13.533  0.00  0.00    +0.000 A 
ENDBRANCH  18  19
ENDBRANCH  16  18
ENDBRANCH   2  14
BRANCH   1  26
ATOM     26  N   UNL     1       6.021   7.450  16.819  0.00  0.00    +0.000 N 
ATOM     27  H   UNL     1       7.031   7.304  16.924  0.00  0.00    +0.000 HD
ATOM     28  H   UNL     1       5.815   8.395  16.513  0.00  0.00    +0.000 HD
ENDBRANCH   1  26
BRANCH  13  29
ATOM     29  C   UNL     1       3.333   8.304  17.417  0.00  0.00    +0.000 C 
BRANCH  29  30
ATOM     30  C   UNL     1       1.897   8.771  17.621  0.00  0.00    +0.000 C 
BRANCH  30  31
ATOM     31  C   UNL     1       1.970  10.244  18.119  0.00  0.00    +0.000 C 
BRANCH  31  32
ATOM     32  N   UNL     1       0.704  10.823  18.586  0.00  0.00    +0.000 NA
ATOM     33  C   UNL     1       0.877  12.230  19.037  0.00  0.00    +0.000 C 
ATOM     34  C   UNL     1       1.577  12.384  20.403  0.00  0.00    +0.000 C 
ATOM     35  O   UNL     1       0.923  11.616  21.420  0.00  0.00    +0.000 OA
ATOM     36  C   UNL     1       0.824  10.238  21.042  0.00  0.00    +0.000 C 
ATOM     37  C   UNL     1       0.092  10.073  19.701  0.00  0.00    +0.000 C 
ENDBRANCH  31  32
ENDBRANCH  30  31
ENDBRANCH  29  30
ENDBRANCH  13  29
TORSDOF 8
ENDMDL
MODEL 4
REMARK VINA RESULT:      -8.3      3.970      7.225
REMARK  Name = 
REMARK  8 active torsions:
REMARK  status: ('A' for Active; 'I' for Inactive)
REMARK    1  A    between atoms: N_1  and  C_2
REMARK    2  A    between atoms: C_3  and  C_4
REMARK    3  A    between atoms: N_6  and  C_7
REMARK    4  A    between atoms: C_7  and  C_8
REMARK    5  A    between atoms: N_25  and  C_26
REMARK    6  A    between atoms: C_26  and  C_27
REMARK    7  A    between atoms: C_27  and  C_28
REMARK    8  A    between atoms: C_28  and  N_29
REMARK                            x       y       z     vdW  Elec       q    Type
REMARK                         _______ _______ _______ _____ _____    ______ ____
ROOT
ATOM      1  C   UNL     1       5.412   6.892  17.640  0.00  0.00    +0.000 A 
ATOM      2  C   UNL     1       5.663   5.634  18.145  0.00  0.00    +0.000 A 
ATOM      3  C   UNL     1       4.451   5.235  18.742  0.00  0.00    +0.000 A 
ATOM      4  N   UNL     1       4.231   4.167  19.533  0.00  0.00    +0.000 NA
ATOM      5  C   UNL     1       3.028   3.635  19.416  0.00  0.00    +0.000 A 
ATOM      6  C   UNL     1       2.909   2.368  19.980  0.00  0.00    +0.000 A 
ATOM      7  C   UNL     1       1.795   1.582  19.750  0.00  0.00    +0.000 A 
ATOM      8  C   UNL     1       0.777   2.100  18.967  0.00  0.00    +0.000 A 
ATOM      9  C   UNL     1       0.876   3.409  18.444  0.00  0.00    +0.000 A 
ATOM     10  C   UNL     1       1.997   4.232  18.651  0.00  0.00    +0.000 A 
ATOM     11  N   UNL     1       2.132   5.500  18.102  0.00  0.00    +0.000 NA
ATOM     12  C   UNL     1       3.417   5.959  18.156  0.00  0.00    +0.000 A 
ATOM     13  N   UNL     1       4.026   7.107  17.665  0.00  0.00    +0.000 N 
ENDROOT
BRANCH   2  14
ATOM     14  C   UNL     1       6.914   4.905  18.026  0.00  0.00    +0.000 C 
ATOM     15  O   UNL     1       7.811   5.000  18.864  0.00  0.00    +0.000 OA
ATOM     16  N   UNL     1       7.155   4.194  16.862  0.00  0.00    +0.000 N 
ATOM     17  H   UNL     1       8.034   3.698  16.861  0.00  0.00    +0.000 HD
BRANCH  16  18
ATOM     18  C   UNL     1       6.172   3.850  15.863  0.00  0.00    +0.000 C 
BRANCH  18  19
ATOM     19  C   UNL     1       6.567   4.131  14.450  0.00  0.00    +0.000 A 
ATOM     20  C   UNL     1       5.917   3.469  13.397  0.00  0.00    +0.000 A 
ATOM     21  C   UNL     1       6.230   3.784  12.081  0.00  0.00    +0.000 A 
ATOM     22  C   UNL     1       7.187   4.760  11.824  0.00  0.00    +0.000 A 
ATOM     23  F   UNL     1       7.479   5.064  10.561  0.00  0.00    +0.000 F 
ATOM     24  C   UNL     1       7.832   5.434  12.851  0.00  0.00    +0.000 A 
ATOM     25  C   UNL     1       7.519   5.120  14.173  0.00  0.00    +0.000 A 
ENDBRANCH  18  19
ENDBRANCH  16  18
ENDBRANCH   2  14
BRANCH   1  26
ATOM     26  N   UNL     1       6.304   7.797  17.171  0.00  0.00    +0.000 N 
ATOM     27  H   UNL     1       6.047   8.305  16.317  0.00  0.00    +0.000 HD
ATOM     28  H   UNL     1       7.310   7.693  17.249  0.00  0.00    +0.000 HD
ENDBRANCH   1  26
BRANCH  13  29
ATOM     29  C   UNL     1       3.510   8.444  17.456  0.00  0.00    +0.000 C 
BRANCH  29  30
ATOM     30  C   UNL     1       2.034   8.823  17.486  0.00  0.00    +0.000 C 
BRANCH  30  31
ATOM     31  C   UNL     1       1.678   9.131  18.970  0.00  0.00    +0.000 C 
BRANCH  31  32
ATOM     32  N   UNL     1       0.442   9.893  19.184  0.00  0.00    +0.000 NA
ATOM     33  C   UNL     1       0.674  11.358  19.070  0.00  0.00    +0.000 C 
ATOM     34  C   UNL     1       1.400  11.988  20.276  0.00  0.00    +0.000 C 
ATOM     35  O   UNL     1       0.734  11.687  21.508  0.00  0.00    +0.000 OA
ATOM     36  C   UNL     1       0.579  10.274  21.680  0.00  0.00    +0.000 C 
ATOM     37  C   UNL     1      -0.179   9.644  20.500  0.00  0.00    +0.000 C 
ENDBRANCH  31  32
ENDBRANCH  30  31
ENDBRANCH  29  30
ENDBRANCH  13  29
TORSDOF 8
ENDMDL
MODEL 5
REMARK VINA RESULT:      -8.2      4.075      7.556
REMARK  Name = 
REMARK  8 active torsions:
REMARK  status: ('A' for Active; 'I' for Inactive)
REMARK    1  A    between atoms: N_1  and  C_2
REMARK    2  A    between atoms: C_3  and  C_4
REMARK    3  A    between atoms: N_6  and  C_7
REMARK    4  A    between atoms: C_7  and  C_8
REMARK    5  A    between atoms: N_25  and  C_26
REMARK    6  A    between atoms: C_26  and  C_27
REMARK    7  A    between atoms: C_27  and  C_28
REMARK    8  A    between atoms: C_28  and  N_29
REMARK                            x       y       z     vdW  Elec       q    Type
REMARK                         _______ _______ _______ _____ _____    ______ ____
ROOT
ATOM      1  C   UNL     1       5.172   6.737  17.583  0.00  0.00    +0.000 A 
ATOM      2  C   UNL     1       5.496   5.621  18.325  0.00  0.00    +0.000 A 
ATOM      3  C   UNL     1       4.394   5.424  19.181  0.00  0.00    +0.000 A 
ATOM      4  N   UNL     1       4.299   4.580  20.226  0.00  0.00    +0.000 NA
ATOM      5  C   UNL     1       3.090   4.087  20.427  0.00  0.00    +0.000 A 
ATOM      6  C   UNL     1       3.058   2.992  21.285  0.00  0.00    +0.000 A 
ATOM      7  C   UNL     1       1.917   2.222  21.424  0.00  0.00    +0.000 A 
ATOM      8  C   UNL     1       0.789   2.587  20.709  0.00  0.00    +0.000 A 
ATOM      9  C   UNL     1       0.809   3.734  19.884  0.00  0.00    +0.000 A 
ATOM     10  C   UNL     1       1.953   4.534  19.713  0.00  0.00    +0.000 A 
ATOM     11  N   UNL     1       2.003   5.632  18.866  0.00  0.00    +0.000 NA
ATOM     12  C   UNL     1       3.282   6.036  18.609  0.00  0.00    +0.000 A 
ATOM     13  N   UNL     1       3.809   7.012  17.772  0.00  0.00    +0.000 N 
ENDROOT
BRANCH   2  14
ATOM     14  C   UNL     1       6.707   4.832  18.189  0.00  0.00    +0.000 C 
ATOM     15  O   UNL     1       7.600   4.849  19.036  0.00  0.00    +0.000 OA
ATOM     16  N   UNL     1       6.920   4.151  17.001  0.00  0.00    +0.000 N 
ATOM     17  H   UNL     1       7.772   3.609  16.987  0.00  0.00    +0.000 HD
BRANCH  16  18
ATOM     18  C   UNL     1       5.929   3.895  15.984  0.00  0.00    +0.000 C 
BRANCH  18  19
ATOM     19  C   UNL     1       6.382   4.111  14.577  0.00  0.00    +0.000 A 
ATOM     20  C   UNL     1       5.749   3.430  13.526  0.00  0.00    +0.000 A 
ATOM     21  C   UNL     1       6.119   3.685  12.212  0.00  0.00    +0.000 A 
ATOM     22  C   UNL     1       7.115   4.621  11.954  0.00  0.00    +0.000 A 
ATOM     23  F   UNL     1       7.460   4.868  10.692  0.00  0.00    +0.000 F 
ATOM     24  C   UNL     1       7.744   5.314  12.979  0.00  0.00    +0.000 A 
ATOM     25  C   UNL     1       7.374   5.060  14.298  0.00  0.00    +0.000 A 
ENDBRANCH  18  19
ENDBRANCH  16  18
ENDBRANCH   2  14
BRANCH   1  26
ATOM     26  N   UNL     1       5.982   7.470  16.781  0.00  0.00    +0.000 N 
ATOM     27  H   UNL     1       6.713   6.963  16.270  0.00  0.00    +0.000 HD
ATOM     28  H   UNL     1       6.265   8.423  16.981  0.00  0.00    +0.000 HD
ENDBRANCH   1  26
BRANCH  13  29
ATOM     29  C   UNL     1       3.273   8.284  17.337  0.00  0.00    +0.000 C 
BRANCH  29  30
ATOM     30  C   UNL     1       1.865   8.785  17.635  0.00  0.00    +0.000 C 
BRANCH  30  31
ATOM     31  C   UNL     1       2.001  10.268  18.088  0.00  0.00    +0.000 C 
BRANCH  31  32
ATOM     32  N   UNL     1       1.232  10.643  19.281  0.00  0.00    +0.000 NA
ATOM     33  C   UNL     1      -0.176  10.170  19.197  0.00  0.00    +0.000 C 
ATOM     34  C   UNL     1      -1.068  10.979  18.234  0.00  0.00    +0.000 C 
ATOM     35  O   UNL     1      -1.034  12.380  18.535  0.00  0.00    +0.000 OA
ATOM     36  C   UNL     1       0.309  12.875  18.535  0.00  0.00    +0.000 C 
ATOM     37  C   UNL     1       1.196  12.099  19.522  0.00  0.00    +0.000 C 
ENDBRANCH  31  32
ENDBRANCH  30  31
ENDBRANCH  29  30
ENDBRANCH  13  29
TORSDOF 8
ENDMDL
MODEL 6
REMARK VINA RESULT:      -8.0      3.313      8.014
REMARK  Name = 
REMARK  8 active torsions:
REMARK  status: ('A' for Active; 'I' for Inactive)
REMARK    1  A    between atoms: N_1  and  C_2
REMARK    2  A    between atoms: C_3  and  C_4
REMARK    3  A    between atoms: N_6  and  C_7
REMARK    4  A    between atoms: C_7  and  C_8
REMARK    5  A    between atoms: N_25  and  C_26
REMARK    6  A    between atoms: C_26  and  C_27
REMARK    7  A    between atoms: C_27  and  C_28
REMARK    8  A    between atoms: C_28  and  N_29
REMARK                            x       y       z     vdW  Elec       q    Type
REMARK                         _______ _______ _______ _____ _____    ______ ____
ROOT
ATOM      1  C   UNL     1       6.014   4.868  18.210  0.00  0.00    +0.000 A 
ATOM      2  C   UNL     1       5.567   5.917  17.435  0.00  0.00    +0.000 A 
ATOM      3  C   UNL     1       4.257   6.168  17.889  0.00  0.00    +0.000 A 
ATOM      4  N   UNL     1       3.328   6.969  17.333  0.00  0.00    +0.000 NA
ATOM      5  C   UNL     1       2.517   7.554  18.197  0.00  0.00    +0.000 A 
ATOM      6  C   UNL     1       1.782   8.608  17.663  0.00  0.00    +0.000 A 
ATOM      7  C   UNL     1       1.062   9.464  18.475  0.00  0.00    +0.000 A 
ATOM      8  C   UNL     1       1.063   9.230  19.840  0.00  0.00    +0.000 A 
ATOM      9  C   UNL     1       1.764   8.125  20.372  0.00  0.00    +0.000 A 
ATOM     10  C   UNL     1       2.512   7.238  19.576  0.00  0.00    +0.000 A 
ATOM     11  N   UNL     1       3.249   6.180  20.090  0.00  0.00    +0.000 NA
ATOM     12  C   UNL     1       4.144   5.680  19.188  0.00  0.00    +0.000 A 
ATOM     13  N   UNL     1       5.127   4.702  19.283  0.00  0.00    +0.000 N 
ENDROOT
BRANCH   2  14
ATOM     14  C   UNL     1       6.333   6.605  16.412  0.00  0.00    +0.000 C 
ATOM     15  O   UNL     1       6.158   6.399  15.211  0.00  0.00    +0.000 OA
ATOM     16  N   UNL     1       7.388   7.411  16.808  0.00  0.00    +0.000 N 
ATOM     17  H   UNL     1       7.861   7.871  16.044  0.00  0.00    +0.000 HD
BRANCH  16  18
ATOM     18  C   UNL     1       7.634   7.883  18.150  0.00  0.00    +0.000 C 
BRANCH  18  19
ATOM     19  C   UNL     1       8.274   9.229  18.250  0.00  0.00    +0.000 A 
ATOM     20  C   UNL     1       7.827  10.278  17.431  0.00  0.00    +0.000 A 
ATOM     21  C   UNL     1       8.369  11.549  17.576  0.00  0.00    +0.000 A 
ATOM     22  C   UNL     1       9.349  11.766  18.538  0.00  0.00    +0.000 A 
ATOM     23  F   UNL     1       9.860  12.987  18.677  0.00  0.00    +0.000 F 
ATOM     24  C   UNL     1       9.796  10.745  19.364  0.00  0.00    +0.000 A 
ATOM     25  C   UNL     1       9.253   9.469  19.222  0.00  0.00    +0.000 A 
ENDBRANCH  18  19
ENDBRANCH  16  18
ENDBRANCH   2  14
BRANCH   1  26
ATOM     26  N   UNL     1       7.120   4.106  18.025  0.00  0.00    +0.000 N 
ATOM     27  H   UNL     1       7.290   3.358  18.707  0.00  0.00    +0.000 HD
ATOM     28  H   UNL     1       7.989   4.454  17.636  0.00  0.00    +0.000 HD
ENDBRANCH   1  26
BRANCH  13  29
ATOM     29  C   UNL     1       5.200   3.501  20.088  0.00  0.00    +0.000 C 
BRANCH  29  30
ATOM     30  C   UNL     1       4.485   2.194  19.771  0.00  0.00    +0.000 C 
BRANCH  30  31
ATOM     31  C   UNL     1       2.990   2.392  20.158  0.00  0.00    +0.000 C 
BRANCH  31  32
ATOM     32  N   UNL     1       2.009   1.870  19.199  0.00  0.00    +0.000 NA
ATOM     33  C   UNL     1       2.560   1.830  17.818  0.00  0.00    +0.000 C 
ATOM     34  C   UNL     1       2.663   3.205  17.128  0.00  0.00    +0.000 C 
ATOM     35  O   UNL     1       1.409   3.897  17.140  0.00  0.00    +0.000 OA
ATOM     36  C   UNL     1       0.903   4.025  18.474  0.00  0.00    +0.000 C 
ATOM     37  C   UNL     1       0.759   2.654  19.155  0.00  0.00    +0.000 C 
ENDBRANCH  31  32
ENDBRANCH  30  31
ENDBRANCH  29  30
ENDBRANCH  13  29
TORSDOF 8
ENDMDL
MODEL 7
REMARK VINA RESULT:      -7.8      4.092      8.450
REMARK  Name = 
REMARK  8 active torsions:
REMARK  status: ('A' for Active; 'I' for Inactive)
REMARK    1  A    between atoms: N_1  and  C_2
REMARK    2  A    between atoms: C_3  and  C_4
REMARK    3  A    between atoms: N_6  and  C_7
REMARK    4  A    between atoms: C_7  and  C_8
REMARK    5  A    between atoms: N_25  and  C_26
REMARK    6  A    between atoms: C_26  and  C_27
REMARK    7  A    between atoms: C_27  and  C_28
REMARK    8  A    between atoms: C_28  and  N_29
REMARK                            x       y       z     vdW  Elec       q    Type
REMARK                         _______ _______ _______ _____ _____    ______ ____
ROOT
ATOM      1  C   UNL     1       5.731   4.857  18.405  0.00  0.00    +0.000 A 
ATOM      2  C   UNL     1       5.334   5.914  17.613  0.00  0.00    +0.000 A 
ATOM      3  C   UNL     1       4.026   6.215  18.041  0.00  0.00    +0.000 A 
ATOM      4  N   UNL     1       3.137   7.043  17.460  0.00  0.00    +0.000 NA
ATOM      5  C   UNL     1       2.332   7.665  18.304  0.00  0.00    +0.000 A 
ATOM      6  C   UNL     1       1.644   8.739  17.747  0.00  0.00    +0.000 A 
ATOM      7  C   UNL     1       0.941   9.628  18.539  0.00  0.00    +0.000 A 
ATOM      8  C   UNL     1       0.909   9.408  19.905  0.00  0.00    +0.000 A 
ATOM      9  C   UNL     1       1.561   8.283  20.460  0.00  0.00    +0.000 A 
ATOM     10  C   UNL     1       2.291   7.363  19.686  0.00  0.00    +0.000 A 
ATOM     11  N   UNL     1       2.980   6.285  20.223  0.00  0.00    +0.000 NA
ATOM     12  C   UNL     1       3.874   5.745  19.342  0.00  0.00    +0.000 A 
ATOM     13  N   UNL     1       4.819   4.733  19.464  0.00  0.00    +0.000 N 
ENDROOT
BRANCH   2  14
ATOM     14  C   UNL     1       6.143   6.564  16.597  0.00  0.00    +0.000 C 
ATOM     15  O   UNL     1       6.928   7.473  16.866  0.00  0.00    +0.000 OA
ATOM     16  N   UNL     1       5.915   6.243  15.269  0.00  0.00    +0.000 N 
ATOM     17  H   UNL     1       6.528   6.719  14.622  0.00  0.00    +0.000 HD
BRANCH  16  18
ATOM     18  C   UNL     1       5.161   5.109  14.790  0.00  0.00    +0.000 C 
BRANCH  18  19
ATOM     19  C   UNL     1       5.768   4.373  13.642  0.00  0.00    +0.000 A 
ATOM     20  C   UNL     1       7.127   4.551  13.336  0.00  0.00    +0.000 A 
ATOM     21  C   UNL     1       7.711   3.811  12.317  0.00  0.00    +0.000 A 
ATOM     22  C   UNL     1       6.939   2.894  11.611  0.00  0.00    +0.000 A 
ATOM     23  F   UNL     1       7.505   2.181  10.640  0.00  0.00    +0.000 F 
ATOM     24  C   UNL     1       5.598   2.694  11.907  0.00  0.00    +0.000 A 
ATOM     25  C   UNL     1       5.009   3.435  12.929  0.00  0.00    +0.000 A 
ENDBRANCH  18  19
ENDBRANCH  16  18
ENDBRANCH   2  14
BRANCH   1  26
ATOM     26  N   UNL     1       6.811   4.055  18.247  0.00  0.00    +0.000 N 
ATOM     27  H   UNL     1       7.312   3.775  19.098  0.00  0.00    +0.000 HD
ATOM     28  H   UNL     1       7.436   4.097  17.449  0.00  0.00    +0.000 HD
ENDBRANCH   1  26
BRANCH  13  29
ATOM     29  C   UNL     1       4.835   3.538  20.281  0.00  0.00    +0.000 C 
BRANCH  29  30
ATOM     30  C   UNL     1       4.528   2.134  19.778  0.00  0.00    +0.000 C 
BRANCH  30  31
ATOM     31  C   UNL     1       3.325   2.259  18.798  0.00  0.00    +0.000 C 
BRANCH  31  32
ATOM     32  N   UNL     1       2.035   1.776  19.307  0.00  0.00    +0.000 NA
ATOM     33  C   UNL     1       0.894   2.409  18.593  0.00  0.00    +0.000 C 
ATOM     34  C   UNL     1       0.624   3.876  18.988  0.00  0.00    +0.000 C 
ATOM     35  O   UNL     1       0.464   4.019  20.404  0.00  0.00    +0.000 OA
ATOM     36  C   UNL     1       1.595   3.494  21.108  0.00  0.00    +0.000 C 
ATOM     37  C   UNL     1       1.846   2.021  20.750  0.00  0.00    +0.000 C 
ENDBRANCH  31  32
ENDBRANCH  30  31
ENDBRANCH  29  30
ENDBRANCH  13  29
TORSDOF 8
ENDMDL
MODEL 8
REMARK VINA RESULT:      -7.7      7.167     10.663
REMARK  Name = 
REMARK  8 active torsions:
REMARK  status: ('A' for Active; 'I' for Inactive)
REMARK    1  A    between atoms: N_1  and  C_2
REMARK    2  A    between atoms: C_3  and  C_4
REMARK    3  A    between atoms: N_6  and  C_7
REMARK    4  A    between atoms: C_7  and  C_8
REMARK    5  A    between atoms: N_25  and  C_26
REMARK    6  A    between atoms: C_26  and  C_27
REMARK    7  A    between atoms: C_27  and  C_28
REMARK    8  A    between atoms: C_28  and  N_29
REMARK                            x       y       z     vdW  Elec       q    Type
REMARK                         _______ _______ _______ _____ _____    ______ ____
ROOT
ATOM      1  C   UNL     1       0.768  11.812  20.295  0.00  0.00    +0.000 A 
ATOM      2  C   UNL     1       0.837  11.194  19.064  0.00  0.00    +0.000 A 
ATOM      3  C   UNL     1      -0.487  10.804  18.780  0.00  0.00    +0.000 A 
ATOM      4  N   UNL     1      -0.918  10.003  17.787  0.00  0.00    +0.000 NA
ATOM      5  C   UNL     1      -2.116  10.305  17.318  0.00  0.00    +0.000 A 
ATOM      6  C   UNL     1      -2.421   9.696  16.104  0.00  0.00    +0.000 A 
ATOM      7  C   UNL     1      -3.529  10.077  15.370  0.00  0.00    +0.000 A 
ATOM      8  C   UNL     1      -4.353  11.062  15.887  0.00  0.00    +0.000 A 
ATOM      9  C   UNL     1      -4.071  11.637  17.147  0.00  0.00    +0.000 A 
ATOM     10  C   UNL     1      -2.949  11.279  17.917  0.00  0.00    +0.000 A 
ATOM     11  N   UNL     1      -2.631  11.871  19.131  0.00  0.00    +0.000 NA
ATOM     12  C   UNL     1      -1.347  11.612  19.518  0.00  0.00    +0.000 A 
ATOM     13  N   UNL     1      -0.582  12.053  20.591  0.00  0.00    +0.000 N 
ENDROOT
BRANCH   2  14
ATOM     14  C   UNL     1       2.035  11.038  18.258  0.00  0.00    +0.000 C 
ATOM     15  O   UNL     1       2.649  12.002  17.801  0.00  0.00    +0.000 OA
ATOM     16  N   UNL     1       2.412   9.760  17.879  0.00  0.00    +0.000 N 
ATOM     17  H   UNL     1       3.264   9.728  17.338  0.00  0.00    +0.000 HD
BRANCH  16  18
ATOM     18  C   UNL     1       1.912   8.529  18.443  0.00  0.00    +0.000 C 
BRANCH  18  19
ATOM     19  C   UNL     1       2.681   7.300  18.084  0.00  0.00    +0.000 A 
ATOM     20  C   UNL     1       2.138   6.033  18.347  0.00  0.00    +0.000 A 
ATOM     21  C   UNL     1       2.818   4.889  17.946  0.00  0.00    +0.000 A 
ATOM     22  C   UNL     1       4.033   5.018  17.281  0.00  0.00    +0.000 A 
ATOM     23  F   UNL     1       4.677   3.920  16.892  0.00  0.00    +0.000 F 
ATOM     24  C   UNL     1       4.580   6.262  17.001  0.00  0.00    +0.000 A 
ATOM     25  C   UNL     1       3.900   7.410  17.402  0.00  0.00    +0.000 A 
ENDBRANCH  18  19
ENDBRANCH  16  18
ENDBRANCH   2  14
BRANCH   1  26
ATOM     26  N   UNL     1       1.791  12.164  21.111  0.00  0.00    +0.000 N 
ATOM     27  H   UNL     1       2.339  12.988  20.840  0.00  0.00    +0.000 HD
ATOM     28  H   UNL     1       2.354  11.501  21.631  0.00  0.00    +0.000 HD
ENDBRANCH   1  26
BRANCH  13  29
ATOM     29  C   UNL     1      -0.958  12.433  21.937  0.00  0.00    +0.000 C 
BRANCH  29  30
ATOM     30  C   UNL     1      -1.910  11.648  22.831  0.00  0.00    +0.000 C 
BRANCH  30  31
ATOM     31  C   UNL     1      -2.945  12.666  23.391  0.00  0.00    +0.000 C 
BRANCH  31  32
ATOM     32  N   UNL     1      -4.352  12.379  23.086  0.00  0.00    +0.000 NA
ATOM     33  C   UNL     1      -4.689  12.724  21.679  0.00  0.00    +0.000 C 
ATOM     34  C   UNL     1      -4.826  14.236  21.405  0.00  0.00    +0.000 C 
ATOM     35  O   UNL     1      -5.757  14.853  22.302  0.00  0.00    +0.000 OA
ATOM     36  C   UNL     1      -5.399  14.605  23.667  0.00  0.00    +0.000 C 
ATOM     37  C   UNL     1      -5.300  13.099  23.958  0.00  0.00    +0.000 C 
ENDBRANCH  31  32
ENDBRANCH  30  31
ENDBRANCH  29  30
ENDBRANCH  13  29
TORSDOF 8
ENDMDL
MODEL 9
REMARK VINA RESULT:      -7.6      6.473     10.188
REMARK  Name = 
REMARK  8 active torsions:
REMARK  status: ('A' for Active; 'I' for Inactive)
REMARK    1  A    between atoms: N_1  and  C_2
REMARK    2  A    between atoms: C_3  and  C_4
REMARK    3  A    between atoms: N_6  and  C_7
REMARK    4  A    between atoms: C_7  and  C_8
REMARK    5  A    between atoms: N_25  and  C_26
REMARK    6  A    between atoms: C_26  and  C_27
REMARK    7  A    between atoms: C_27  and  C_28
REMARK    8  A    between atoms: C_28  and  N_29
REMARK                            x       y       z     vdW  Elec       q    Type
REMARK                         _______ _______ _______ _____ _____    ______ ____
ROOT
ATOM      1  C   UNL     1       0.472   9.396  20.699  0.00  0.00    +0.000 A 
ATOM      2  C   UNL     1       0.344  10.439  21.591  0.00  0.00    +0.000 A 
ATOM      3  C   UNL     1       0.803  11.572  20.891  0.00  0.00    +0.000 A 
ATOM      4  N   UNL     1       1.054  12.801  21.381  0.00  0.00    +0.000 NA
ATOM      5  C   UNL     1       0.814  13.790  20.537  0.00  0.00    +0.000 A 
ATOM      6  C   UNL     1       0.766  15.047  21.132  0.00  0.00    +0.000 A 
ATOM      7  C   UNL     1       0.306  16.151  20.438  0.00  0.00    +0.000 A 
ATOM      8  C   UNL     1      -0.077  15.984  19.118  0.00  0.00    +0.000 A 
ATOM      9  C   UNL     1       0.028  14.718  18.501  0.00  0.00    +0.000 A 
ATOM     10  C   UNL     1       0.484  13.572  19.178  0.00  0.00    +0.000 A 
ATOM     11  N   UNL     1       0.544  12.311  18.601  0.00  0.00    +0.000 NA
ATOM     12  C   UNL     1       0.687  11.318  19.527  0.00  0.00    +0.000 A 
ATOM     13  N   UNL     1       0.707   9.933  19.424  0.00  0.00    +0.000 N 
ENDROOT
BRANCH   2  14
ATOM     14  C   UNL     1      -0.190  10.344  22.938  0.00  0.00    +0.000 C 
ATOM     15  O   UNL     1       0.325   9.631  23.800  0.00  0.00    +0.000 OA
ATOM     16  N   UNL     1      -1.396  10.966  23.215  0.00  0.00    +0.000 N 
ATOM     17  H   UNL     1      -1.694  10.873  24.175  0.00  0.00    +0.000 HD
BRANCH  16  18
ATOM     18  C   UNL     1      -2.046  11.955  22.388  0.00  0.00    +0.000 C 
BRANCH  18  19
ATOM     19  C   UNL     1      -3.393  12.398  22.857  0.00  0.00    +0.000 A 
ATOM     20  C   UNL     1      -4.352  12.828  21.926  0.00  0.00    +0.000 A 
ATOM     21  C   UNL     1      -5.629  13.169  22.353  0.00  0.00    +0.000 A 
ATOM     22  C   UNL     1      -5.944  13.074  23.704  0.00  0.00    +0.000 A 
ATOM     23  F   UNL     1      -7.172  13.394  24.107  0.00  0.00    +0.000 F 
ATOM     24  C   UNL     1      -5.014  12.638  24.638  0.00  0.00    +0.000 A 
ATOM     25  C   UNL     1      -3.732  12.296  24.213  0.00  0.00    +0.000 A 
ENDBRANCH  18  19
ENDBRANCH  16  18
ENDBRANCH   2  14
BRANCH   1  26
ATOM     26  N   UNL     1       0.380   8.067  20.949  0.00  0.00    +0.000 N 
ATOM     27  H   UNL     1       0.518   7.766  21.920  0.00  0.00    +0.000 HD
ATOM     28  H   UNL     1       0.668   7.347  20.295  0.00  0.00    +0.000 HD
ENDBRANCH   1  26
BRANCH  13  29
ATOM     29  C   UNL     1       1.157   9.063  18.358  0.00  0.00    +0.000 C 
BRANCH  29  30
ATOM     30  C   UNL     1       2.593   8.591  18.165  0.00  0.00    +0.000 C 
BRANCH  30  31
ATOM     31  C   UNL     1       2.639   7.100  18.611  0.00  0.00    +0.000 C 
BRANCH  31  32
ATOM     32  N   UNL     1       3.312   6.178  17.687  0.00  0.00    +0.000 NA
ATOM     33  C   UNL     1       2.780   4.795  17.808  0.00  0.00    +0.000 C 
ATOM     34  C   UNL     1       3.241   4.038  19.071  0.00  0.00    +0.000 C 
ATOM     35  O   UNL     1       4.669   4.031  19.189  0.00  0.00    +0.000 OA
ATOM     36  C   UNL     1       5.195   5.362  19.163  0.00  0.00    +0.000 C 
ATOM     37  C   UNL     1       4.773   6.110  17.889  0.00  0.00    +0.000 C 
ENDBRANCH  31  32
ENDBRANCH  30  31
ENDBRANCH  29  30
ENDBRANCH  13  29
TORSDOF 8
ENDMDL
