MODEL 1
REMARK VINA RESULT:      -7.0      0.000      0.000
REMARK  Name = 
REMARK  7 active torsions:
REMARK  status: ('A' for Active; 'I' for Inactive)
REMARK    1  A    between atoms: C_1  and  C_2
REMARK    2  A    between atoms: C_5  and  C_6
REMARK    3  A    between atoms: C_6  and  N_7
REMARK    4  A    between atoms: N_7  and  C_8
REMARK    5  A    between atoms: N_11  and  C_12
REMARK    6  A    between atoms: C_12  and  C_13
REMARK    7  A    between atoms: C_13  and  C_14
REMARK                            x       y       z     vdW  Elec       q    Type
REMARK                         _______ _______ _______ _____ _____    ______ ____
ROOT
ATOM      1  C   UNL     1       1.730   3.739  21.229  0.00  0.00    +0.000 C 
ATOM      2  C   UNL     1       2.880   2.727  21.277  0.00  0.00    +0.000 C 
ATOM      3  C   UNL     1       3.642   2.696  19.951  0.00  0.00    +0.000 C 
ATOM      4  N   UNL     1       2.767   2.293  18.837  0.00  0.00    +0.000 NA
ATOM      5  C   UNL     1       1.630   3.231  18.718  0.00  0.00    +0.000 C 
ATOM      6  C   UNL     1       0.843   3.375  20.028  0.00  0.00    +0.000 C 
ENDROOT
BRANCH   1   7
ATOM      7  N   UNL     1       2.353   5.068  21.194  0.00  0.00    +0.000 NA
ATOM      8  H   UNL     1       2.949   5.170  22.018  0.00  0.00    +0.000 HD
BRANCH   7   9
ATOM      9  C   UNL     1       1.447   6.210  21.173  0.00  0.00    +0.000 C 
BRANCH   9  14
ATOM     10  C   UNL     1       2.099  10.296  17.764  0.00  0.00    +0.000 C 
ATOM     11  C   UNL     1       2.143   8.963  18.428  0.00  0.00    +0.000 A 
ATOM     12  C   UNL     1       2.792   7.822  18.007  0.00  0.00    +0.000 A 
ATOM     13  C   UNL     1       2.601   6.733  18.906  0.00  0.00    +0.000 A 
ATOM     14  C   UNL     1       1.820   7.075  19.995  0.00  0.00    +0.000 A 
ATOM     15  S   UNL     1       1.316   8.710  19.905  0.00  0.00    +0.000 S 
ENDBRANCH   9  14
ENDBRANCH   7   9
ENDBRANCH   1   7
BRANCH   4  16
ATOM     16  C   UNL     1       3.517   2.241  17.559  0.00  0.00    +0.000 C 
BRANCH  16  17
ATOM     17  C   UNL     1       3.609   3.605  16.850  0.00  0.00    +0.000 C 
BRANCH  17  18
ATOM     18  C   UNL     1       5.025   4.032  16.554  0.00  0.00    +0.000 A 
ATOM     19  C   UNL     1       5.492   4.105  15.238  0.00  0.00    +0.000 A 
ATOM     20  C   UNL     1       6.788   4.543  15.015  0.00  0.00    +0.000 A 
ATOM     21  N   UNL     1       7.640   4.896  16.002  0.00  0.00    +0.000 NA
ATOM     22  C   UNL     1       7.169   4.812  17.265  0.00  0.00    +0.000 A 
ATOM     23  C   UNL     1       5.891   4.388  17.587  0.00  0.00    +0.000 A 
ENDBRANCH  17  18
ENDBRANCH  16  17
ENDBRANCH   4  16
TORSDOF 6
ENDMDL
MODEL 2
REMARK VINA RESULT:      -6.9      1.008      1.663
REMARK  Name = 
REMARK  7 active torsions:
REMARK  status: ('A' for Active; 'I' for Inactive)
REMARK    1  A    between atoms: C_1  and  C_2
REMARK    2  A    between atoms: C_5  and  C_6
REMARK    3  A    between atoms: C_6  and  N_7
REMARK    4  A    between atoms: N_7  and  C_8
REMARK    5  A    between atoms: N_11  and  C_12
REMARK    6  A    between atoms: C_12  and  C_13
REMARK    7  A    between atoms: C_13  and  C_14
REMARK                            x       y       z     vdW  Elec       q    Type
REMARK                         _______ _______ _______ _____ _____    ______ ____
ROOT
ATOM      1  C   UNL     1       1.560   3.909  21.133  0.00  0.00    +0.000 C 
ATOM      2  C   UNL     1       2.562   2.779  21.395  0.00  0.00    +0.000 C 
ATOM      3  C   UNL     1       3.531   2.619  20.223  0.00  0.00    +0.000 C 
ATOM      4  N   UNL     1       2.820   2.277  18.979  0.00  0.00    +0.000 NA
ATOM      5  C   UNL     1       1.835   3.330  18.651  0.00  0.00    +0.000 C 
ATOM      6  C   UNL     1       0.857   3.604  19.801  0.00  0.00    +0.000 C 
ENDROOT
BRANCH   1   7
ATOM      7  N   UNL     1       2.328   5.159  21.188  0.00  0.00    +0.000 NA
ATOM      8  H   UNL     1       2.698   5.274  22.134  0.00  0.00    +0.000 HD
BRANCH   7   9
ATOM      9  C   UNL     1       1.605   6.381  20.857  0.00  0.00    +0.000 C 
BRANCH   9  14
ATOM     10  C   UNL     1       4.741   7.359  16.619  0.00  0.00    +0.000 C 
ATOM     11  C   UNL     1       3.683   7.431  17.666  0.00  0.00    +0.000 A 
ATOM     12  C   UNL     1       2.668   8.356  17.791  0.00  0.00    +0.000 A 
ATOM     13  C   UNL     1       1.849   8.104  18.928  0.00  0.00    +0.000 A 
ATOM     14  C   UNL     1       2.252   6.985  19.636  0.00  0.00    +0.000 A 
ATOM     15  S   UNL     1       3.631   6.265  18.919  0.00  0.00    +0.000 S 
ENDBRANCH   9  14
ENDBRANCH   7   9
ENDBRANCH   1   7
BRANCH   4  16
ATOM     16  C   UNL     1       3.767   2.099  17.852  0.00  0.00    +0.000 C 
BRANCH  16  17
ATOM     17  C   UNL     1       3.739   3.262  16.842  0.00  0.00    +0.000 C 
BRANCH  17  18
ATOM     18  C   UNL     1       5.107   3.801  16.510  0.00  0.00    +0.000 A 
ATOM     19  C   UNL     1       6.040   4.060  17.520  0.00  0.00    +0.000 A 
ATOM     20  C   UNL     1       7.299   4.516  17.161  0.00  0.00    +0.000 A 
ATOM     21  N   UNL     1       7.680   4.738  15.884  0.00  0.00    +0.000 NA
ATOM     22  C   UNL     1       6.761   4.487  14.927  0.00  0.00    +0.000 A 
ATOM     23  C   UNL     1       5.480   4.029  15.187  0.00  0.00    +0.000 A 
ENDBRANCH  17  18
ENDBRANCH  16  17
ENDBRANCH   4  16
TORSDOF 6
ENDMDL
MODEL 3
REMARK VINA RESULT:      -6.7      2.381      5.465
REMARK  Name = 
REMARK  7 active torsions:
REMARK  status: ('A' for Active; 'I' for Inactive)
REMARK    1  A    between atoms: C_1  and  C_2
REMARK    2  A    between atoms: C_5  and  C_6
REMARK    3  A    between atoms: C_6  and  N_7
REMARK    4  A    between atoms: N_7  and  C_8
REMARK    5  A    between atoms: N_11  and  C_12
REMARK    6  A    between atoms: C_12  and  C_13
REMARK    7  A    between atoms: C_13  and  C_14
REMARK                            x       y       z     vdW  Elec       q    Type
REMARK                         _______ _______ _______ _____ _____    ______ ____
ROOT
ATOM      1  C   UNL     1       3.874   2.726  17.693  0.00  0.00    +0.000 C 
ATOM      2  C   UNL     1       2.352   2.655  17.523  0.00  0.00    +0.000 C 
ATOM      3  C   UNL     1       1.663   3.808  18.253  0.00  0.00    +0.000 C 
ATOM      4  N   UNL     1       1.932   3.768  19.701  0.00  0.00    +0.000 NA
ATOM      5  C   UNL     1       3.388   3.841  19.949  0.00  0.00    +0.000 C 
ATOM      6  C   UNL     1       4.172   2.754  19.200  0.00  0.00    +0.000 C 
ENDROOT
BRANCH   1   7
ATOM      7  N   UNL     1       4.319   3.895  16.924  0.00  0.00    +0.000 NA
ATOM      8  H   UNL     1       3.697   4.013  16.121  0.00  0.00    +0.000 HD
BRANCH   7   9
ATOM      9  C   UNL     1       5.683   3.853  16.410  0.00  0.00    +0.000 C 
BRANCH   9  14
ATOM     10  C   UNL     1       7.846   8.582  17.716  0.00  0.00    +0.000 C 
ATOM     11  C   UNL     1       7.445   7.147  17.693  0.00  0.00    +0.000 A 
ATOM     12  C   UNL     1       7.757   6.159  18.604  0.00  0.00    +0.000 A 
ATOM     13  C   UNL     1       7.196   4.901  18.243  0.00  0.00    +0.000 A 
ATOM     14  C   UNL     1       6.460   4.963  17.073  0.00  0.00    +0.000 A 
ATOM     15  S   UNL     1       6.474   6.545  16.417  0.00  0.00    +0.000 S 
ENDBRANCH   9  14
ENDBRANCH   7   9
ENDBRANCH   1   7
BRANCH   4  16
ATOM     16  C   UNL     1       1.241   4.873  20.406  0.00  0.00    +0.000 C 
BRANCH  16  17
ATOM     17  C   UNL     1       2.182   6.026  20.803  0.00  0.00    +0.000 C 
BRANCH  17  18
ATOM     18  C   UNL     1       1.979   7.275  19.983  0.00  0.00    +0.000 A 
ATOM     19  C   UNL     1       2.420   7.343  18.657  0.00  0.00    +0.000 A 
ATOM     20  C   UNL     1       2.172   8.498  17.932  0.00  0.00    +0.000 A 
ATOM     21  N   UNL     1       1.535   9.577  18.435  0.00  0.00    +0.000 NA
ATOM     22  C   UNL     1       1.123   9.491  19.719  0.00  0.00    +0.000 A 
ATOM     23  C   UNL     1       1.323   8.381  20.522  0.00  0.00    +0.000 A 
ENDBRANCH  17  18
ENDBRANCH  16  17
ENDBRANCH   4  16
TORSDOF 6
ENDMDL
MODEL 4
REMARK VINA RESULT:      -6.6      4.617      6.862
REMARK  Name = 
REMARK  7 active torsions:
REMARK  status: ('A' for Active; 'I' for Inactive)
REMARK    1  A    between atoms: C_1  and  C_2
REMARK    2  A    between atoms: C_5  and  C_6
REMARK    3  A    between atoms: C_6  and  N_7
REMARK    4  A    between atoms: N_7  and  C_8
REMARK    5  A    between atoms: N_11  and  C_12
REMARK    6  A    between atoms: C_12  and  C_13
REMARK    7  A    between atoms: C_13  and  C_14
REMARK                            x       y       z     vdW  Elec       q    Type
REMARK                         _______ _______ _______ _____ _____    ______ ____
ROOT
ATOM      1  C   UNL     1       5.718   5.141  17.302  0.00  0.00    +0.000 C 
ATOM      2  C   UNL     1       6.905   4.715  18.173  0.00  0.00    +0.000 C 
ATOM      3  C   UNL     1       7.453   5.897  18.974  0.00  0.00    +0.000 C 
ATOM      4  N   UNL     1       7.938   6.970  18.090  0.00  0.00    +0.000 NA
ATOM      5  C   UNL     1       6.841   7.444  17.218  0.00  0.00    +0.000 C 
ATOM      6  C   UNL     1       6.186   6.308  16.420  0.00  0.00    +0.000 C 
ENDROOT
BRANCH   1   7
ATOM      7  N   UNL     1       4.615   5.431  18.226  0.00  0.00    +0.000 NA
ATOM      8  H   UNL     1       4.679   4.793  19.022  0.00  0.00    +0.000 HD
BRANCH   7   9
ATOM      9  C   UNL     1       3.266   5.312  17.685  0.00  0.00    +0.000 C 
BRANCH   9  14
ATOM     10  C   UNL     1       1.423   2.487  21.853  0.00  0.00    +0.000 C 
ATOM     11  C   UNL     1       1.622   3.084  20.502  0.00  0.00    +0.000 A 
ATOM     12  C   UNL     1       0.864   2.896  19.366  0.00  0.00    +0.000 A 
ATOM     13  C   UNL     1       1.368   3.634  18.257  0.00  0.00    +0.000 A 
ATOM     14  C   UNL     1       2.491   4.375  18.578  0.00  0.00    +0.000 A 
ATOM     15  S   UNL     1       2.930   4.153  20.218  0.00  0.00    +0.000 S 
ENDBRANCH   9  14
ENDBRANCH   7   9
ENDBRANCH   1   7
BRANCH   4  16
ATOM     16  C   UNL     1       8.489   8.101  18.872  0.00  0.00    +0.000 C 
BRANCH  16  17
ATOM     17  C   UNL     1       8.405   9.451  18.134  0.00  0.00    +0.000 C 
BRANCH  17  18
ATOM     18  C   UNL     1       9.343  10.495  18.685  0.00  0.00    +0.000 A 
ATOM     19  C   UNL     1       9.412  10.745  20.059  0.00  0.00    +0.000 A 
ATOM     20  C   UNL     1      10.320  11.685  20.520  0.00  0.00    +0.000 A 
ATOM     21  N   UNL     1      11.144  12.390  19.715  0.00  0.00    +0.000 NA
ATOM     22  C   UNL     1      11.056  12.136  18.391  0.00  0.00    +0.000 A 
ATOM     23  C   UNL     1      10.182  11.216  17.836  0.00  0.00    +0.000 A 
ENDBRANCH  17  18
ENDBRANCH  16  17
ENDBRANCH   4  16
TORSDOF 6
ENDMDL
MODEL 5
REMARK VINA RESULT:      -6.4      2.280      5.211
REMARK  Name = 
REMARK  7 active torsions:
REMARK  status: ('A' for Active; 'I' for Inactive)
REMARK    1  A    between atoms: C_1  and  C_2
REMARK    2  A    between atoms: C_5  and  C_6
REMARK    3  A    between atoms: C_6  and  N_7
REMARK    4  A    between atoms: N_7  and  C_8
REMARK    5  A    between atoms: N_11  and  C_12
REMARK    6  A    between atoms: C_12  and  C_13
REMARK    7  A    between atoms: C_13  and  C_14
REMARK                            x       y       z     vdW  Elec       q    Type
REMARK                         _______ _______ _______ _____ _____    ______ ____
ROOT
ATOM      1  C   UNL     1       1.979   1.838  19.559  0.00  0.00    +0.000 C 
ATOM      2  C   UNL     1       0.875   2.707  18.946  0.00  0.00    +0.000 C 
ATOM      3  C   UNL     1       1.153   4.193  19.175  0.00  0.00    +0.000 C 
ATOM      4  N   UNL     1       1.202   4.517  20.611  0.00  0.00    +0.000 NA
ATOM      5  C   UNL     1       2.255   3.720  21.277  0.00  0.00    +0.000 C 
ATOM      6  C   UNL     1       2.092   2.212  21.045  0.00  0.00    +0.000 C 
ENDROOT
BRANCH   1   7
ATOM      7  N   UNL     1       3.178   2.062  18.743  0.00  0.00    +0.000 NA
ATOM      8  H   UNL     1       3.446   1.177  18.307  0.00  0.00    +0.000 HD
BRANCH   7   9
ATOM      9  C   UNL     1       4.353   2.571  19.440  0.00  0.00    +0.000 C 
BRANCH   9  14
ATOM     10  C   UNL     1       5.138   6.467  15.842  0.00  0.00    +0.000 C 
ATOM     11  C   UNL     1       5.168   5.624  17.070  0.00  0.00    +0.000 A 
ATOM     12  C   UNL     1       5.806   5.879  18.265  0.00  0.00    +0.000 A 
ATOM     13  C   UNL     1       5.611   4.832  19.212  0.00  0.00    +0.000 A 
ATOM     14  C   UNL     1       4.817   3.812  18.719  0.00  0.00    +0.000 A 
ATOM     15  S   UNL     1       4.334   4.128  17.106  0.00  0.00    +0.000 S 
ENDBRANCH   9  14
ENDBRANCH   7   9
ENDBRANCH   1   7
BRANCH   4  16
ATOM     16  C   UNL     1       1.447   5.963  20.827  0.00  0.00    +0.000 C 
BRANCH  16  17
ATOM     17  C   UNL     1       2.402   6.581  19.787  0.00  0.00    +0.000 C 
BRANCH  17  18
ATOM     18  C   UNL     1       2.002   7.970  19.357  0.00  0.00    +0.000 A 
ATOM     19  C   UNL     1       2.344   8.456  18.091  0.00  0.00    +0.000 A 
ATOM     20  C   UNL     1       1.918   9.724  17.728  0.00  0.00    +0.000 A 
ATOM     21  N   UNL     1       1.194  10.531  18.533  0.00  0.00    +0.000 NA
ATOM     22  C   UNL     1       0.881  10.043  19.753  0.00  0.00    +0.000 A 
ATOM     23  C   UNL     1       1.259   8.791  20.205  0.00  0.00    +0.000 A 
ENDBRANCH  17  18
ENDBRANCH  16  17
ENDBRANCH   4  16
TORSDOF 6
ENDMDL
MODEL 6
REMARK VINA RESULT:      -6.4      1.040      1.553
REMARK  Name = 
REMARK  7 active torsions:
REMARK  status: ('A' for Active; 'I' for Inactive)
REMARK    1  A    between atoms: C_1  and  C_2
REMARK    2  A    between atoms: C_5  and  C_6
REMARK    3  A    between atoms: C_6  and  N_7
REMARK    4  A    between atoms: N_7  and  C_8
REMARK    5  A    between atoms: N_11  and  C_12
REMARK    6  A    between atoms: C_12  and  C_13
REMARK    7  A    between atoms: C_13  and  C_14
REMARK                            x       y       z     vdW  Elec       q    Type
REMARK                         _______ _______ _______ _____ _____    ______ ____
ROOT
ATOM      1  C   UNL     1       1.097   3.223  20.730  0.00  0.00    +0.000 C 
ATOM      2  C   UNL     1       2.580   3.002  21.050  0.00  0.00    +0.000 C 
ATOM      3  C   UNL     1       3.448   3.211  19.809  0.00  0.00    +0.000 C 
ATOM      4  N   UNL     1       3.098   2.261  18.739  0.00  0.00    +0.000 NA
ATOM      5  C   UNL     1       1.676   2.419  18.366  0.00  0.00    +0.000 C 
ATOM      6  C   UNL     1       0.730   2.288  19.568  0.00  0.00    +0.000 C 
ENDROOT
BRANCH   1   7
ATOM      7  N   UNL     1       0.941   4.660  20.477  0.00  0.00    +0.000 NA
ATOM      8  H   UNL     1       0.963   4.819  19.468  0.00  0.00    +0.000 HD
BRANCH   7   9
ATOM      9  C   UNL     1       1.944   5.536  21.072  0.00  0.00    +0.000 C 
BRANCH   9  14
ATOM     10  C   UNL     1       1.897   9.790  17.809  0.00  0.00    +0.000 C 
ATOM     11  C   UNL     1       1.723   8.873  18.971  0.00  0.00    +0.000 A 
ATOM     12  C   UNL     1       1.110   9.133  20.178  0.00  0.00    +0.000 A 
ATOM     13  C   UNL     1       1.141   8.007  21.049  0.00  0.00    +0.000 A 
ATOM     14  C   UNL     1       1.766   6.912  20.479  0.00  0.00    +0.000 A 
ATOM     15  S   UNL     1       2.323   7.271  18.900  0.00  0.00    +0.000 S 
ENDBRANCH   9  14
ENDBRANCH   7   9
ENDBRANCH   1   7
BRANCH   4  16
ATOM     16  C   UNL     1       3.959   2.453  17.549  0.00  0.00    +0.000 C 
BRANCH  16  17
ATOM     17  C   UNL     1       3.751   3.814  16.857  0.00  0.00    +0.000 C 
BRANCH  17  18
ATOM     18  C   UNL     1       5.040   4.502  16.488  0.00  0.00    +0.000 A 
ATOM     19  C   UNL     1       5.524   5.574  17.246  0.00  0.00    +0.000 A 
ATOM     20  C   UNL     1       6.735   6.147  16.889  0.00  0.00    +0.000 A 
ATOM     21  N   UNL     1       7.479   5.737  15.839  0.00  0.00    +0.000 NA
ATOM     22  C   UNL     1       6.989   4.705  15.119  0.00  0.00    +0.000 A 
ATOM     23  C   UNL     1       5.791   4.068  15.396  0.00  0.00    +0.000 A 
ENDBRANCH  17  18
ENDBRANCH  16  17
ENDBRANCH   4  16
TORSDOF 6
ENDMDL
MODEL 7
REMARK VINA RESULT:      -6.4      4.559      6.806
REMARK  Name = 
REMARK  7 active torsions:
REMARK  status: ('A' for Active; 'I' for Inactive)
REMARK    1  A    between atoms: C_1  and  C_2
REMARK    2  A    between atoms: C_5  and  C_6
REMARK    3  A    between atoms: C_6  and  N_7
REMARK    4  A    between atoms: N_7  and  C_8
REMARK    5  A    between atoms: N_11  and  C_12
REMARK    6  A    between atoms: C_12  and  C_13
REMARK    7  A    between atoms: C_13  and  C_14
REMARK                            x       y       z     vdW  Elec       q    Type
REMARK                         _______ _______ _______ _____ _____    ______ ____
ROOT
ATOM      1  C   UNL     1       5.619   5.064  17.153  0.00  0.00    +0.000 C 
ATOM      2  C   UNL     1       6.929   4.675  17.848  0.00  0.00    +0.000 C 
ATOM      3  C   UNL     1       7.493   5.845  18.654  0.00  0.00    +0.000 C 
ATOM      4  N   UNL     1       7.796   6.999  17.791  0.00  0.00    +0.000 NA
ATOM      5  C   UNL     1       6.573   7.443  17.087  0.00  0.00    +0.000 C 
ATOM      6  C   UNL     1       5.900   6.310  16.299  0.00  0.00    +0.000 C 
ENDROOT
BRANCH   1   7
ATOM      7  N   UNL     1       4.621   5.221  18.218  0.00  0.00    +0.000 NA
ATOM      8  H   UNL     1       4.765   4.484  18.911  0.00  0.00    +0.000 HD
BRANCH   7   9
ATOM      9  C   UNL     1       3.222   5.161  17.810  0.00  0.00    +0.000 C 
BRANCH   9  14
ATOM     10  C   UNL     1       1.229   2.411  21.958  0.00  0.00    +0.000 C 
ATOM     11  C   UNL     1       1.590   2.880  20.591  0.00  0.00    +0.000 A 
ATOM     12  C   UNL     1       1.215   2.342  19.378  0.00  0.00    +0.000 A 
ATOM     13  C   UNL     1       1.762   3.065  18.279  0.00  0.00    +0.000 A 
ATOM     14  C   UNL     1       2.530   4.143  18.681  0.00  0.00    +0.000 A 
ATOM     15  S   UNL     1       2.591   4.254  20.389  0.00  0.00    +0.000 S 
ENDBRANCH   9  14
ENDBRANCH   7   9
ENDBRANCH   1   7
BRANCH   4  16
ATOM     16  C   UNL     1       8.366   8.121  18.574  0.00  0.00    +0.000 C 
BRANCH  16  17
ATOM     17  C   UNL     1       8.316   9.470  17.832  0.00  0.00    +0.000 C 
BRANCH  17  18
ATOM     18  C   UNL     1       9.052  10.575  18.548  0.00  0.00    +0.000 A 
ATOM     19  C   UNL     1       9.361  11.772  17.894  0.00  0.00    +0.000 A 
ATOM     20  C   UNL     1      10.002  12.773  18.607  0.00  0.00    +0.000 A 
ATOM     21  N   UNL     1      10.359  12.659  19.904  0.00  0.00    +0.000 NA
ATOM     22  C   UNL     1      10.055  11.493  20.513  0.00  0.00    +0.000 A 
ATOM     23  C   UNL     1       9.417  10.436  19.886  0.00  0.00    +0.000 A 
ENDBRANCH  17  18
ENDBRANCH  16  17
ENDBRANCH   4  16
TORSDOF 6
ENDMDL
MODEL 8
REMARK VINA RESULT:      -6.3      1.426      1.714
REMARK  Name = 
REMARK  7 active torsions:
REMARK  status: ('A' for Active; 'I' for Inactive)
REMARK    1  A    between atoms: C_1  and  C_2
REMARK    2  A    between atoms: C_5  and  C_6
REMARK    3  A    between atoms: C_6  and  N_7
REMARK    4  A    between atoms: N_7  and  C_8
REMARK    5  A    between atoms: N_11  and  C_12
REMARK    6  A    between atoms: C_12  and  C_13
REMARK    7  A    between atoms: C_13  and  C_14
REMARK                            x       y       z     vdW  Elec       q    Type
REMARK                         _______ _______ _______ _____ _____    ______ ____
ROOT
ATOM      1  C   UNL     1       1.705   4.471  21.009  0.00  0.00    +0.000 C 
ATOM      2  C   UNL     1       2.733   3.368  21.284  0.00  0.00    +0.000 C 
ATOM      3  C   UNL     1       3.625   3.130  20.065  0.00  0.00    +0.000 C 
ATOM      4  N   UNL     1       2.837   2.695  18.898  0.00  0.00    +0.000 NA
ATOM      5  C   UNL     1       1.822   3.716  18.562  0.00  0.00    +0.000 C 
ATOM      6  C   UNL     1       0.919   4.067  19.752  0.00  0.00    +0.000 C 
ENDROOT
BRANCH   1   7
ATOM      7  N   UNL     1       2.461   5.726  20.923  0.00  0.00    +0.000 NA
ATOM      8  H   UNL     1       2.277   6.276  21.765  0.00  0.00    +0.000 HD
BRANCH   7   9
ATOM      9  C   UNL     1       2.173   6.581  19.778  0.00  0.00    +0.000 C 
BRANCH   9  14
ATOM     10  C   UNL     1       0.198  11.545  20.232  0.00  0.00    +0.000 C 
ATOM     11  C   UNL     1       0.703  10.172  20.516  0.00  0.00    +0.000 A 
ATOM     12  C   UNL     1       0.789   9.530  21.733  0.00  0.00    +0.000 A 
ATOM     13  C   UNL     1       1.331   8.218  21.610  0.00  0.00    +0.000 A 
ATOM     14  C   UNL     1       1.635   7.889  20.301  0.00  0.00    +0.000 A 
ATOM     15  S   UNL     1       1.272   9.183  19.239  0.00  0.00    +0.000 S 
ENDBRANCH   9  14
ENDBRANCH   7   9
ENDBRANCH   1   7
BRANCH   4  16
ATOM     16  C   UNL     1       3.710   2.442  17.727  0.00  0.00    +0.000 C 
BRANCH  16  17
ATOM     17  C   UNL     1       3.617   3.539  16.649  0.00  0.00    +0.000 C 
BRANCH  17  18
ATOM     18  C   UNL     1       4.897   4.317  16.474  0.00  0.00    +0.000 A 
ATOM     19  C   UNL     1       5.890   3.876  15.593  0.00  0.00    +0.000 A 
ATOM     20  C   UNL     1       7.030   4.648  15.437  0.00  0.00    +0.000 A 
ATOM     21  N   UNL     1       7.250   5.805  16.098  0.00  0.00    +0.000 NA
ATOM     22  C   UNL     1       6.281   6.207  16.948  0.00  0.00    +0.000 A 
ATOM     23  C   UNL     1       5.107   5.507  17.170  0.00  0.00    +0.000 A 
ENDBRANCH  17  18
ENDBRANCH  16  17
ENDBRANCH   4  16
TORSDOF 6
ENDMDL
MODEL 9
REMARK VINA RESULT:      -6.3      1.299      1.523
REMARK  Name = 
REMARK  7 active torsions:
REMARK  status: ('A' for Active; 'I' for Inactive)
REMARK    1  A    between atoms: C_1  and  C_2
REMARK    2  A    between atoms: C_5  and  C_6
REMARK    3  A    between atoms: C_6  and  N_7
REMARK    4  A    between atoms: N_7  and  C_8
REMARK    5  A    between atoms: N_11  and  C_12
REMARK    6  A    between atoms: C_12  and  C_13
REMARK    7  A    between atoms: C_13  and  C_14
REMARK                            x       y       z     vdW  Elec       q    Type
REMARK                         _______ _______ _______ _____ _____    ______ ____
ROOT
ATOM      1  C   UNL     1       1.611   4.504  20.940  0.00  0.00    +0.000 C 
ATOM      2  C   UNL     1       2.602   3.391  21.300  0.00  0.00    +0.000 C 
ATOM      3  C   UNL     1       3.582   3.136  20.154  0.00  0.00    +0.000 C 
ATOM      4  N   UNL     1       2.882   2.704  18.932  0.00  0.00    +0.000 NA
ATOM      5  C   UNL     1       1.908   3.735  18.513  0.00  0.00    +0.000 C 
ATOM      6  C   UNL     1       0.920   4.103  19.628  0.00  0.00    +0.000 C 
ENDROOT
BRANCH   1   7
ATOM      7  N   UNL     1       2.387   5.750  20.908  0.00  0.00    +0.000 NA
ATOM      8  H   UNL     1       1.938   6.430  21.525  0.00  0.00    +0.000 HD
BRANCH   7   9
ATOM      9  C   UNL     1       2.540   6.386  19.605  0.00  0.00    +0.000 C 
BRANCH   9  14
ATOM     10  C   UNL     1       0.083  10.862  21.240  0.00  0.00    +0.000 C 
ATOM     11  C   UNL     1       0.772   9.821  20.426  0.00  0.00    +0.000 A 
ATOM     12  C   UNL     1       1.146   9.884  19.101  0.00  0.00    +0.000 A 
ATOM     13  C   UNL     1       1.782   8.686  18.665  0.00  0.00    +0.000 A 
ATOM     14  C   UNL     1       1.887   7.744  19.673  0.00  0.00    +0.000 A 
ATOM     15  S   UNL     1       1.198   8.320  21.132  0.00  0.00    +0.000 S 
ENDBRANCH   9  14
ENDBRANCH   7   9
ENDBRANCH   1   7
BRANCH   4  16
ATOM     16  C   UNL     1       3.839   2.434  17.833  0.00  0.00    +0.000 C 
BRANCH  16  17
ATOM     17  C   UNL     1       3.729   3.437  16.668  0.00  0.00    +0.000 C 
BRANCH  17  18
ATOM     18  C   UNL     1       4.982   4.250  16.456  0.00  0.00    +0.000 A 
ATOM     19  C   UNL     1       5.937   3.862  15.511  0.00  0.00    +0.000 A 
ATOM     20  C   UNL     1       7.052   4.664  15.325  0.00  0.00    +0.000 A 
ATOM     21  N   UNL     1       7.280   5.803  16.014  0.00  0.00    +0.000 NA
ATOM     22  C   UNL     1       6.347   6.155  16.925  0.00  0.00    +0.000 A 
ATOM     23  C   UNL     1       5.202   5.420  17.181  0.00  0.00    +0.000 A 
ENDBRANCH  17  18
ENDBRANCH  16  17
ENDBRANCH   4  16
TORSDOF 6
ENDMDL
