MODEL 1
REMARK VINA RESULT:      -7.8      0.000      0.000
REMARK  Name = 
REMARK  8 active torsions:
REMARK  status: ('A' for Active; 'I' for Inactive)
REMARK    1  A    between atoms: C_1  and  O_2
REMARK    2  A    between atoms: O_2  and  C_3
REMARK    3  A    between atoms: C_6  and  N_7
REMARK    4  A    between atoms: C_11  and  N_12
REMARK    5  A    between atoms: C_13  and  C_15
REMARK    6  A    between atoms: C_15  and  C_16
REMARK    7  A    between atoms: C_15  and  O_17
REMARK    8  A    between atoms: O_17  and  C_18
REMARK                            x       y       z     vdW  Elec       q    Type
REMARK                         _______ _______ _______ _____ _____    ______ ____
ROOT
ATOM      1  N   UNL     1       2.359   6.528  19.798  0.00  0.00    +0.000 N 
ATOM      2  N   UNL     1       1.620   5.714  20.611  0.00  0.00    +0.000 NA
ATOM      3  C   UNL     1       2.390   4.643  20.774  0.00  0.00    +0.000 A 
ATOM      4  C   UNL     1       3.552   4.672  19.999  0.00  0.00    +0.000 A 
ATOM      5  C   UNL     1       3.531   5.890  19.365  0.00  0.00    +0.000 A 
ATOM      6  C   UNL     1       4.349   3.437  19.989  0.00  0.00    +0.000 C 
ATOM      7  S   UNL     1       3.222   2.153  20.778  0.00  0.00    +0.000 S 
ATOM      8  O   UNL     1       4.036   1.448  21.923  0.00  0.00    +0.000 OA
ATOM      9  C   UNL     1       2.110   3.431  21.562  0.00  0.00    +0.000 C 
ENDROOT
BRANCH   1  13
ATOM     10  C   UNL     1       1.113  10.456  18.837  0.00  0.00    +0.000 A 
ATOM     11  C   UNL     1       0.856   9.931  20.102  0.00  0.00    +0.000 A 
ATOM     12  C   UNL     1       1.249   8.634  20.428  0.00  0.00    +0.000 A 
ATOM     13  C   UNL     1       1.914   7.842  19.483  0.00  0.00    +0.000 A 
ATOM     14  C   UNL     1       2.123   8.349  18.194  0.00  0.00    +0.000 A 
ATOM     15  C   UNL     1       1.729   9.655  17.875  0.00  0.00    +0.000 A 
BRANCH  10  17
ATOM     16  C   UNL     1      -0.741  11.915  18.723  0.00  0.00    +0.000 C 
ATOM     17  O   UNL     1       0.668  11.731  18.646  0.00  0.00    +0.000 OA
ENDBRANCH  10  17
ENDBRANCH   1  13
BRANCH   5  18
ATOM     18  N   UNL     1       4.418   6.346  18.393  0.00  0.00    +0.000 N 
ATOM     19  C   UNL     1       4.577   5.649  17.141  0.00  0.00    +0.000 C 
ATOM     20  O   UNL     1       3.861   4.687  16.899  0.00  0.00    +0.000 OA
ATOM     21  H   UNL     1       5.124   7.014  18.680  0.00  0.00    +0.000 HD
BRANCH  19  22
ATOM     22  C   UNL     1       5.720   6.119  16.233  0.00  0.00    +0.000 C 
ATOM     23  C   UNL     1       6.598   7.138  16.953  0.00  0.00    +0.000 C 
BRANCH  22  24
ATOM     24  O   UNL     1       6.510   4.983  15.872  0.00  0.00    +0.000 OA
BRANCH  24  25
ATOM     25  C   UNL     1       6.730   4.741  14.540  0.00  0.00    +0.000 A 
ATOM     26  C   UNL     1       5.912   3.760  13.967  0.00  0.00    +0.000 A 
ATOM     27  C   UNL     1       6.028   3.428  12.612  0.00  0.00    +0.000 A 
ATOM     28  C   UNL     1       6.962   4.082  11.813  0.00  0.00    +0.000 A 
ATOM     29  C   UNL     1       7.769   5.071  12.370  0.00  0.00    +0.000 A 
ATOM     30  C   UNL     1       7.652   5.404  13.724  0.00  0.00    +0.000 A 
ENDBRANCH  24  25
ENDBRANCH  22  24
ENDBRANCH  19  22
ENDBRANCH   5  18
TORSDOF 6
ENDMDL
MODEL 2
REMARK VINA RESULT:      -7.7      0.524      1.366
REMARK  Name = 
REMARK  8 active torsions:
REMARK  status: ('A' for Active; 'I' for Inactive)
REMARK    1  A    between atoms: C_1  and  O_2
REMARK    2  A    between atoms: O_2  and  C_3
REMARK    3  A    between atoms: C_6  and  N_7
REMARK    4  A    between atoms: C_11  and  N_12
REMARK    5  A    between atoms: C_13  and  C_15
REMARK    6  A    between atoms: C_15  and  C_16
REMARK    7  A    between atoms: C_15  and  O_17
REMARK    8  A    between atoms: O_17  and  C_18
REMARK                            x       y       z     vdW  Elec       q    Type
REMARK                         _______ _______ _______ _____ _____    ______ ____
ROOT
ATOM      1  N   UNL     1       2.683   6.190  19.687  0.00  0.00    +0.000 N 
ATOM      2  N   UNL     1       1.991   5.264  20.419  0.00  0.00    +0.000 NA
ATOM      3  C   UNL     1       2.857   4.268  20.572  0.00  0.00    +0.000 A 
ATOM      4  C   UNL     1       4.046   4.453  19.863  0.00  0.00    +0.000 A 
ATOM      5  C   UNL     1       3.933   5.695  19.288  0.00  0.00    +0.000 A 
ATOM      6  C   UNL     1       4.965   3.305  19.837  0.00  0.00    +0.000 C 
ATOM      7  S   UNL     1       3.937   1.876  20.501  0.00  0.00    +0.000 S 
ATOM      8  O   UNL     1       4.760   1.195  21.653  0.00  0.00    +0.000 OA
ATOM      9  C   UNL     1       2.664   2.993  21.284  0.00  0.00    +0.000 C 
ENDROOT
BRANCH   1  13
ATOM     10  C   UNL     1       0.940   9.965  18.905  0.00  0.00    +0.000 A 
ATOM     11  C   UNL     1       1.576   9.264  17.882  0.00  0.00    +0.000 A 
ATOM     12  C   UNL     1       2.167   8.026  18.129  0.00  0.00    +0.000 A 
ATOM     13  C   UNL     1       2.122   7.468  19.413  0.00  0.00    +0.000 A 
ATOM     14  C   UNL     1       1.530   8.198  20.453  0.00  0.00    +0.000 A 
ATOM     15  C   UNL     1       0.935   9.439  20.197  0.00  0.00    +0.000 A 
BRANCH  10  17
ATOM     16  C   UNL     1      -0.991  11.182  18.297  0.00  0.00    +0.000 C 
ATOM     17  O   UNL     1       0.412  11.167  18.531  0.00  0.00    +0.000 OA
ENDBRANCH  10  17
ENDBRANCH   1  13
BRANCH   5  18
ATOM     18  N   UNL     1       4.815   6.288  18.390  0.00  0.00    +0.000 N 
ATOM     19  C   UNL     1       5.035   5.729  17.079  0.00  0.00    +0.000 C 
ATOM     20  O   UNL     1       4.374   4.764  16.725  0.00  0.00    +0.000 OA
ATOM     21  H   UNL     1       5.482   6.957  18.760  0.00  0.00    +0.000 HD
BRANCH  19  22
ATOM     22  C   UNL     1       6.172   6.342  16.252  0.00  0.00    +0.000 C 
ATOM     23  C   UNL     1       6.968   7.340  17.085  0.00  0.00    +0.000 C 
BRANCH  22  24
ATOM     24  O   UNL     1       7.036   5.289  15.817  0.00  0.00    +0.000 OA
BRANCH  24  25
ATOM     25  C   UNL     1       6.916   4.839  14.528  0.00  0.00    +0.000 A 
ATOM     26  C   UNL     1       7.779   5.436  13.602  0.00  0.00    +0.000 A 
ATOM     27  C   UNL     1       7.765   5.056  12.255  0.00  0.00    +0.000 A 
ATOM     28  C   UNL     1       6.889   4.064  11.822  0.00  0.00    +0.000 A 
ATOM     29  C   UNL     1       6.038   3.452  12.737  0.00  0.00    +0.000 A 
ATOM     30  C   UNL     1       6.052   3.832  14.084  0.00  0.00    +0.000 A 
ENDBRANCH  24  25
ENDBRANCH  22  24
ENDBRANCH  19  22
ENDBRANCH   5  18
TORSDOF 6
ENDMDL
MODEL 3
REMARK VINA RESULT:      -7.6      1.010      1.652
REMARK  Name = 
REMARK  8 active torsions:
REMARK  status: ('A' for Active; 'I' for Inactive)
REMARK    1  A    between atoms: C_1  and  O_2
REMARK    2  A    between atoms: O_2  and  C_3
REMARK    3  A    between atoms: C_6  and  N_7
REMARK    4  A    between atoms: C_11  and  N_12
REMARK    5  A    between atoms: C_13  and  C_15
REMARK    6  A    between atoms: C_15  and  C_16
REMARK    7  A    between atoms: C_15  and  O_17
REMARK    8  A    between atoms: O_17  and  C_18
REMARK                            x       y       z     vdW  Elec       q    Type
REMARK                         _______ _______ _______ _____ _____    ______ ____
ROOT
ATOM      1  N   UNL     1       2.561   6.401  19.670  0.00  0.00    +0.000 N 
ATOM      2  N   UNL     1       1.910   5.636  20.598  0.00  0.00    +0.000 NA
ATOM      3  C   UNL     1       2.666   4.548  20.700  0.00  0.00    +0.000 A 
ATOM      4  C   UNL     1       3.720   4.516  19.784  0.00  0.00    +0.000 A 
ATOM      5  C   UNL     1       3.651   5.714  19.115  0.00  0.00    +0.000 A 
ATOM      6  C   UNL     1       4.476   3.258  19.717  0.00  0.00    +0.000 C 
ATOM      7  S   UNL     1       3.425   2.034  20.686  0.00  0.00    +0.000 S 
ATOM      8  O   UNL     1       4.358   1.342  21.744  0.00  0.00    +0.000 OA
ATOM      9  C   UNL     1       2.456   3.370  21.559  0.00  0.00    +0.000 C 
ENDROOT
BRANCH   1  13
ATOM     10  C   UNL     1       1.153  10.294  18.796  0.00  0.00    +0.000 A 
ATOM     11  C   UNL     1       1.866   9.578  17.837  0.00  0.00    +0.000 A 
ATOM     12  C   UNL     1       2.348   8.300  18.116  0.00  0.00    +0.000 A 
ATOM     13  C   UNL     1       2.115   7.717  19.368  0.00  0.00    +0.000 A 
ATOM     14  C   UNL     1       1.446   8.459  20.351  0.00  0.00    +0.000 A 
ATOM     15  C   UNL     1       0.961   9.741  20.062  0.00  0.00    +0.000 A 
BRANCH  10  17
ATOM     16  C   UNL     1       1.692  12.583  18.577  0.00  0.00    +0.000 C 
ATOM     17  O   UNL     1       0.747  11.535  18.398  0.00  0.00    +0.000 OA
ENDBRANCH  10  17
ENDBRANCH   1  13
BRANCH   5  18
ATOM     18  N   UNL     1       4.419   6.112  18.024  0.00  0.00    +0.000 N 
ATOM     19  C   UNL     1       5.860   6.124  18.090  0.00  0.00    +0.000 C 
ATOM     20  O   UNL     1       6.414   5.703  19.094  0.00  0.00    +0.000 OA
ATOM     21  H   UNL     1       3.953   6.628  17.286  0.00  0.00    +0.000 HD
BRANCH  19  22
ATOM     22  C   UNL     1       6.595   6.769  16.908  0.00  0.00    +0.000 C 
ATOM     23  C   UNL     1       7.473   7.922  17.382  0.00  0.00    +0.000 C 
BRANCH  22  24
ATOM     24  O   UNL     1       7.412   5.774  16.285  0.00  0.00    +0.000 OA
BRANCH  24  25
ATOM     25  C   UNL     1       6.908   5.105  15.200  0.00  0.00    +0.000 A 
ATOM     26  C   UNL     1       7.618   5.278  14.006  0.00  0.00    +0.000 A 
ATOM     27  C   UNL     1       7.213   4.637  12.829  0.00  0.00    +0.000 A 
ATOM     28  C   UNL     1       6.095   3.808  12.837  0.00  0.00    +0.000 A 
ATOM     29  C   UNL     1       5.391   3.617  14.023  0.00  0.00    +0.000 A 
ATOM     30  C   UNL     1       5.796   4.256  15.200  0.00  0.00    +0.000 A 
ENDBRANCH  24  25
ENDBRANCH  22  24
ENDBRANCH  19  22
ENDBRANCH   5  18
TORSDOF 6
ENDMDL
MODEL 4
REMARK VINA RESULT:      -7.6      0.924      1.321
REMARK  Name = 
REMARK  8 active torsions:
REMARK  status: ('A' for Active; 'I' for Inactive)
REMARK    1  A    between atoms: C_1  and  O_2
REMARK    2  A    between atoms: O_2  and  C_3
REMARK    3  A    between atoms: C_6  and  N_7
REMARK    4  A    between atoms: C_11  and  N_12
REMARK    5  A    between atoms: C_13  and  C_15
REMARK    6  A    between atoms: C_15  and  C_16
REMARK    7  A    between atoms: C_15  and  O_17
REMARK    8  A    between atoms: O_17  and  C_18
REMARK                            x       y       z     vdW  Elec       q    Type
REMARK                         _______ _______ _______ _____ _____    ______ ____
ROOT
ATOM      1  N   UNL     1       2.606   6.306  19.615  0.00  0.00    +0.000 N 
ATOM      2  N   UNL     1       1.974   5.527  20.545  0.00  0.00    +0.000 NA
ATOM      3  C   UNL     1       2.751   4.453  20.641  0.00  0.00    +0.000 A 
ATOM      4  C   UNL     1       3.801   4.443  19.719  0.00  0.00    +0.000 A 
ATOM      5  C   UNL     1       3.705   5.640  19.053  0.00  0.00    +0.000 A 
ATOM      6  C   UNL     1       4.580   3.199  19.645  0.00  0.00    +0.000 C 
ATOM      7  S   UNL     1       3.558   1.954  20.618  0.00  0.00    +0.000 S 
ATOM      8  O   UNL     1       4.510   1.277  21.668  0.00  0.00    +0.000 OA
ATOM      9  C   UNL     1       2.569   3.269  21.499  0.00  0.00    +0.000 C 
ENDROOT
BRANCH   1  13
ATOM     10  C   UNL     1       1.276  10.218  18.706  0.00  0.00    +0.000 A 
ATOM     11  C   UNL     1       1.053   9.681  19.973  0.00  0.00    +0.000 A 
ATOM     12  C   UNL     1       1.474   8.389  20.282  0.00  0.00    +0.000 A 
ATOM     13  C   UNL     1       2.133   7.614  19.319  0.00  0.00    +0.000 A 
ATOM     14  C   UNL     1       2.308   8.134  18.029  0.00  0.00    +0.000 A 
ATOM     15  C   UNL     1       1.886   9.435  17.727  0.00  0.00    +0.000 A 
BRANCH  10  17
ATOM     16  C   UNL     1      -0.607  11.640  18.595  0.00  0.00    +0.000 C 
ATOM     17  O   UNL     1       0.807  11.488  18.533  0.00  0.00    +0.000 OA
ENDBRANCH  10  17
ENDBRANCH   1  13
BRANCH   5  18
ATOM     18  N   UNL     1       4.459   6.054  17.958  0.00  0.00    +0.000 N 
ATOM     19  C   UNL     1       5.897   6.141  18.031  0.00  0.00    +0.000 C 
ATOM     20  O   UNL     1       6.465   5.767  19.046  0.00  0.00    +0.000 OA
ATOM     21  H   UNL     1       3.972   6.533  17.208  0.00  0.00    +0.000 HD
BRANCH  19  22
ATOM     22  C   UNL     1       6.606   6.798  16.841  0.00  0.00    +0.000 C 
ATOM     23  C   UNL     1       7.453   7.980  17.301  0.00  0.00    +0.000 C 
BRANCH  22  24
ATOM     24  O   UNL     1       7.449   5.823  16.219  0.00  0.00    +0.000 OA
BRANCH  24  25
ATOM     25  C   UNL     1       6.957   5.130  15.143  0.00  0.00    +0.000 A 
ATOM     26  C   UNL     1       7.656   5.311  13.944  0.00  0.00    +0.000 A 
ATOM     27  C   UNL     1       7.263   4.650  12.775  0.00  0.00    +0.000 A 
ATOM     28  C   UNL     1       6.168   3.792  12.796  0.00  0.00    +0.000 A 
ATOM     29  C   UNL     1       5.475   3.592  13.987  0.00  0.00    +0.000 A 
ATOM     30  C   UNL     1       5.868   4.252  15.157  0.00  0.00    +0.000 A 
ENDBRANCH  24  25
ENDBRANCH  22  24
ENDBRANCH  19  22
ENDBRANCH   5  18
TORSDOF 6
ENDMDL
MODEL 5
REMARK VINA RESULT:      -7.5      5.076     10.504
REMARK  Name = 
REMARK  8 active torsions:
REMARK  status: ('A' for Active; 'I' for Inactive)
REMARK    1  A    between atoms: C_1  and  O_2
REMARK    2  A    between atoms: O_2  and  C_3
REMARK    3  A    between atoms: C_6  and  N_7
REMARK    4  A    between atoms: C_11  and  N_12
REMARK    5  A    between atoms: C_13  and  C_15
REMARK    6  A    between atoms: C_15  and  C_16
REMARK    7  A    between atoms: C_15  and  O_17
REMARK    8  A    between atoms: O_17  and  C_18
REMARK                            x       y       z     vdW  Elec       q    Type
REMARK                         _______ _______ _______ _____ _____    ______ ____
ROOT
ATOM      1  N   UNL     1       0.173  10.948  20.322  0.00  0.00    +0.000 N 
ATOM      2  N   UNL     1       0.741  11.813  21.216  0.00  0.00    +0.000 NA
ATOM      3  C   UNL     1      -0.254  12.632  21.541  0.00  0.00    +0.000 A 
ATOM      4  C   UNL     1      -1.418  12.413  20.801  0.00  0.00    +0.000 A 
ATOM      5  C   UNL     1      -1.141  11.325  20.009  0.00  0.00    +0.000 A 
ATOM      6  C   UNL     1      -2.489  13.404  20.978  0.00  0.00    +0.000 C 
ATOM      7  S   UNL     1      -1.661  14.820  21.900  0.00  0.00    +0.000 S 
ATOM      8  O   UNL     1      -2.552  15.155  23.151  0.00  0.00    +0.000 OA
ATOM      9  C   UNL     1      -0.230  13.770  22.477  0.00  0.00    +0.000 C 
ENDROOT
BRANCH   1  13
ATOM     10  C   UNL     1       2.290   7.628  18.773  0.00  0.00    +0.000 A 
ATOM     11  C   UNL     1       1.880   7.635  20.104  0.00  0.00    +0.000 A 
ATOM     12  C   UNL     1       1.194   8.728  20.632  0.00  0.00    +0.000 A 
ATOM     13  C   UNL     1       0.903   9.834  19.823  0.00  0.00    +0.000 A 
ATOM     14  C   UNL     1       1.364   9.850  18.499  0.00  0.00    +0.000 A 
ATOM     15  C   UNL     1       2.049   8.747  17.975  0.00  0.00    +0.000 A 
BRANCH  10  17
ATOM     16  C   UNL     1       3.499   5.711  19.439  0.00  0.00    +0.000 C 
ATOM     17  O   UNL     1       2.959   6.503  18.387  0.00  0.00    +0.000 OA
ENDBRANCH  10  17
ENDBRANCH   1  13
BRANCH   5  18
ATOM     18  N   UNL     1      -1.947  10.787  19.010  0.00  0.00    +0.000 N 
ATOM     19  C   UNL     1      -2.075  11.431  17.726  0.00  0.00    +0.000 C 
ATOM     20  O   UNL     1      -1.401  12.423  17.487  0.00  0.00    +0.000 OA
ATOM     21  H   UNL     1      -2.631  10.090  19.283  0.00  0.00    +0.000 HD
BRANCH  19  22
ATOM     22  C   UNL     1      -3.140  10.867  16.777  0.00  0.00    +0.000 C 
ATOM     23  C   UNL     1      -2.570   9.724  15.944  0.00  0.00    +0.000 C 
BRANCH  22  24
ATOM     24  O   UNL     1      -4.235  10.384  17.560  0.00  0.00    +0.000 OA
BRANCH  24  25
ATOM     25  C   UNL     1      -5.308  11.214  17.759  0.00  0.00    +0.000 A 
ATOM     26  C   UNL     1      -6.152  10.860  18.818  0.00  0.00    +0.000 A 
ATOM     27  C   UNL     1      -7.276  11.632  19.133  0.00  0.00    +0.000 A 
ATOM     28  C   UNL     1      -7.563  12.776  18.392  0.00  0.00    +0.000 A 
ATOM     29  C   UNL     1      -6.722  13.146  17.347  0.00  0.00    +0.000 A 
ATOM     30  C   UNL     1      -5.597  12.374  17.032  0.00  0.00    +0.000 A 
ENDBRANCH  24  25
ENDBRANCH  22  24
ENDBRANCH  19  22
ENDBRANCH   5  18
TORSDOF 6
ENDMDL
MODEL 6
REMARK VINA RESULT:      -7.5      4.745     10.569
REMARK  Name = 
REMARK  8 active torsions:
REMARK  status: ('A' for Active; 'I' for Inactive)
REMARK    1  A    between atoms: C_1  and  O_2
REMARK    2  A    between atoms: O_2  and  C_3
REMARK    3  A    between atoms: C_6  and  N_7
REMARK    4  A    between atoms: C_11  and  N_12
REMARK    5  A    between atoms: C_13  and  C_15
REMARK    6  A    between atoms: C_15  and  C_16
REMARK    7  A    between atoms: C_15  and  O_17
REMARK    8  A    between atoms: O_17  and  C_18
REMARK                            x       y       z     vdW  Elec       q    Type
REMARK                         _______ _______ _______ _____ _____    ______ ____
ROOT
ATOM      1  N   UNL     1       0.193  11.029  20.258  0.00  0.00    +0.000 N 
ATOM      2  N   UNL     1       0.811  11.893  21.120  0.00  0.00    +0.000 NA
ATOM      3  C   UNL     1      -0.153  12.741  21.464  0.00  0.00    +0.000 A 
ATOM      4  C   UNL     1      -1.345  12.540  20.764  0.00  0.00    +0.000 A 
ATOM      5  C   UNL     1      -1.121  11.434  19.982  0.00  0.00    +0.000 A 
ATOM      6  C   UNL     1      -2.386  13.560  20.959  0.00  0.00    +0.000 C 
ATOM      7  S   UNL     1      -1.494  14.969  21.832  0.00  0.00    +0.000 S 
ATOM      8  O   UNL     1      -2.336  15.345  23.105  0.00  0.00    +0.000 OA
ATOM      9  C   UNL     1      -0.071  13.892  22.379  0.00  0.00    +0.000 C 
ENDROOT
BRANCH   1  13
ATOM     10  C   UNL     1       2.294   7.649  18.821  0.00  0.00    +0.000 A 
ATOM     11  C   UNL     1       1.980   8.695  17.956  0.00  0.00    +0.000 A 
ATOM     12  C   UNL     1       1.276   9.809  18.413  0.00  0.00    +0.000 A 
ATOM     13  C   UNL     1       0.880   9.890  19.754  0.00  0.00    +0.000 A 
ATOM     14  C   UNL     1       1.148   8.813  20.610  0.00  0.00    +0.000 A 
ATOM     15  C   UNL     1       1.858   7.699  20.145  0.00  0.00    +0.000 A 
BRANCH  10  17
ATOM     16  C   UNL     1       4.111   6.981  17.467  0.00  0.00    +0.000 C 
ATOM     17  O   UNL     1       2.976   6.617  18.244  0.00  0.00    +0.000 OA
ENDBRANCH  10  17
ENDBRANCH   1  13
BRANCH   5  18
ATOM     18  N   UNL     1      -1.971  10.901  19.017  0.00  0.00    +0.000 N 
ATOM     19  C   UNL     1      -2.066  11.483  17.701  0.00  0.00    +0.000 C 
ATOM     20  O   UNL     1      -1.327  12.411  17.406  0.00  0.00    +0.000 OA
ATOM     21  H   UNL     1      -2.699  10.269  19.332  0.00  0.00    +0.000 HD
BRANCH  19  22
ATOM     22  C   UNL     1      -3.176  10.944  16.790  0.00  0.00    +0.000 C 
ATOM     23  C   UNL     1      -2.653   9.812  15.913  0.00  0.00    +0.000 C 
BRANCH  22  24
ATOM     24  O   UNL     1      -4.240  10.456  17.611  0.00  0.00    +0.000 OA
BRANCH  24  25
ATOM     25  C   UNL     1      -5.328  11.266  17.816  0.00  0.00    +0.000 A 
ATOM     26  C   UNL     1      -6.149  10.907  18.892  0.00  0.00    +0.000 A 
ATOM     27  C   UNL     1      -7.284  11.660  19.214  0.00  0.00    +0.000 A 
ATOM     28  C   UNL     1      -7.605  12.789  18.464  0.00  0.00    +0.000 A 
ATOM     29  C   UNL     1      -6.787  13.164  17.403  0.00  0.00    +0.000 A 
ATOM     30  C   UNL     1      -5.651  12.412  17.081  0.00  0.00    +0.000 A 
ENDBRANCH  24  25
ENDBRANCH  22  24
ENDBRANCH  19  22
ENDBRANCH   5  18
TORSDOF 6
ENDMDL
MODEL 7
REMARK VINA RESULT:      -7.5      4.764     10.560
REMARK  Name = 
REMARK  8 active torsions:
REMARK  status: ('A' for Active; 'I' for Inactive)
REMARK    1  A    between atoms: C_1  and  O_2
REMARK    2  A    between atoms: O_2  and  C_3
REMARK    3  A    between atoms: C_6  and  N_7
REMARK    4  A    between atoms: C_11  and  N_12
REMARK    5  A    between atoms: C_13  and  C_15
REMARK    6  A    between atoms: C_15  and  C_16
REMARK    7  A    between atoms: C_15  and  O_17
REMARK    8  A    between atoms: O_17  and  C_18
REMARK                            x       y       z     vdW  Elec       q    Type
REMARK                         _______ _______ _______ _____ _____    ______ ____
ROOT
ATOM      1  N   UNL     1       0.206  11.131  20.320  0.00  0.00    +0.000 N 
ATOM      2  N   UNL     1       0.810  12.013  21.174  0.00  0.00    +0.000 NA
ATOM      3  C   UNL     1      -0.170  12.842  21.520  0.00  0.00    +0.000 A 
ATOM      4  C   UNL     1      -1.362  12.612  20.828  0.00  0.00    +0.000 A 
ATOM      5  C   UNL     1      -1.118  11.507  20.050  0.00  0.00    +0.000 A 
ATOM      6  C   UNL     1      -2.422  13.610  21.024  0.00  0.00    +0.000 C 
ATOM      7  S   UNL     1      -1.556  15.042  21.885  0.00  0.00    +0.000 S 
ATOM      8  O   UNL     1      -2.398  15.406  23.161  0.00  0.00    +0.000 OA
ATOM      9  C   UNL     1      -0.107  13.999  22.429  0.00  0.00    +0.000 C 
ENDROOT
BRANCH   1  13
ATOM     10  C   UNL     1       2.258   7.776  18.760  0.00  0.00    +0.000 A 
ATOM     11  C   UNL     1       1.825   7.776  20.084  0.00  0.00    +0.000 A 
ATOM     12  C   UNL     1       1.160   8.880  20.616  0.00  0.00    +0.000 A 
ATOM     13  C   UNL     1       0.914  10.005  19.818  0.00  0.00    +0.000 A 
ATOM     14  C   UNL     1       1.398  10.026  18.502  0.00  0.00    +0.000 A 
ATOM     15  C   UNL     1       2.062   8.912  17.974  0.00  0.00    +0.000 A 
BRANCH  10  17
ATOM     16  C   UNL     1       4.029   6.824  17.520  0.00  0.00    +0.000 C 
ATOM     17  O   UNL     1       2.903   6.638  18.369  0.00  0.00    +0.000 OA
ENDBRANCH  10  17
ENDBRANCH   1  13
BRANCH   5  18
ATOM     18  N   UNL     1      -1.962  10.951  19.093  0.00  0.00    +0.000 N 
ATOM     19  C   UNL     1      -2.054  11.506  17.765  0.00  0.00    +0.000 C 
ATOM     20  O   UNL     1      -1.317  12.430  17.453  0.00  0.00    +0.000 OA
ATOM     21  H   UNL     1      -2.689  10.322  19.417  0.00  0.00    +0.000 HD
BRANCH  19  22
ATOM     22  C   UNL     1      -3.158  10.944  16.861  0.00  0.00    +0.000 C 
ATOM     23  C   UNL     1      -2.608   9.851  15.951  0.00  0.00    +0.000 C 
BRANCH  22  24
ATOM     24  O   UNL     1      -4.189  10.398  17.688  0.00  0.00    +0.000 OA
BRANCH  24  25
ATOM     25  C   UNL     1      -5.302  11.162  17.929  0.00  0.00    +0.000 A 
ATOM     26  C   UNL     1      -5.517  12.210  17.026  0.00  0.00    +0.000 A 
ATOM     27  C   UNL     1      -6.625  13.055  17.155  0.00  0.00    +0.000 A 
ATOM     28  C   UNL     1      -7.536  12.855  18.188  0.00  0.00    +0.000 A 
ATOM     29  C   UNL     1      -7.341  11.806  19.082  0.00  0.00    +0.000 A 
ATOM     30  C   UNL     1      -6.234  10.960  18.953  0.00  0.00    +0.000 A 
ENDBRANCH  24  25
ENDBRANCH  22  24
ENDBRANCH  19  22
ENDBRANCH   5  18
TORSDOF 6
ENDMDL
MODEL 8
REMARK VINA RESULT:      -7.5      0.984      1.115
REMARK  Name = 
REMARK  8 active torsions:
REMARK  status: ('A' for Active; 'I' for Inactive)
REMARK    1  A    between atoms: C_1  and  O_2
REMARK    2  A    between atoms: O_2  and  C_3
REMARK    3  A    between atoms: C_6  and  N_7
REMARK    4  A    between atoms: C_11  and  N_12
REMARK    5  A    between atoms: C_13  and  C_15
REMARK    6  A    between atoms: C_15  and  C_16
REMARK    7  A    between atoms: C_15  and  O_17
REMARK    8  A    between atoms: O_17  and  C_18
REMARK                            x       y       z     vdW  Elec       q    Type
REMARK                         _______ _______ _______ _____ _____    ______ ____
ROOT
ATOM      1  N   UNL     1       2.480   6.504  19.649  0.00  0.00    +0.000 N 
ATOM      2  N   UNL     1       1.812   5.768  20.589  0.00  0.00    +0.000 NA
ATOM      3  C   UNL     1       2.539   4.661  20.702  0.00  0.00    +0.000 A 
ATOM      4  C   UNL     1       3.588   4.590  19.783  0.00  0.00    +0.000 A 
ATOM      5  C   UNL     1       3.549   5.781  19.099  0.00  0.00    +0.000 A 
ATOM      6  C   UNL     1       4.310   3.311  19.729  0.00  0.00    +0.000 C 
ATOM      7  S   UNL     1       3.230   2.128  20.717  0.00  0.00    +0.000 S 
ATOM      8  O   UNL     1       4.149   1.424  21.780  0.00  0.00    +0.000 OA
ATOM      9  C   UNL     1       2.301   3.500  21.576  0.00  0.00    +0.000 C 
ENDROOT
BRANCH   1  13
ATOM     10  C   UNL     1       1.333  10.462  18.688  0.00  0.00    +0.000 A 
ATOM     11  C   UNL     1       0.987   9.914  19.922  0.00  0.00    +0.000 A 
ATOM     12  C   UNL     1       1.346   8.607  20.247  0.00  0.00    +0.000 A 
ATOM     13  C   UNL     1       2.067   7.828  19.333  0.00  0.00    +0.000 A 
ATOM     14  C   UNL     1       2.367   8.360  18.071  0.00  0.00    +0.000 A 
ATOM     15  C   UNL     1       2.006   9.675  17.754  0.00  0.00    +0.000 A 
BRANCH  10  17
ATOM     16  C   UNL     1       1.938  12.727  18.405  0.00  0.00    +0.000 C 
ATOM     17  O   UNL     1       0.912  11.745  18.495  0.00  0.00    +0.000 OA
ENDBRANCH  10  17
ENDBRANCH   1  13
BRANCH   5  18
ATOM     18  N   UNL     1       4.323   6.145  18.001  0.00  0.00    +0.000 N 
ATOM     19  C   UNL     1       5.763   6.122  18.062  0.00  0.00    +0.000 C 
ATOM     20  O   UNL     1       6.310   5.700  19.070  0.00  0.00    +0.000 OA
ATOM     21  H   UNL     1       3.867   6.663  17.258  0.00  0.00    +0.000 HD
BRANCH  19  22
ATOM     22  C   UNL     1       6.511   6.732  16.869  0.00  0.00    +0.000 C 
ATOM     23  C   UNL     1       7.337   7.936  17.308  0.00  0.00    +0.000 C 
BRANCH  22  24
ATOM     24  O   UNL     1       7.378   5.736  16.319  0.00  0.00    +0.000 OA
BRANCH  24  25
ATOM     25  C   UNL     1       6.996   5.110  15.160  0.00  0.00    +0.000 A 
ATOM     26  C   UNL     1       5.856   4.305  15.261  0.00  0.00    +0.000 A 
ATOM     27  C   UNL     1       5.356   3.622  14.146  0.00  0.00    +0.000 A 
ATOM     28  C   UNL     1       5.991   3.745  12.913  0.00  0.00    +0.000 A 
ATOM     29  C   UNL     1       7.116   4.556  12.798  0.00  0.00    +0.000 A 
ATOM     30  C   UNL     1       7.616   5.240  13.912  0.00  0.00    +0.000 A 
ENDBRANCH  24  25
ENDBRANCH  22  24
ENDBRANCH  19  22
ENDBRANCH   5  18
TORSDOF 6
ENDMDL
MODEL 9
REMARK VINA RESULT:      -7.3      6.956     11.144
REMARK  Name = 
REMARK  8 active torsions:
REMARK  status: ('A' for Active; 'I' for Inactive)
REMARK    1  A    between atoms: C_1  and  O_2
REMARK    2  A    between atoms: O_2  and  C_3
REMARK    3  A    between atoms: C_6  and  N_7
REMARK    4  A    between atoms: C_11  and  N_12
REMARK    5  A    between atoms: C_13  and  C_15
REMARK    6  A    between atoms: C_15  and  C_16
REMARK    7  A    between atoms: C_15  and  O_17
REMARK    8  A    between atoms: O_17  and  C_18
REMARK                            x       y       z     vdW  Elec       q    Type
REMARK                         _______ _______ _______ _____ _____    ______ ____
ROOT
ATOM      1  N   UNL     1      -1.422  12.793  22.670  0.00  0.00    +0.000 N 
ATOM      2  N   UNL     1      -0.851  13.545  23.659  0.00  0.00    +0.000 NA
ATOM      3  C   UNL     1      -1.688  14.568  23.803  0.00  0.00    +0.000 A 
ATOM      4  C   UNL     1      -2.719  14.578  22.861  0.00  0.00    +0.000 A 
ATOM      5  C   UNL     1      -2.546  13.431  22.125  0.00  0.00    +0.000 A 
ATOM      6  C   UNL     1      -3.565  15.780  22.847  0.00  0.00    +0.000 C 
ATOM      7  S   UNL     1      -2.631  17.016  23.916  0.00  0.00    +0.000 S 
ATOM      8  O   UNL     1      -3.639  17.573  24.985  0.00  0.00    +0.000 OA
ATOM      9  C   UNL     1      -1.587  15.703  24.736  0.00  0.00    +0.000 C 
ENDROOT
BRANCH   1  13
ATOM     10  C   UNL     1       0.262   9.046  21.654  0.00  0.00    +0.000 A 
ATOM     11  C   UNL     1       0.293  10.097  20.739  0.00  0.00    +0.000 A 
ATOM     12  C   UNL     1      -0.270  11.333  21.055  0.00  0.00    +0.000 A 
ATOM     13  C   UNL     1      -0.871  11.533  22.304  0.00  0.00    +0.000 A 
ATOM     14  C   UNL     1      -0.951  10.460  23.202  0.00  0.00    +0.000 A 
ATOM     15  C   UNL     1      -0.380   9.223  22.880  0.00  0.00    +0.000 A 
BRANCH  10  17
ATOM     16  C   UNL     1       1.802   8.033  20.178  0.00  0.00    +0.000 C 
ATOM     17  O   UNL     1       0.840   7.890  21.216  0.00  0.00    +0.000 OA
ENDBRANCH  10  17
ENDBRANCH   1  13
BRANCH   5  18
ATOM     18  N   UNL     1      -3.255  13.046  20.992  0.00  0.00    +0.000 N 
ATOM     19  C   UNL     1      -4.558  12.436  21.097  0.00  0.00    +0.000 C 
ATOM     20  O   UNL     1      -5.079  12.330  22.198  0.00  0.00    +0.000 OA
ATOM     21  H   UNL     1      -2.741  12.966  20.121  0.00  0.00    +0.000 HD
BRANCH  19  22
ATOM     22  C   UNL     1      -5.158  11.869  19.804  0.00  0.00    +0.000 C 
ATOM     23  C   UNL     1      -6.646  12.188  19.713  0.00  0.00    +0.000 C 
BRANCH  22  24
ATOM     24  O   UNL     1      -4.477  12.458  18.692  0.00  0.00    +0.000 OA
BRANCH  24  25
ATOM     25  C   UNL     1      -3.947  11.627  17.740  0.00  0.00    +0.000 A 
ATOM     26  C   UNL     1      -2.794  10.933  18.124  0.00  0.00    +0.000 A 
ATOM     27  C   UNL     1      -2.162  10.044  17.247  0.00  0.00    +0.000 A 
ATOM     28  C   UNL     1      -2.686   9.832  15.975  0.00  0.00    +0.000 A 
ATOM     29  C   UNL     1      -3.841  10.505  15.588  0.00  0.00    +0.000 A 
ATOM     30  C   UNL     1      -4.474  11.394  16.464  0.00  0.00    +0.000 A 
ENDBRANCH  24  25
ENDBRANCH  22  24
ENDBRANCH  19  22
ENDBRANCH   5  18
TORSDOF 6
ENDMDL
