MODEL 1
REMARK VINA RESULT:      -7.6      0.000      0.000
REMARK  Name = 
REMARK  5 active torsions:
REMARK  status: ('A' for Active; 'I' for Inactive)
REMARK    1  A    between atoms: C_2  and  C_22
REMARK    2  A    between atoms: N_3  and  C_4
REMARK    3  A    between atoms: C_9  and  S_10
REMARK    4  A    between atoms: S_10  and  N_13
REMARK    5  A    between atoms: N_13  and  C_14
REMARK                            x       y       z     vdW  Elec       q    Type
REMARK                         _______ _______ _______ _____ _____    ______ ____
ROOT
ATOM      1  C   UNL     1       2.888   7.488  18.995  0.00  0.00    +0.000 A 
ATOM      2  C   UNL     1       2.844   7.996  17.695  0.00  0.00    +0.000 A 
ATOM      3  C   UNL     1       3.585   7.407  16.670  0.00  0.00    +0.000 A 
ATOM      4  C   UNL     1       4.391   6.292  16.917  0.00  0.00    +0.000 A 
ATOM      5 CL   UNL     1       5.171   5.622  15.535  0.00  0.00    +0.000 Cl
ATOM      6  C   UNL     1       4.475   5.797  18.219  0.00  0.00    +0.000 A 
ATOM      7  C   UNL     1       3.751   6.423  19.261  0.00  0.00    +0.000 A 
ENDROOT
BRANCH   1  10
ATOM      8  O   UNL     1       1.316   9.901  18.985  0.00  0.00    +0.000 OA
ATOM      9  C   UNL     1       1.370   9.194  19.985  0.00  0.00    +0.000 C 
ATOM     10  N   UNL     1       2.087   8.002  20.041  0.00  0.00    +0.000 N 
ATOM     11  H   UNL     1       1.912   7.406  20.843  0.00  0.00    +0.000 HD
BRANCH   9  12
ATOM     12  C   UNL     1       0.614   9.562  21.178  0.00  0.00    +0.000 A 
ATOM     13  C   UNL     1       0.735   8.944  22.413  0.00  0.00    +0.000 A 
ATOM     14  C   UNL     1      -0.163   9.466  23.382  0.00  0.00    +0.000 A 
ATOM     15  C   UNL     1      -0.940  10.475  22.862  0.00  0.00    +0.000 A 
ATOM     16  S   UNL     1      -0.562  10.800  21.221  0.00  0.00    +0.000 S 
ENDBRANCH   9  12
ENDBRANCH   1  10
BRANCH   6  17
ATOM     17  S   UNL     1       5.510   4.427  18.679  0.00  0.00    +0.000 S 
ATOM     18  O   UNL     1       6.546   4.240  17.688  0.00  0.00    +0.000 OA
ATOM     19  O   UNL     1       5.863   4.604  20.071  0.00  0.00    +0.000 OA
BRANCH  17  20
ATOM     20  N   UNL     1       4.469   3.093  18.525  0.00  0.00    +0.000 N 
ATOM     21  H   UNL     1       5.041   2.245  18.502  0.00  0.00    +0.000 HD
BRANCH  20  22
ATOM     22  C   UNL     1       3.336   3.033  19.404  0.00  0.00    +0.000 A 
ATOM     23  C   UNL     1       3.539   2.606  20.719  0.00  0.00    +0.000 A 
ATOM     24  C   UNL     1       2.462   2.527  21.607  0.00  0.00    +0.000 A 
ATOM     25  C   UNL     1       1.178   2.872  21.185  0.00  0.00    +0.000 A 
ATOM     26  C   UNL     1       0.965   3.287  19.869  0.00  0.00    +0.000 A 
ATOM     27  C   UNL     1       2.039   3.360  18.977  0.00  0.00    +0.000 A 
ATOM     28 CL   UNL     1       1.730   3.897  17.364  0.00  0.00    +0.000 Cl
ENDBRANCH  20  22
ENDBRANCH  17  20
ENDBRANCH   6  17
TORSDOF 5
ENDMDL
MODEL 2
REMARK VINA RESULT:      -7.5      2.461      4.187
REMARK  Name = 
REMARK  5 active torsions:
REMARK  status: ('A' for Active; 'I' for Inactive)
REMARK    1  A    between atoms: C_2  and  C_22
REMARK    2  A    between atoms: N_3  and  C_4
REMARK    3  A    between atoms: C_9  and  S_10
REMARK    4  A    between atoms: S_10  and  N_13
REMARK    5  A    between atoms: N_13  and  C_14
REMARK                            x       y       z     vdW  Elec       q    Type
REMARK                         _______ _______ _______ _____ _____    ______ ____
ROOT
ATOM      1  C   UNL     1       2.451   6.713  19.414  0.00  0.00    +0.000 A 
ATOM      2  C   UNL     1       1.792   5.577  19.887  0.00  0.00    +0.000 A 
ATOM      3  C   UNL     1       2.482   4.383  20.096  0.00  0.00    +0.000 A 
ATOM      4  C   UNL     1       3.852   4.291  19.838  0.00  0.00    +0.000 A 
ATOM      5 CL   UNL     1       4.581   2.781  20.232  0.00  0.00    +0.000 Cl
ATOM      6  C   UNL     1       4.516   5.408  19.327  0.00  0.00    +0.000 A 
ATOM      7  C   UNL     1       3.803   6.604  19.081  0.00  0.00    +0.000 A 
ENDROOT
BRANCH   1  10
ATOM      8  O   UNL     1       1.362   8.380  21.494  0.00  0.00    +0.000 OA
ATOM      9  C   UNL     1       1.274   8.711  20.317  0.00  0.00    +0.000 C 
ATOM     10  N   UNL     1       1.807   7.963  19.270  0.00  0.00    +0.000 N 
ATOM     11  H   UNL     1       1.845   8.418  18.364  0.00  0.00    +0.000 HD
BRANCH   9  12
ATOM     12  C   UNL     1       0.632   9.973  19.962  0.00  0.00    +0.000 A 
ATOM     13  C   UNL     1      -0.160  10.170  18.843  0.00  0.00    +0.000 A 
ATOM     14  C   UNL     1      -0.609  11.511  18.712  0.00  0.00    +0.000 A 
ATOM     15  C   UNL     1      -0.152  12.301  19.742  0.00  0.00    +0.000 A 
ATOM     16  S   UNL     1       0.790  11.414  20.867  0.00  0.00    +0.000 S 
ENDBRANCH   9  12
ENDBRANCH   1  10
BRANCH   6  17
ATOM     17  S   UNL     1       6.241   5.405  18.896  0.00  0.00    +0.000 S 
ATOM     18  O   UNL     1       6.535   6.534  18.041  0.00  0.00    +0.000 OA
ATOM     19  O   UNL     1       6.989   5.210  20.119  0.00  0.00    +0.000 OA
BRANCH  17  20
ATOM     20  N   UNL     1       6.389   4.026  17.916  0.00  0.00    +0.000 N 
ATOM     21  H   UNL     1       5.800   3.289  18.313  0.00  0.00    +0.000 HD
BRANCH  20  22
ATOM     22  C   UNL     1       6.255   4.204  16.498  0.00  0.00    +0.000 A 
ATOM     23  C   UNL     1       7.382   4.593  15.769  0.00  0.00    +0.000 A 
ATOM     24  C   UNL     1       7.295   4.783  14.387  0.00  0.00    +0.000 A 
ATOM     25  C   UNL     1       6.082   4.587  13.727  0.00  0.00    +0.000 A 
ATOM     26  C   UNL     1       4.948   4.211  14.450  0.00  0.00    +0.000 A 
ATOM     27  C   UNL     1       5.031   4.027  15.833  0.00  0.00    +0.000 A 
ATOM     28 CL   UNL     1       3.606   3.544  16.683  0.00  0.00    +0.000 Cl
ENDBRANCH  20  22
ENDBRANCH  17  20
ENDBRANCH   6  17
TORSDOF 5
ENDMDL
MODEL 3
REMARK VINA RESULT:      -7.5      2.246      4.186
REMARK  Name = 
REMARK  5 active torsions:
REMARK  status: ('A' for Active; 'I' for Inactive)
REMARK    1  A    between atoms: C_2  and  C_22
REMARK    2  A    between atoms: N_3  and  C_4
REMARK    3  A    between atoms: C_9  and  S_10
REMARK    4  A    between atoms: S_10  and  N_13
REMARK    5  A    between atoms: N_13  and  C_14
REMARK                            x       y       z     vdW  Elec       q    Type
REMARK                         _______ _______ _______ _____ _____    ______ ____
ROOT
ATOM      1  C   UNL     1       1.857   5.283  20.771  0.00  0.00    +0.000 A 
ATOM      2  C   UNL     1       2.052   4.191  21.618  0.00  0.00    +0.000 A 
ATOM      3  C   UNL     1       2.696   3.039  21.164  0.00  0.00    +0.000 A 
ATOM      4  C   UNL     1       3.163   2.948  19.850  0.00  0.00    +0.000 A 
ATOM      5 CL   UNL     1       4.016   1.502  19.466  0.00  0.00    +0.000 Cl
ATOM      6  C   UNL     1       2.939   4.017  18.981  0.00  0.00    +0.000 A 
ATOM      7  C   UNL     1       2.252   5.167  19.437  0.00  0.00    +0.000 A 
ENDROOT
BRANCH   1  10
ATOM      8  O   UNL     1       2.193   7.905  19.628  0.00  0.00    +0.000 OA
ATOM      9  C   UNL     1       1.511   7.744  20.635  0.00  0.00    +0.000 C 
ATOM     10  N   UNL     1       1.287   6.499  21.215  0.00  0.00    +0.000 N 
ATOM     11  H   UNL     1       0.562   6.455  21.923  0.00  0.00    +0.000 HD
BRANCH   9  12
ATOM     12  C   UNL     1       0.843   8.887  21.251  0.00  0.00    +0.000 A 
ATOM     13  C   UNL     1       0.305   8.893  22.527  0.00  0.00    +0.000 A 
ATOM     14  C   UNL     1      -0.337  10.118  22.850  0.00  0.00    +0.000 A 
ATOM     15  C   UNL     1      -0.265  11.018  21.811  0.00  0.00    +0.000 A 
ATOM     16  S   UNL     1       0.598  10.386  20.470  0.00  0.00    +0.000 S 
ENDBRANCH   9  12
ENDBRANCH   1  10
BRANCH   6  17
ATOM     17  S   UNL     1       3.424   4.004  17.270  0.00  0.00    +0.000 S 
ATOM     18  O   UNL     1       2.761   2.920  16.581  0.00  0.00    +0.000 OA
ATOM     19  O   UNL     1       3.299   5.360  16.779  0.00  0.00    +0.000 OA
BRANCH  17  20
ATOM     20  N   UNL     1       5.066   3.577  17.342  0.00  0.00    +0.000 N 
ATOM     21  H   UNL     1       5.293   3.041  16.500  0.00  0.00    +0.000 HD
BRANCH  20  22
ATOM     22  C   UNL     1       6.006   4.612  17.668  0.00  0.00    +0.000 A 
ATOM     23  C   UNL     1       6.371   4.778  19.007  0.00  0.00    +0.000 A 
ATOM     24  C   UNL     1       7.279   5.778  19.369  0.00  0.00    +0.000 A 
ATOM     25  C   UNL     1       7.824   6.616  18.396  0.00  0.00    +0.000 A 
ATOM     26  C   UNL     1       7.454   6.465  17.059  0.00  0.00    +0.000 A 
ATOM     27  C   UNL     1       6.541   5.471  16.695  0.00  0.00    +0.000 A 
ATOM     28 CL   UNL     1       6.127   5.309  15.025  0.00  0.00    +0.000 Cl
ENDBRANCH  20  22
ENDBRANCH  17  20
ENDBRANCH   6  17
TORSDOF 5
ENDMDL
MODEL 4
REMARK VINA RESULT:      -7.4      2.673      4.900
REMARK  Name = 
REMARK  5 active torsions:
REMARK  status: ('A' for Active; 'I' for Inactive)
REMARK    1  A    between atoms: C_2  and  C_22
REMARK    2  A    between atoms: N_3  and  C_4
REMARK    3  A    between atoms: C_9  and  S_10
REMARK    4  A    between atoms: S_10  and  N_13
REMARK    5  A    between atoms: N_13  and  C_14
REMARK                            x       y       z     vdW  Elec       q    Type
REMARK                         _______ _______ _______ _____ _____    ______ ____
ROOT
ATOM      1  C   UNL     1       2.091   6.861  19.949  0.00  0.00    +0.000 A 
ATOM      2  C   UNL     1       1.370   6.076  20.851  0.00  0.00    +0.000 A 
ATOM      3  C   UNL     1       1.621   4.709  20.971  0.00  0.00    +0.000 A 
ATOM      4  C   UNL     1       2.601   4.088  20.193  0.00  0.00    +0.000 A 
ATOM      5 CL   UNL     1       2.857   2.417  20.520  0.00  0.00    +0.000 Cl
ATOM      6  C   UNL     1       3.302   4.852  19.259  0.00  0.00    +0.000 A 
ATOM      7  C   UNL     1       3.016   6.230  19.115  0.00  0.00    +0.000 A 
ENDROOT
BRANCH   1  10
ATOM      8  O   UNL     1       1.487   8.413  17.600  0.00  0.00    +0.000 OA
ATOM      9  C   UNL     1       1.663   8.960  18.683  0.00  0.00    +0.000 C 
ATOM     10  N   UNL     1       1.927   8.262  19.858  0.00  0.00    +0.000 N 
ATOM     11  H   UNL     1       1.866   8.792  20.721  0.00  0.00    +0.000 HD
BRANCH   9  12
ATOM     12  C   UNL     1       1.544  10.411  18.792  0.00  0.00    +0.000 A 
ATOM     13  C   UNL     1       2.258  11.322  18.031  0.00  0.00    +0.000 A 
ATOM     14  C   UNL     1       1.988  12.671  18.387  0.00  0.00    +0.000 A 
ATOM     15  C   UNL     1       1.068  12.752  19.406  0.00  0.00    +0.000 A 
ATOM     16  S   UNL     1       0.521  11.205  19.906  0.00  0.00    +0.000 S 
ENDBRANCH   9  12
ENDBRANCH   1  10
BRANCH   6  17
ATOM     17  S   UNL     1       4.528   4.174  18.164  0.00  0.00    +0.000 S 
ATOM     18  O   UNL     1       5.819   4.169  18.814  0.00  0.00    +0.000 OA
ATOM     19  O   UNL     1       3.985   2.947  17.621  0.00  0.00    +0.000 OA
BRANCH  17  20
ATOM     20  N   UNL     1       4.629   5.341  16.933  0.00  0.00    +0.000 N 
ATOM     21  H   UNL     1       4.767   6.255  17.373  0.00  0.00    +0.000 HD
BRANCH  20  22
ATOM     22  C   UNL     1       5.504   5.065  15.830  0.00  0.00    +0.000 A 
ATOM     23  C   UNL     1       5.028   4.258  14.792  0.00  0.00    +0.000 A 
ATOM     24  C   UNL     1       5.850   3.960  13.701  0.00  0.00    +0.000 A 
ATOM     25  C   UNL     1       7.148   4.464  13.642  0.00  0.00    +0.000 A 
ATOM     26  C   UNL     1       7.635   5.260  14.680  0.00  0.00    +0.000 A 
ATOM     27  C   UNL     1       6.819   5.554  15.776  0.00  0.00    +0.000 A 
ATOM     28 CL   UNL     1       7.458   6.558  17.028  0.00  0.00    +0.000 Cl
ENDBRANCH  20  22
ENDBRANCH  17  20
ENDBRANCH   6  17
TORSDOF 5
ENDMDL
MODEL 5
REMARK VINA RESULT:      -7.4      2.187      3.999
REMARK  Name = 
REMARK  5 active torsions:
REMARK  status: ('A' for Active; 'I' for Inactive)
REMARK    1  A    between atoms: C_2  and  C_22
REMARK    2  A    between atoms: N_3  and  C_4
REMARK    3  A    between atoms: C_9  and  S_10
REMARK    4  A    between atoms: S_10  and  N_13
REMARK    5  A    between atoms: N_13  and  C_14
REMARK                            x       y       z     vdW  Elec       q    Type
REMARK                         _______ _______ _______ _____ _____    ______ ____
ROOT
ATOM      1  C   UNL     1       2.142   5.991  20.534  0.00  0.00    +0.000 A 
ATOM      2  C   UNL     1       1.592   4.714  20.654  0.00  0.00    +0.000 A 
ATOM      3  C   UNL     1       2.328   3.580  20.308  0.00  0.00    +0.000 A 
ATOM      4  C   UNL     1       3.638   3.693  19.833  0.00  0.00    +0.000 A 
ATOM      5 CL   UNL     1       4.448   2.202  19.537  0.00  0.00    +0.000 Cl
ATOM      6  C   UNL     1       4.187   4.966  19.670  0.00  0.00    +0.000 A 
ATOM      7  C   UNL     1       3.421   6.112  19.986  0.00  0.00    +0.000 A 
ENDROOT
BRANCH   1  10
ATOM      8  O   UNL     1       1.797   8.448  19.074  0.00  0.00    +0.000 OA
ATOM      9  C   UNL     1       1.352   8.329  20.210  0.00  0.00    +0.000 C 
ATOM     10  N   UNL     1       1.461   7.156  20.953  0.00  0.00    +0.000 N 
ATOM     11  H   UNL     1       0.899   7.102  21.796  0.00  0.00    +0.000 HD
BRANCH   9  12
ATOM     12  C   UNL     1       0.621   9.432  20.825  0.00  0.00    +0.000 A 
ATOM     13  C   UNL     1       0.092   9.413  22.106  0.00  0.00    +0.000 A 
ATOM     14  C   UNL     1      -0.621  10.599  22.427  0.00  0.00    +0.000 A 
ATOM     15  C   UNL     1      -0.611  11.494  21.382  0.00  0.00    +0.000 A 
ATOM     16  S   UNL     1       0.278  10.909  20.038  0.00  0.00    +0.000 S 
ENDBRANCH   9  12
ENDBRANCH   1  10
BRANCH   6  17
ATOM     17  S   UNL     1       5.816   5.250  19.016  0.00  0.00    +0.000 S 
ATOM     18  O   UNL     1       5.801   6.406  18.148  0.00  0.00    +0.000 OA
ATOM     19  O   UNL     1       6.741   5.191  20.127  0.00  0.00    +0.000 OA
BRANCH  17  20
ATOM     20  N   UNL     1       6.061   3.909  18.003  0.00  0.00    +0.000 N 
ATOM     21  H   UNL     1       5.423   3.166  18.300  0.00  0.00    +0.000 HD
BRANCH  20  22
ATOM     22  C   UNL     1       6.093   4.145  16.588  0.00  0.00    +0.000 A 
ATOM     23  C   UNL     1       7.312   4.498  16.003  0.00  0.00    +0.000 A 
ATOM     24  C   UNL     1       7.387   4.743  14.628  0.00  0.00    +0.000 A 
ATOM     25  C   UNL     1       6.246   4.637  13.833  0.00  0.00    +0.000 A 
ATOM     26  C   UNL     1       5.021   4.297  14.413  0.00  0.00    +0.000 A 
ATOM     27  C   UNL     1       4.942   4.059  15.788  0.00  0.00    +0.000 A 
ATOM     28 CL   UNL     1       3.410   3.623  16.458  0.00  0.00    +0.000 Cl
ENDBRANCH  20  22
ENDBRANCH  17  20
ENDBRANCH   6  17
TORSDOF 5
ENDMDL
MODEL 6
REMARK VINA RESULT:      -7.3      3.868      8.208
REMARK  Name = 
REMARK  5 active torsions:
REMARK  status: ('A' for Active; 'I' for Inactive)
REMARK    1  A    between atoms: C_2  and  C_22
REMARK    2  A    between atoms: N_3  and  C_4
REMARK    3  A    between atoms: C_9  and  S_10
REMARK    4  A    between atoms: S_10  and  N_13
REMARK    5  A    between atoms: N_13  and  C_14
REMARK                            x       y       z     vdW  Elec       q    Type
REMARK                         _______ _______ _______ _____ _____    ______ ____
ROOT
ATOM      1  C   UNL     1       2.212   7.413  19.253  0.00  0.00    +0.000 A 
ATOM      2  C   UNL     1       1.811   6.684  20.374  0.00  0.00    +0.000 A 
ATOM      3  C   UNL     1       1.027   7.272  21.368  0.00  0.00    +0.000 A 
ATOM      4  C   UNL     1       0.622   8.605  21.267  0.00  0.00    +0.000 A 
ATOM      5 CL   UNL     1      -0.417   9.160  22.525  0.00  0.00    +0.000 Cl
ATOM      6  C   UNL     1       1.048   9.357  20.171  0.00  0.00    +0.000 A 
ATOM      7  C   UNL     1       1.874   8.766  19.187  0.00  0.00    +0.000 A 
ENDROOT
BRANCH   1  10
ATOM      8  O   UNL     1       4.472   5.636  19.415  0.00  0.00    +0.000 OA
ATOM      9  C   UNL     1       4.038   5.999  18.326  0.00  0.00    +0.000 C 
ATOM     10  N   UNL     1       2.932   6.832  18.184  0.00  0.00    +0.000 N 
ATOM     11  H   UNL     1       2.546   6.914  17.249  0.00  0.00    +0.000 HD
BRANCH   9  12
ATOM     12  C   UNL     1       4.657   5.511  17.098  0.00  0.00    +0.000 A 
ATOM     13  C   UNL     1       5.131   6.319  16.077  0.00  0.00    +0.000 A 
ATOM     14  C   UNL     1       5.631   5.578  14.973  0.00  0.00    +0.000 A 
ATOM     15  C   UNL     1       5.530   4.222  15.185  0.00  0.00    +0.000 A 
ATOM     16  S   UNL     1       4.860   3.857  16.720  0.00  0.00    +0.000 S 
ENDBRANCH   9  12
ENDBRANCH   1  10
BRANCH   6  17
ATOM     17  S   UNL     1       0.657  11.078  19.955  0.00  0.00    +0.000 S 
ATOM     18  O   UNL     1       1.171  11.842  21.070  0.00  0.00    +0.000 OA
ATOM     19  O   UNL     1       1.023  11.435  18.602  0.00  0.00    +0.000 OA
BRANCH  17  20
ATOM     20  N   UNL     1      -1.035  11.108  20.110  0.00  0.00    +0.000 N 
ATOM     21  H   UNL     1      -1.287  11.913  20.688  0.00  0.00    +0.000 HD
BRANCH  20  22
ATOM     22  C   UNL     1      -1.812  10.959  18.912  0.00  0.00    +0.000 A 
ATOM     23  C   UNL     1      -1.341  10.096  17.919  0.00  0.00    +0.000 A 
ATOM     24  C   UNL     1      -2.064   9.926  16.735  0.00  0.00    +0.000 A 
ATOM     25  C   UNL     1      -3.258  10.619  16.536  0.00  0.00    +0.000 A 
ATOM     26  C   UNL     1      -3.728  11.493  17.517  0.00  0.00    +0.000 A 
ATOM     27  C   UNL     1      -3.004  11.671  18.700  0.00  0.00    +0.000 A 
ATOM     28 CL   UNL     1      -3.634  12.749  19.894  0.00  0.00    +0.000 Cl
ENDBRANCH  20  22
ENDBRANCH  17  20
ENDBRANCH   6  17
TORSDOF 5
ENDMDL
MODEL 7
REMARK VINA RESULT:      -7.2      2.662      4.755
REMARK  Name = 
REMARK  5 active torsions:
REMARK  status: ('A' for Active; 'I' for Inactive)
REMARK    1  A    between atoms: C_2  and  C_22
REMARK    2  A    between atoms: N_3  and  C_4
REMARK    3  A    between atoms: C_9  and  S_10
REMARK    4  A    between atoms: S_10  and  N_13
REMARK    5  A    between atoms: N_13  and  C_14
REMARK                            x       y       z     vdW  Elec       q    Type
REMARK                         _______ _______ _______ _____ _____    ______ ____
ROOT
ATOM      1  C   UNL     1       2.100   6.755  19.969  0.00  0.00    +0.000 A 
ATOM      2  C   UNL     1       1.479   5.980  20.950  0.00  0.00    +0.000 A 
ATOM      3  C   UNL     1       1.815   4.637  21.122  0.00  0.00    +0.000 A 
ATOM      4  C   UNL     1       2.785   4.031  20.318  0.00  0.00    +0.000 A 
ATOM      5 CL   UNL     1       3.156   2.396  20.711  0.00  0.00    +0.000 Cl
ATOM      6  C   UNL     1       3.386   4.783  19.307  0.00  0.00    +0.000 A 
ATOM      7  C   UNL     1       3.012   6.133  19.113  0.00  0.00    +0.000 A 
ENDROOT
BRANCH   1  10
ATOM      8  O   UNL     1       0.308   8.396  21.513  0.00  0.00    +0.000 OA
ATOM      9  C   UNL     1       0.947   8.873  20.582  0.00  0.00    +0.000 C 
ATOM     10  N   UNL     1       1.850   8.138  19.819  0.00  0.00    +0.000 N 
ATOM     11  H   UNL     1       2.459   8.668  19.205  0.00  0.00    +0.000 HD
BRANCH   9  12
ATOM     12  C   UNL     1       0.818  10.291  20.263  0.00  0.00    +0.000 A 
ATOM     13  C   UNL     1       0.419  11.270  21.159  0.00  0.00    +0.000 A 
ATOM     14  C   UNL     1       0.325  12.557  20.565  0.00  0.00    +0.000 A 
ATOM     15  C   UNL     1       0.662  12.527  19.232  0.00  0.00    +0.000 A 
ATOM     16  S   UNL     1       1.113  10.954  18.716  0.00  0.00    +0.000 S 
ENDBRANCH   9  12
ENDBRANCH   1  10
BRANCH   6  17
ATOM     17  S   UNL     1       4.585   4.117  18.175  0.00  0.00    +0.000 S 
ATOM     18  O   UNL     1       5.894   4.123  18.788  0.00  0.00    +0.000 OA
ATOM     19  O   UNL     1       4.038   2.886  17.647  0.00  0.00    +0.000 OA
BRANCH  17  20
ATOM     20  N   UNL     1       4.639   5.286  16.944  0.00  0.00    +0.000 N 
ATOM     21  H   UNL     1       4.765   6.203  17.382  0.00  0.00    +0.000 HD
BRANCH  20  22
ATOM     22  C   UNL     1       5.500   5.029  15.825  0.00  0.00    +0.000 A 
ATOM     23  C   UNL     1       5.014   4.234  14.784  0.00  0.00    +0.000 A 
ATOM     24  C   UNL     1       5.822   3.955  13.677  0.00  0.00    +0.000 A 
ATOM     25  C   UNL     1       7.117   4.466  13.607  0.00  0.00    +0.000 A 
ATOM     26  C   UNL     1       7.615   5.251  14.649  0.00  0.00    +0.000 A 
ATOM     27  C   UNL     1       6.812   5.526  15.760  0.00  0.00    +0.000 A 
ATOM     28 CL   UNL     1       7.463   6.517  17.017  0.00  0.00    +0.000 Cl
ENDBRANCH  20  22
ENDBRANCH  17  20
ENDBRANCH   6  17
TORSDOF 5
ENDMDL
MODEL 8
REMARK VINA RESULT:      -7.2      5.106      6.538
REMARK  Name = 
REMARK  5 active torsions:
REMARK  status: ('A' for Active; 'I' for Inactive)
REMARK    1  A    between atoms: C_2  and  C_22
REMARK    2  A    between atoms: N_3  and  C_4
REMARK    3  A    between atoms: C_9  and  S_10
REMARK    4  A    between atoms: S_10  and  N_13
REMARK    5  A    between atoms: N_13  and  C_14
REMARK                            x       y       z     vdW  Elec       q    Type
REMARK                         _______ _______ _______ _____ _____    ______ ____
ROOT
ATOM      1  C   UNL     1       8.020   8.096  18.019  0.00  0.00    +0.000 A 
ATOM      2  C   UNL     1       8.429   7.244  19.046  0.00  0.00    +0.000 A 
ATOM      3  C   UNL     1       7.802   6.014  19.249  0.00  0.00    +0.000 A 
ATOM      4  C   UNL     1       6.747   5.602  18.430  0.00  0.00    +0.000 A 
ATOM      5 CL   UNL     1       6.137   4.023  18.748  0.00  0.00    +0.000 Cl
ATOM      6  C   UNL     1       6.301   6.461  17.424  0.00  0.00    +0.000 A 
ATOM      7  C   UNL     1       6.916   7.722  17.248  0.00  0.00    +0.000 A 
ENDROOT
BRANCH   1  10
ATOM      8  O   UNL     1       8.984  10.069  19.881  0.00  0.00    +0.000 OA
ATOM      9  C   UNL     1       9.102  10.239  18.672  0.00  0.00    +0.000 C 
ATOM     10  N   UNL     1       8.684   9.309  17.725  0.00  0.00    +0.000 N 
ATOM     11  H   UNL     1       8.998   9.462  16.772  0.00  0.00    +0.000 HD
BRANCH   9  12
ATOM     12  C   UNL     1       9.757  11.442  18.168  0.00  0.00    +0.000 A 
ATOM     13  C   UNL     1      11.111  11.547  17.889  0.00  0.00    +0.000 A 
ATOM     14  C   UNL     1      11.488  12.849  17.466  0.00  0.00    +0.000 A 
ATOM     15  C   UNL     1      10.409  13.702  17.426  0.00  0.00    +0.000 A 
ATOM     16  S   UNL     1       8.951  12.919  17.874  0.00  0.00    +0.000 S 
ENDBRANCH   9  12
ENDBRANCH   1  10
BRANCH   6  17
ATOM     17  S   UNL     1       4.930   6.086  16.356  0.00  0.00    +0.000 S 
ATOM     18  O   UNL     1       4.902   7.016  15.249  0.00  0.00    +0.000 OA
ATOM     19  O   UNL     1       4.959   4.661  16.105  0.00  0.00    +0.000 OA
BRANCH  17  20
ATOM     20  N   UNL     1       3.582   6.464  17.318  0.00  0.00    +0.000 N 
ATOM     21  H   UNL     1       2.979   7.096  16.786  0.00  0.00    +0.000 HD
BRANCH  20  22
ATOM     22  C   UNL     1       2.899   5.375  17.958  0.00  0.00    +0.000 A 
ATOM     23  C   UNL     1       2.821   4.154  17.283  0.00  0.00    +0.000 A 
ATOM     24  C   UNL     1       2.160   3.069  17.867  0.00  0.00    +0.000 A 
ATOM     25  C   UNL     1       1.574   3.200  19.126  0.00  0.00    +0.000 A 
ATOM     26  C   UNL     1       1.637   4.420  19.801  0.00  0.00    +0.000 A 
ATOM     27  C   UNL     1       2.291   5.509  19.216  0.00  0.00    +0.000 A 
ATOM     28 CL   UNL     1       2.359   6.994  20.097  0.00  0.00    +0.000 Cl
ENDBRANCH  20  22
ENDBRANCH  17  20
ENDBRANCH   6  17
TORSDOF 5
ENDMDL
MODEL 9
REMARK VINA RESULT:      -7.2      2.550      4.386
REMARK  Name = 
REMARK  5 active torsions:
REMARK  status: ('A' for Active; 'I' for Inactive)
REMARK    1  A    between atoms: C_2  and  C_22
REMARK    2  A    between atoms: N_3  and  C_4
REMARK    3  A    between atoms: C_9  and  S_10
REMARK    4  A    between atoms: S_10  and  N_13
REMARK    5  A    between atoms: N_13  and  C_14
REMARK                            x       y       z     vdW  Elec       q    Type
REMARK                         _______ _______ _______ _____ _____    ______ ____
ROOT
ATOM      1  C   UNL     1       2.111   6.782  19.450  0.00  0.00    +0.000 A 
ATOM      2  C   UNL     1       1.823   6.344  20.743  0.00  0.00    +0.000 A 
ATOM      3  C   UNL     1       1.978   5.004  21.098  0.00  0.00    +0.000 A 
ATOM      4  C   UNL     1       2.428   4.063  20.167  0.00  0.00    +0.000 A 
ATOM      5 CL   UNL     1       2.657   2.469  20.778  0.00  0.00    +0.000 Cl
ATOM      6  C   UNL     1       2.683   4.479  18.859  0.00  0.00    +0.000 A 
ATOM      7  C   UNL     1       2.486   5.832  18.497  0.00  0.00    +0.000 A 
ENDROOT
BRANCH   1  10
ATOM      8  O   UNL     1       0.471   8.851  20.599  0.00  0.00    +0.000 OA
ATOM      9  C   UNL     1       1.212   9.093  19.653  0.00  0.00    +0.000 C 
ATOM     10  N   UNL     1       2.050   8.144  19.075  0.00  0.00    +0.000 N 
ATOM     11  H   UNL     1       2.752   8.493  18.431  0.00  0.00    +0.000 HD
BRANCH   9  12
ATOM     12  C   UNL     1       1.283  10.448  19.114  0.00  0.00    +0.000 A 
ATOM     13  C   UNL     1       2.261  10.902  18.244  0.00  0.00    +0.000 A 
ATOM     14  C   UNL     1       2.122  12.279  17.925  0.00  0.00    +0.000 A 
ATOM     15  C   UNL     1       1.034  12.837  18.556  0.00  0.00    +0.000 A 
ATOM     16  S   UNL     1       0.180  11.692  19.504  0.00  0.00    +0.000 S 
ENDBRANCH   9  12
ENDBRANCH   1  10
BRANCH   6  17
ATOM     17  S   UNL     1       3.197   3.374  17.565  0.00  0.00    +0.000 S 
ATOM     18  O   UNL     1       2.495   2.116  17.686  0.00  0.00    +0.000 OA
ATOM     19  O   UNL     1       3.147   4.115  16.323  0.00  0.00    +0.000 OA
BRANCH  17  20
ATOM     20  N   UNL     1       4.816   3.046  17.963  0.00  0.00    +0.000 N 
ATOM     21  H   UNL     1       5.110   2.217  17.440  0.00  0.00    +0.000 HD
BRANCH  20  22
ATOM     22  C   UNL     1       5.741   4.142  17.926  0.00  0.00    +0.000 A 
ATOM     23  C   UNL     1       5.994   4.837  19.112  0.00  0.00    +0.000 A 
ATOM     24  C   UNL     1       6.884   5.915  19.119  0.00  0.00    +0.000 A 
ATOM     25  C   UNL     1       7.525   6.303  17.943  0.00  0.00    +0.000 A 
ATOM     26  C   UNL     1       7.268   5.623  16.751  0.00  0.00    +0.000 A 
ATOM     27  C   UNL     1       6.372   4.549  16.740  0.00  0.00    +0.000 A 
ATOM     28 CL   UNL     1       6.101   3.724  15.246  0.00  0.00    +0.000 Cl
ENDBRANCH  20  22
ENDBRANCH  17  20
ENDBRANCH   6  17
TORSDOF 5
ENDMDL
