MODEL 1
REMARK VINA RESULT:      -8.5      0.000      0.000
REMARK  Name = 
REMARK  6 active torsions:
REMARK  status: ('A' for Active; 'I' for Inactive)
REMARK    1  A    between atoms: C_1  and  O_2
REMARK    2  A    between atoms: O_2  and  C_3
REMARK    3  A    between atoms: C_3  and  C_4
REMARK    4  A    between atoms: C_4  and  O_5
REMARK    5  A    between atoms: O_5  and  C_6
REMARK    6  A    between atoms: C_13  and  C_14
REMARK                            x       y       z     vdW  Elec       q    Type
REMARK                         _______ _______ _______ _____ _____    ______ ____
ROOT
ATOM      1  C   UNL     1       3.663   3.700  17.735  0.00  0.00    +0.000 A 
ATOM      2  C   UNL     1       3.910   2.370  18.097  0.00  0.00    +0.000 A 
ATOM      3  C   UNL     1       3.484   1.892  19.333  0.00  0.00    +0.000 A 
ATOM      4  C   UNL     1       2.818   2.737  20.212  0.00  0.00    +0.000 A 
ATOM      5  C   UNL     1       2.580   4.076  19.866  0.00  0.00    +0.000 A 
ATOM      6  C   UNL     1       1.938   4.946  20.756  0.00  0.00    +0.000 A 
ATOM      7  C   UNL     1       1.739   6.277  20.405  0.00  0.00    +0.000 A 
ATOM      8  C   UNL     1       2.185   6.700  19.164  0.00  0.00    +0.000 A 
ATOM      9  N   UNL     1       2.786   5.867  18.283  0.00  0.00    +0.000 NA
ATOM     10  C   UNL     1       2.998   4.575  18.615  0.00  0.00    +0.000 A 
ENDROOT
BRANCH   8  11
ATOM     11  C   UNL     1       2.047   8.090  18.738  0.00  0.00    +0.000 A 
ATOM     12  N   UNL     1       2.473   8.592  17.587  0.00  0.00    +0.000 NA
ATOM     13  N   UNL     1       2.168   9.931  17.543  0.00  0.00    +0.000 NA
ATOM     14  C   UNL     1       1.540  10.232  18.656  0.00  0.00    +0.000 A 
ATOM     15  C   UNL     1       0.984  11.449  19.144  0.00  0.00    +0.000 A 
ATOM     16  C   UNL     1       0.361  11.466  20.339  0.00  0.00    +0.000 A 
ATOM     17  C   UNL     1       0.233  10.263  21.140  0.00  0.00    +0.000 A 
ATOM     18  C   UNL     1       0.755   9.113  20.681  0.00  0.00    +0.000 A 
ATOM     19  N   UNL     1       1.420   9.098  19.452  0.00  0.00    +0.000 N 
ENDBRANCH   8  11
BRANCH   1  20
ATOM     20  O   UNL     1       4.037   4.245  16.524  0.00  0.00    +0.000 OA
BRANCH  20  21
ATOM     21  C   UNL     1       5.297   3.855  15.974  0.00  0.00    +0.000 C 
BRANCH  21  22
ATOM     22  C   UNL     1       6.424   4.815  16.433  0.00  0.00    +0.000 C 
ATOM     23  C   UNL     1       5.877   6.258  16.535  0.00  0.00    +0.000 C 
ATOM     24  C   UNL     1       6.922   7.206  17.132  0.00  0.00    +0.000 C 
ATOM     25  N   UNL     1       7.343   6.768  18.466  0.00  0.00    +0.000 NA
ATOM     26  C   UNL     1       7.931   5.429  18.398  0.00  0.00    +0.000 C 
ATOM     27  C   UNL     1       6.951   4.410  17.826  0.00  0.00    +0.000 C 
ATOM     28  H   UNL     1       6.523   6.751  19.075  0.00  0.00    +0.000 HD
BRANCH  22  30
ATOM     29  C   UNL     1       7.096   4.896  14.077  0.00  0.00    +0.000 C 
ATOM     30  O   UNL     1       7.471   4.889  15.443  0.00  0.00    +0.000 OA
ENDBRANCH  22  30
ENDBRANCH  21  22
ENDBRANCH  20  21
ENDBRANCH   1  20
TORSDOF 5
ENDMDL
MODEL 2
REMARK VINA RESULT:      -8.2      1.063      1.810
REMARK  Name = 
REMARK  6 active torsions:
REMARK  status: ('A' for Active; 'I' for Inactive)
REMARK    1  A    between atoms: C_1  and  O_2
REMARK    2  A    between atoms: O_2  and  C_3
REMARK    3  A    between atoms: C_3  and  C_4
REMARK    4  A    between atoms: C_4  and  O_5
REMARK    5  A    between atoms: O_5  and  C_6
REMARK    6  A    between atoms: C_13  and  C_14
REMARK                            x       y       z     vdW  Elec       q    Type
REMARK                         _______ _______ _______ _____ _____    ______ ____
ROOT
ATOM      1  C   UNL     1       3.637   4.281  17.663  0.00  0.00    +0.000 A 
ATOM      2  C   UNL     1       3.961   2.968  17.301  0.00  0.00    +0.000 A 
ATOM      3  C   UNL     1       3.414   1.895  18.000  0.00  0.00    +0.000 A 
ATOM      4  C   UNL     1       2.549   2.127  19.061  0.00  0.00    +0.000 A 
ATOM      5  C   UNL     1       2.230   3.439  19.443  0.00  0.00    +0.000 A 
ATOM      6  C   UNL     1       1.384   3.687  20.532  0.00  0.00    +0.000 A 
ATOM      7  C   UNL     1       1.105   4.996  20.911  0.00  0.00    +0.000 A 
ATOM      8  C   UNL     1       1.679   6.025  20.184  0.00  0.00    +0.000 A 
ATOM      9  N   UNL     1       2.478   5.802  19.115  0.00  0.00    +0.000 NA
ATOM     10  C   UNL     1       2.769   4.538  18.742  0.00  0.00    +0.000 A 
ENDROOT
BRANCH   8  11
ATOM     11  C   UNL     1       1.464   7.423  20.543  0.00  0.00    +0.000 A 
ATOM     12  N   UNL     1       1.198   7.876  21.761  0.00  0.00    +0.000 NA
ATOM     13  N   UNL     1       1.059   9.242  21.709  0.00  0.00    +0.000 NA
ATOM     14  C   UNL     1       1.261   9.616  20.466  0.00  0.00    +0.000 A 
ATOM     15  C   UNL     1       1.259  10.892  19.836  0.00  0.00    +0.000 A 
ATOM     16  C   UNL     1       1.528  10.988  18.519  0.00  0.00    +0.000 A 
ATOM     17  C   UNL     1       1.834   9.812  17.725  0.00  0.00    +0.000 A 
ATOM     18  C   UNL     1       1.838   8.605  18.318  0.00  0.00    +0.000 A 
ATOM     19  N   UNL     1       1.538   8.503  19.679  0.00  0.00    +0.000 N 
ENDBRANCH   8  11
BRANCH   1  20
ATOM     20  O   UNL     1       4.123   5.396  17.012  0.00  0.00    +0.000 OA
BRANCH  20  21
ATOM     21  C   UNL     1       5.160   5.210  16.048  0.00  0.00    +0.000 C 
BRANCH  21  22
ATOM     22  C   UNL     1       6.535   5.638  16.622  0.00  0.00    +0.000 C 
ATOM     23  C   UNL     1       6.471   7.106  17.102  0.00  0.00    +0.000 C 
ATOM     24  C   UNL     1       7.765   7.512  17.815  0.00  0.00    +0.000 C 
ATOM     25  N   UNL     1       8.035   6.651  18.971  0.00  0.00    +0.000 NA
ATOM     26  C   UNL     1       8.170   5.258  18.543  0.00  0.00    +0.000 C 
ATOM     27  C   UNL     1       6.915   4.759  17.833  0.00  0.00    +0.000 C 
ATOM     28  H   UNL     1       7.255   6.734  19.624  0.00  0.00    +0.000 HD
BRANCH  22  30
ATOM     29  C   UNL     1       7.269   4.931  14.392  0.00  0.00    +0.000 C 
ATOM     30  O   UNL     1       7.546   5.632  15.593  0.00  0.00    +0.000 OA
ENDBRANCH  22  30
ENDBRANCH  21  22
ENDBRANCH  20  21
ENDBRANCH   1  20
TORSDOF 5
ENDMDL
MODEL 3
REMARK VINA RESULT:      -8.2      1.662      2.662
REMARK  Name = 
REMARK  6 active torsions:
REMARK  status: ('A' for Active; 'I' for Inactive)
REMARK    1  A    between atoms: C_1  and  O_2
REMARK    2  A    between atoms: O_2  and  C_3
REMARK    3  A    between atoms: C_3  and  C_4
REMARK    4  A    between atoms: C_4  and  O_5
REMARK    5  A    between atoms: O_5  and  C_6
REMARK    6  A    between atoms: C_13  and  C_14
REMARK                            x       y       z     vdW  Elec       q    Type
REMARK                         _______ _______ _______ _____ _____    ______ ____
ROOT
ATOM      1  C   UNL     1       4.646   4.459  19.349  0.00  0.00    +0.000 A 
ATOM      2  C   UNL     1       5.029   3.134  19.109  0.00  0.00    +0.000 A 
ATOM      3  C   UNL     1       4.096   2.106  19.217  0.00  0.00    +0.000 A 
ATOM      4  C   UNL     1       2.784   2.395  19.570  0.00  0.00    +0.000 A 
ATOM      5  C   UNL     1       2.394   3.717  19.831  0.00  0.00    +0.000 A 
ATOM      6  C   UNL     1       1.082   4.018  20.219  0.00  0.00    +0.000 A 
ATOM      7  C   UNL     1       0.724   5.332  20.500  0.00  0.00    +0.000 A 
ATOM      8  C   UNL     1       1.693   6.314  20.379  0.00  0.00    +0.000 A 
ATOM      9  N   UNL     1       2.958   6.044  19.982  0.00  0.00    +0.000 NA
ATOM     10  C   UNL     1       3.324   4.771  19.718  0.00  0.00    +0.000 A 
ENDROOT
BRANCH   8  11
ATOM     11  C   UNL     1       1.405   7.711  20.694  0.00  0.00    +0.000 A 
ATOM     12  N   UNL     1       1.078   8.182  21.889  0.00  0.00    +0.000 NA
ATOM     13  N   UNL     1       0.880   9.539  21.796  0.00  0.00    +0.000 NA
ATOM     14  C   UNL     1       1.108   9.889  20.551  0.00  0.00    +0.000 A 
ATOM     15  C   UNL     1       1.070  11.147  19.886  0.00  0.00    +0.000 A 
ATOM     16  C   UNL     1       1.379  11.221  18.576  0.00  0.00    +0.000 A 
ATOM     17  C   UNL     1       1.763  10.040  17.825  0.00  0.00    +0.000 A 
ATOM     18  C   UNL     1       1.801   8.850  18.450  0.00  0.00    +0.000 A 
ATOM     19  N   UNL     1       1.460   8.770  19.803  0.00  0.00    +0.000 N 
ENDBRANCH   8  11
BRANCH   1  20
ATOM     20  O   UNL     1       5.505   5.533  19.247  0.00  0.00    +0.000 OA
BRANCH  20  21
ATOM     21  C   UNL     1       6.782   5.315  18.645  0.00  0.00    +0.000 C 
BRANCH  21  22
ATOM     22  C   UNL     1       6.749   5.661  17.134  0.00  0.00    +0.000 C 
ATOM     23  C   UNL     1       7.117   4.412  16.300  0.00  0.00    +0.000 C 
ATOM     24  C   UNL     1       6.945   4.677  14.801  0.00  0.00    +0.000 C 
ATOM     25  N   UNL     1       5.569   5.068  14.479  0.00  0.00    +0.000 NA
ATOM     26  C   UNL     1       5.209   6.290  15.200  0.00  0.00    +0.000 C 
ATOM     27  C   UNL     1       5.336   6.114  16.710  0.00  0.00    +0.000 C 
ATOM     28  H   UNL     1       4.944   4.310  14.757  0.00  0.00    +0.000 HD
BRANCH  22  30
ATOM     29  C   UNL     1       7.762   7.861  17.513  0.00  0.00    +0.000 C 
ATOM     30  O   UNL     1       7.765   6.633  16.806  0.00  0.00    +0.000 OA
ENDBRANCH  22  30
ENDBRANCH  21  22
ENDBRANCH  20  21
ENDBRANCH   1  20
TORSDOF 5
ENDMDL
MODEL 4
REMARK VINA RESULT:      -8.0      2.338      6.263
REMARK  Name = 
REMARK  6 active torsions:
REMARK  status: ('A' for Active; 'I' for Inactive)
REMARK    1  A    between atoms: C_1  and  O_2
REMARK    2  A    between atoms: O_2  and  C_3
REMARK    3  A    between atoms: C_3  and  C_4
REMARK    4  A    between atoms: C_4  and  O_5
REMARK    5  A    between atoms: O_5  and  C_6
REMARK    6  A    between atoms: C_13  and  C_14
REMARK                            x       y       z     vdW  Elec       q    Type
REMARK                         _______ _______ _______ _____ _____    ______ ____
ROOT
ATOM      1  C   UNL     1       1.462   7.029  20.624  0.00  0.00    +0.000 A 
ATOM      2  C   UNL     1       0.544   7.716  21.427  0.00  0.00    +0.000 A 
ATOM      3  C   UNL     1       0.155   9.010  21.094  0.00  0.00    +0.000 A 
ATOM      4  C   UNL     1       0.683   9.624  19.965  0.00  0.00    +0.000 A 
ATOM      5  C   UNL     1       1.616   8.952  19.163  0.00  0.00    +0.000 A 
ATOM      6  C   UNL     1       2.180   9.572  18.040  0.00  0.00    +0.000 A 
ATOM      7  C   UNL     1       3.126   8.898  17.275  0.00  0.00    +0.000 A 
ATOM      8  C   UNL     1       3.479   7.613  17.654  0.00  0.00    +0.000 A 
ATOM      9  N   UNL     1       2.926   6.991  18.721  0.00  0.00    +0.000 NA
ATOM     10  C   UNL     1       2.016   7.637  19.481  0.00  0.00    +0.000 A 
ENDROOT
BRANCH   8  11
ATOM     11  C   UNL     1       4.491   6.855  16.924  0.00  0.00    +0.000 A 
ATOM     12  N   UNL     1       4.573   6.744  15.605  0.00  0.00    +0.000 NA
ATOM     13  N   UNL     1       5.651   5.953  15.289  0.00  0.00    +0.000 NA
ATOM     14  C   UNL     1       6.232   5.605  16.414  0.00  0.00    +0.000 A 
ATOM     15  C   UNL     1       7.382   4.814  16.695  0.00  0.00    +0.000 A 
ATOM     16  C   UNL     1       7.775   4.635  17.972  0.00  0.00    +0.000 A 
ATOM     17  C   UNL     1       7.053   5.243  19.074  0.00  0.00    +0.000 A 
ATOM     18  C   UNL     1       5.968   5.992  18.812  0.00  0.00    +0.000 A 
ATOM     19  N   UNL     1       5.548   6.160  17.490  0.00  0.00    +0.000 N 
ENDBRANCH   8  11
BRANCH   1  20
ATOM     20  O   UNL     1       1.885   5.741  20.876  0.00  0.00    +0.000 OA
BRANCH  20  21
ATOM     21  C   UNL     1       1.072   4.664  20.405  0.00  0.00    +0.000 C 
BRANCH  21  22
ATOM     22  C   UNL     1       1.948   3.490  19.895  0.00  0.00    +0.000 C 
ATOM     23  C   UNL     1       1.659   3.229  18.399  0.00  0.00    +0.000 C 
ATOM     24  C   UNL     1       2.616   2.179  17.826  0.00  0.00    +0.000 C 
ATOM     25  N   UNL     1       4.015   2.592  17.969  0.00  0.00    +0.000 NA
ATOM     26  C   UNL     1       4.344   2.782  19.383  0.00  0.00    +0.000 C 
ATOM     27  C   UNL     1       3.447   3.828  20.037  0.00  0.00    +0.000 C 
ATOM     28  H   UNL     1       4.146   3.471  17.467  0.00  0.00    +0.000 HD
BRANCH  22  30
ATOM     29  C   UNL     1       1.536   2.257  21.974  0.00  0.00    +0.000 C 
ATOM     30  O   UNL     1       1.592   2.258  20.558  0.00  0.00    +0.000 OA
ENDBRANCH  22  30
ENDBRANCH  21  22
ENDBRANCH  20  21
ENDBRANCH   1  20
TORSDOF 5
ENDMDL
MODEL 5
REMARK VINA RESULT:      -8.0      6.865     10.408
REMARK  Name = 
REMARK  6 active torsions:
REMARK  status: ('A' for Active; 'I' for Inactive)
REMARK    1  A    between atoms: C_1  and  O_2
REMARK    2  A    between atoms: O_2  and  C_3
REMARK    3  A    between atoms: C_3  and  C_4
REMARK    4  A    between atoms: C_4  and  O_5
REMARK    5  A    between atoms: O_5  and  C_6
REMARK    6  A    between atoms: C_13  and  C_14
REMARK                            x       y       z     vdW  Elec       q    Type
REMARK                         _______ _______ _______ _____ _____    ______ ____
ROOT
ATOM      1  C   UNL     1      -2.911  11.784  18.661  0.00  0.00    +0.000 A 
ATOM      2  C   UNL     1      -2.279  11.534  17.436  0.00  0.00    +0.000 A 
ATOM      3  C   UNL     1      -3.038  11.271  16.299  0.00  0.00    +0.000 A 
ATOM      4  C   UNL     1      -4.424  11.251  16.379  0.00  0.00    +0.000 A 
ATOM      5  C   UNL     1      -5.068  11.482  17.604  0.00  0.00    +0.000 A 
ATOM      6  C   UNL     1      -6.464  11.433  17.705  0.00  0.00    +0.000 A 
ATOM      7  C   UNL     1      -7.080  11.636  18.935  0.00  0.00    +0.000 A 
ATOM      8  C   UNL     1      -6.277  11.891  20.035  0.00  0.00    +0.000 A 
ATOM      9  N   UNL     1      -4.929  11.966  19.949  0.00  0.00    +0.000 NA
ATOM     10  C   UNL     1      -4.315  11.758  18.765  0.00  0.00    +0.000 A 
ENDROOT
BRANCH   8  11
ATOM     11  C   UNL     1      -6.846  12.078  21.366  0.00  0.00    +0.000 A 
ATOM     12  N   UNL     1      -7.403  11.130  22.109  0.00  0.00    +0.000 NA
ATOM     13  N   UNL     1      -7.824  11.682  23.295  0.00  0.00    +0.000 NA
ATOM     14  C   UNL     1      -7.504  12.955  23.277  0.00  0.00    +0.000 A 
ATOM     15  C   UNL     1      -7.678  14.001  24.227  0.00  0.00    +0.000 A 
ATOM     16  C   UNL     1      -7.221  15.238  23.950  0.00  0.00    +0.000 A 
ATOM     17  C   UNL     1      -6.541  15.528  22.701  0.00  0.00    +0.000 A 
ATOM     18  C   UNL     1      -6.373  14.542  21.803  0.00  0.00    +0.000 A 
ATOM     19  N   UNL     1      -6.866  13.264  22.081  0.00  0.00    +0.000 N 
ENDBRANCH   8  11
BRANCH   1  20
ATOM     20  O   UNL     1      -2.233  12.068  19.827  0.00  0.00    +0.000 OA
BRANCH  20  21
ATOM     21  C   UNL     1      -0.805  12.062  19.791  0.00  0.00    +0.000 C 
BRANCH  21  22
ATOM     22  C   UNL     1      -0.225  11.200  20.942  0.00  0.00    +0.000 C 
ATOM     23  C   UNL     1      -1.146  11.287  22.180  0.00  0.00    +0.000 C 
ATOM     24  C   UNL     1      -0.684  10.328  23.282  0.00  0.00    +0.000 C 
ATOM     25  N   UNL     1      -0.661   8.940  22.811  0.00  0.00    +0.000 NA
ATOM     26  C   UNL     1       0.257   8.806  21.678  0.00  0.00    +0.000 C 
ATOM     27  C   UNL     1      -0.136   9.718  20.520  0.00  0.00    +0.000 C 
ATOM     28  H   UNL     1      -1.605   8.682  22.518  0.00  0.00    +0.000 HD
BRANCH  22  30
ATOM     29  C   UNL     1       1.610  12.803  20.662  0.00  0.00    +0.000 C 
ATOM     30  O   UNL     1       1.042  11.727  21.389  0.00  0.00    +0.000 OA
ENDBRANCH  22  30
ENDBRANCH  21  22
ENDBRANCH  20  21
ENDBRANCH   1  20
TORSDOF 5
ENDMDL
MODEL 6
REMARK VINA RESULT:      -7.9      7.155      9.555
REMARK  Name = 
REMARK  6 active torsions:
REMARK  status: ('A' for Active; 'I' for Inactive)
REMARK    1  A    between atoms: C_1  and  O_2
REMARK    2  A    between atoms: O_2  and  C_3
REMARK    3  A    between atoms: C_3  and  C_4
REMARK    4  A    between atoms: C_4  and  O_5
REMARK    5  A    between atoms: O_5  and  C_6
REMARK    6  A    between atoms: C_13  and  C_14
REMARK                            x       y       z     vdW  Elec       q    Type
REMARK                         _______ _______ _______ _____ _____    ______ ____
ROOT
ATOM      1  C   UNL     1      -2.315  10.344  17.803  0.00  0.00    +0.000 A 
ATOM      2  C   UNL     1      -1.959   9.900  16.524  0.00  0.00    +0.000 A 
ATOM      3  C   UNL     1      -2.752  10.225  15.426  0.00  0.00    +0.000 A 
ATOM      4  C   UNL     1      -3.900  10.987  15.600  0.00  0.00    +0.000 A 
ATOM      5  C   UNL     1      -4.275  11.422  16.879  0.00  0.00    +0.000 A 
ATOM      6  C   UNL     1      -5.448  12.163  17.073  0.00  0.00    +0.000 A 
ATOM      7  C   UNL     1      -5.816  12.560  18.354  0.00  0.00    +0.000 A 
ATOM      8  C   UNL     1      -4.993  12.207  19.411  0.00  0.00    +0.000 A 
ATOM      9  N   UNL     1      -3.845  11.513  19.238  0.00  0.00    +0.000 NA
ATOM     10  C   UNL     1      -3.480  11.109  18.002  0.00  0.00    +0.000 A 
ENDROOT
BRANCH   8  11
ATOM     11  C   UNL     1      -5.331  12.554  20.788  0.00  0.00    +0.000 A 
ATOM     12  N   UNL     1      -6.226  11.933  21.544  0.00  0.00    +0.000 NA
ATOM     13  N   UNL     1      -6.270  12.540  22.776  0.00  0.00    +0.000 NA
ATOM     14  C   UNL     1      -5.388  13.514  22.770  0.00  0.00    +0.000 A 
ATOM     15  C   UNL     1      -4.995  14.457  23.761  0.00  0.00    +0.000 A 
ATOM     16  C   UNL     1      -4.024  15.350  23.486  0.00  0.00    +0.000 A 
ATOM     17  C   UNL     1      -3.359  15.367  22.196  0.00  0.00    +0.000 A 
ATOM     18  C   UNL     1      -3.728  14.476  21.259  0.00  0.00    +0.000 A 
ATOM     19  N   UNL     1      -4.749  13.563  21.537  0.00  0.00    +0.000 N 
ENDBRANCH   8  11
BRANCH   1  20
ATOM     20  O   UNL     1      -1.576  10.080  18.937  0.00  0.00    +0.000 OA
BRANCH  20  21
ATOM     21  C   UNL     1      -0.427  10.889  19.192  0.00  0.00    +0.000 C 
BRANCH  21  22
ATOM     22  C   UNL     1      -0.096  10.920  20.707  0.00  0.00    +0.000 C 
ATOM     23  C   UNL     1      -1.213  11.663  21.475  0.00  0.00    +0.000 C 
ATOM     24  C   UNL     1      -0.994  11.579  22.989  0.00  0.00    +0.000 C 
ATOM     25  N   UNL     1      -0.954  10.187  23.449  0.00  0.00    +0.000 NA
ATOM     26  C   UNL     1       0.139   9.469  22.791  0.00  0.00    +0.000 C 
ATOM     27  C   UNL     1      -0.004   9.487  21.273  0.00  0.00    +0.000 C 
ATOM     28  H   UNL     1      -1.843   9.743  23.215  0.00  0.00    +0.000 HD
BRANCH  22  30
ATOM     29  C   UNL     1       1.396  12.758  20.071  0.00  0.00    +0.000 C 
ATOM     30  O   UNL     1       1.097  11.693  20.956  0.00  0.00    +0.000 OA
ENDBRANCH  22  30
ENDBRANCH  21  22
ENDBRANCH  20  21
ENDBRANCH   1  20
TORSDOF 5
ENDMDL
MODEL 7
REMARK VINA RESULT:      -7.8      1.697      2.409
REMARK  Name = 
REMARK  6 active torsions:
REMARK  status: ('A' for Active; 'I' for Inactive)
REMARK    1  A    between atoms: C_1  and  O_2
REMARK    2  A    between atoms: O_2  and  C_3
REMARK    3  A    between atoms: C_3  and  C_4
REMARK    4  A    between atoms: C_4  and  O_5
REMARK    5  A    between atoms: O_5  and  C_6
REMARK    6  A    between atoms: C_13  and  C_14
REMARK                            x       y       z     vdW  Elec       q    Type
REMARK                         _______ _______ _______ _____ _____    ______ ____
ROOT
ATOM      1  C   UNL     1       4.730   4.686  19.600  0.00  0.00    +0.000 A 
ATOM      2  C   UNL     1       5.128   3.349  19.723  0.00  0.00    +0.000 A 
ATOM      3  C   UNL     1       4.202   2.376  20.089  0.00  0.00    +0.000 A 
ATOM      4  C   UNL     1       2.882   2.732  20.337  0.00  0.00    +0.000 A 
ATOM      5  C   UNL     1       2.477   4.071  20.234  0.00  0.00    +0.000 A 
ATOM      6  C   UNL     1       1.157   4.448  20.513  0.00  0.00    +0.000 A 
ATOM      7  C   UNL     1       0.784   5.786  20.431  0.00  0.00    +0.000 A 
ATOM      8  C   UNL     1       1.746   6.712  20.066  0.00  0.00    +0.000 A 
ATOM      9  N   UNL     1       3.019   6.362  19.770  0.00  0.00    +0.000 NA
ATOM     10  C   UNL     1       3.400   5.069  19.857  0.00  0.00    +0.000 A 
ENDROOT
BRANCH   8  11
ATOM     11  C   UNL     1       1.442   8.139  19.996  0.00  0.00    +0.000 A 
ATOM     12  N   UNL     1       1.710   8.937  18.972  0.00  0.00    +0.000 NA
ATOM     13  N   UNL     1       1.280  10.207  19.270  0.00  0.00    +0.000 NA
ATOM     14  C   UNL     1       0.735  10.172  20.465  0.00  0.00    +0.000 A 
ATOM     15  C   UNL     1       0.119  11.173  21.268  0.00  0.00    +0.000 A 
ATOM     16  C   UNL     1      -0.388  10.845  22.473  0.00  0.00    +0.000 A 
ATOM     17  C   UNL     1      -0.329   9.483  22.970  0.00  0.00    +0.000 A 
ATOM     18  C   UNL     1       0.251   8.535  22.213  0.00  0.00    +0.000 A 
ATOM     19  N   UNL     1       0.795   8.879  20.973  0.00  0.00    +0.000 N 
ENDBRANCH   8  11
BRANCH   1  20
ATOM     20  O   UNL     1       5.581   5.705  19.227  0.00  0.00    +0.000 OA
BRANCH  20  21
ATOM     21  C   UNL     1       6.812   5.353  18.593  0.00  0.00    +0.000 C 
BRANCH  21  22
ATOM     22  C   UNL     1       6.773   5.691  17.080  0.00  0.00    +0.000 C 
ATOM     23  C   UNL     1       7.212   4.460  16.254  0.00  0.00    +0.000 C 
ATOM     24  C   UNL     1       7.039   4.711  14.752  0.00  0.00    +0.000 C 
ATOM     25  N   UNL     1       5.647   5.028  14.418  0.00  0.00    +0.000 NA
ATOM     26  C   UNL     1       5.217   6.232  15.132  0.00  0.00    +0.000 C 
ATOM     27  C   UNL     1       5.341   6.068  16.644  0.00  0.00    +0.000 C 
ATOM     28  H   UNL     1       5.060   4.239  14.694  0.00  0.00    +0.000 HD
BRANCH  22  30
ATOM     29  C   UNL     1       7.692   7.927  17.487  0.00  0.00    +0.000 C 
ATOM     30  O   UNL     1       7.739   6.713  16.757  0.00  0.00    +0.000 OA
ENDBRANCH  22  30
ENDBRANCH  21  22
ENDBRANCH  20  21
ENDBRANCH   1  20
TORSDOF 5
ENDMDL
MODEL 8
REMARK VINA RESULT:      -7.8      7.138     11.884
REMARK  Name = 
REMARK  6 active torsions:
REMARK  status: ('A' for Active; 'I' for Inactive)
REMARK    1  A    between atoms: C_1  and  O_2
REMARK    2  A    between atoms: O_2  and  C_3
REMARK    3  A    between atoms: C_3  and  C_4
REMARK    4  A    between atoms: C_4  and  O_5
REMARK    5  A    between atoms: O_5  and  C_6
REMARK    6  A    between atoms: C_13  and  C_14
REMARK                            x       y       z     vdW  Elec       q    Type
REMARK                         _______ _______ _______ _____ _____    ______ ____
ROOT
ATOM      1  C   UNL     1      -5.564  13.167  22.671  0.00  0.00    +0.000 A 
ATOM      2  C   UNL     1      -6.520  14.095  23.102  0.00  0.00    +0.000 A 
ATOM      3  C   UNL     1      -6.124  15.236  23.795  0.00  0.00    +0.000 A 
ATOM      4  C   UNL     1      -4.779  15.452  24.064  0.00  0.00    +0.000 A 
ATOM      5  C   UNL     1      -3.814  14.521  23.652  0.00  0.00    +0.000 A 
ATOM      6  C   UNL     1      -2.457  14.711  23.944  0.00  0.00    +0.000 A 
ATOM      7  C   UNL     1      -1.521  13.760  23.551  0.00  0.00    +0.000 A 
ATOM      8  C   UNL     1      -1.970  12.643  22.868  0.00  0.00    +0.000 A 
ATOM      9  N   UNL     1      -3.274  12.456  22.556  0.00  0.00    +0.000 NA
ATOM     10  C   UNL     1      -4.197  13.363  22.942  0.00  0.00    +0.000 A 
ENDROOT
BRANCH   8  11
ATOM     11  C   UNL     1      -1.055  11.583  22.455  0.00  0.00    +0.000 A 
ATOM     12  N   UNL     1      -0.377  10.786  23.271  0.00  0.00    +0.000 NA
ATOM     13  N   UNL     1       0.379   9.918  22.521  0.00  0.00    +0.000 NA
ATOM     14  C   UNL     1       0.143  10.176  21.255  0.00  0.00    +0.000 A 
ATOM     15  C   UNL     1       0.628   9.593  20.051  0.00  0.00    +0.000 A 
ATOM     16  C   UNL     1       0.188  10.051  18.862  0.00  0.00    +0.000 A 
ATOM     17  C   UNL     1      -0.784  11.126  18.781  0.00  0.00    +0.000 A 
ATOM     18  C   UNL     1      -1.245  11.678  19.917  0.00  0.00    +0.000 A 
ATOM     19  N   UNL     1      -0.773  11.217  21.149  0.00  0.00    +0.000 N 
ENDBRANCH   8  11
BRANCH   1  20
ATOM     20  O   UNL     1      -5.873  12.023  21.966  0.00  0.00    +0.000 OA
BRANCH  20  21
ATOM     21  C   UNL     1      -7.083  12.009  21.207  0.00  0.00    +0.000 C 
BRANCH  21  22
ATOM     22  C   UNL     1      -6.791  11.770  19.703  0.00  0.00    +0.000 C 
ATOM     23  C   UNL     1      -7.465  12.872  18.854  0.00  0.00    +0.000 C 
ATOM     24  C   UNL     1      -7.070  12.753  17.378  0.00  0.00    +0.000 C 
ATOM     25  N   UNL     1      -5.618  12.846  17.202  0.00  0.00    +0.000 NA
ATOM     26  C   UNL     1      -4.949  11.772  17.938  0.00  0.00    +0.000 C 
ATOM     27  C   UNL     1      -5.273  11.821  19.428  0.00  0.00    +0.000 C 
ATOM     28  H   UNL     1      -5.306  13.751  17.558  0.00  0.00    +0.000 HD
BRANCH  22  30
ATOM     29  C   UNL     1      -7.091   9.350  19.960  0.00  0.00    +0.000 C 
ATOM     30  O   UNL     1      -7.396  10.539  19.252  0.00  0.00    +0.000 OA
ENDBRANCH  22  30
ENDBRANCH  21  22
ENDBRANCH  20  21
ENDBRANCH   1  20
TORSDOF 5
ENDMDL
MODEL 9
REMARK VINA RESULT:      -7.6      2.237      7.263
REMARK  Name = 
REMARK  6 active torsions:
REMARK  status: ('A' for Active; 'I' for Inactive)
REMARK    1  A    between atoms: C_1  and  O_2
REMARK    2  A    between atoms: O_2  and  C_3
REMARK    3  A    between atoms: C_3  and  C_4
REMARK    4  A    between atoms: C_4  and  O_5
REMARK    5  A    between atoms: O_5  and  C_6
REMARK    6  A    between atoms: C_13  and  C_14
REMARK                            x       y       z     vdW  Elec       q    Type
REMARK                         _______ _______ _______ _____ _____    ______ ____
ROOT
ATOM      1  C   UNL     1       2.505   6.097  19.078  0.00  0.00    +0.000 A 
ATOM      2  C   UNL     1       1.453   5.751  19.934  0.00  0.00    +0.000 A 
ATOM      3  C   UNL     1       1.159   4.411  20.174  0.00  0.00    +0.000 A 
ATOM      4  C   UNL     1       1.908   3.416  19.558  0.00  0.00    +0.000 A 
ATOM      5  C   UNL     1       2.953   3.752  18.685  0.00  0.00    +0.000 A 
ATOM      6  C   UNL     1       3.694   2.758  18.032  0.00  0.00    +0.000 A 
ATOM      7  C   UNL     1       4.707   3.114  17.148  0.00  0.00    +0.000 A 
ATOM      8  C   UNL     1       4.954   4.461  16.944  0.00  0.00    +0.000 A 
ATOM      9  N   UNL     1       4.264   5.433  17.585  0.00  0.00    +0.000 NA
ATOM     10  C   UNL     1       3.269   5.104  18.436  0.00  0.00    +0.000 A 
ENDROOT
BRANCH   8  11
ATOM     11  C   UNL     1       5.975   4.915  16.003  0.00  0.00    +0.000 A 
ATOM     12  N   UNL     1       6.956   5.763  16.277  0.00  0.00    +0.000 NA
ATOM     13  N   UNL     1       7.713   5.950  15.145  0.00  0.00    +0.000 NA
ATOM     14  C   UNL     1       7.202   5.200  14.197  0.00  0.00    +0.000 A 
ATOM     15  C   UNL     1       7.575   4.983  12.840  0.00  0.00    +0.000 A 
ATOM     16  C   UNL     1       6.870   4.120  12.082  0.00  0.00    +0.000 A 
ATOM     17  C   UNL     1       5.737   3.394  12.625  0.00  0.00    +0.000 A 
ATOM     18  C   UNL     1       5.383   3.595  13.906  0.00  0.00    +0.000 A 
ATOM     19  N   UNL     1       6.101   4.506  14.686  0.00  0.00    +0.000 N 
ENDBRANCH   8  11
BRANCH   1  20
ATOM     20  O   UNL     1       2.869   7.399  18.802  0.00  0.00    +0.000 OA
BRANCH  20  21
ATOM     21  C   UNL     1       2.065   8.139  17.882  0.00  0.00    +0.000 C 
BRANCH  21  22
ATOM     22  C   UNL     1       1.479   9.407  18.554  0.00  0.00    +0.000 C 
ATOM     23  C   UNL     1       2.294  10.651  18.133  0.00  0.00    +0.000 C 
ATOM     24  C   UNL     1       1.651  11.939  18.656  0.00  0.00    +0.000 C 
ATOM     25  N   UNL     1       0.277  12.090  18.166  0.00  0.00    +0.000 NA
ATOM     26  C   UNL     1      -0.544  10.961  18.606  0.00  0.00    +0.000 C 
ATOM     27  C   UNL     1       0.016   9.629  18.116  0.00  0.00    +0.000 C 
ATOM     28  H   UNL     1       0.299  12.120  17.146  0.00  0.00    +0.000 HD
BRANCH  22  30
ATOM     29  C   UNL     1       0.465   9.088  20.764  0.00  0.00    +0.000 C 
ATOM     30  O   UNL     1       1.624   9.342  19.989  0.00  0.00    +0.000 OA
ENDBRANCH  22  30
ENDBRANCH  21  22
ENDBRANCH  20  21
ENDBRANCH   1  20
TORSDOF 5
ENDMDL
