MODEL 1
REMARK VINA RESULT:      -5.2      0.000      0.000
REMARK  Name = 
REMARK  7 active torsions:
REMARK  status: ('A' for Active; 'I' for Inactive)
REMARK    1  A    between atoms: C_2  and  O_3
REMARK    2  A    between atoms: C_2  and  C_4
REMARK    3  A    between atoms: N_6  and  CA_7
REMARK    4  A    between atoms: CA_7  and  CB_8
REMARK    5  A    between atoms: CA_7  and  C_10
REMARK    6  A    between atoms: CB_8  and  SG_9
REMARK    7  A    between atoms: C_10  and  OXT_12
REMARK                            x       y       z     vdW  Elec       q    Type
REMARK                         _______ _______ _______ _____ _____    ______ ____
ROOT
ATOM      1  C   UNK A   0       4.585   3.646  18.774  0.00  0.00    +0.000 C 
ATOM      2  O   UNK A   0       3.835   4.491  18.300  0.00  0.00    +0.000 OA
ATOM      3  N   CYS A   1       5.945   3.843  18.857  0.00  0.00    +0.000 N 
ATOM      4  H   CYS A   1       6.512   3.068  19.199  0.00  0.00    +0.000 HD
ENDROOT
BRANCH   1   6
ATOM      5  O   UNK A   0       2.934   1.910  19.225  0.00  0.00    +0.000 OA
ATOM      6  C   UNK A   0       4.065   2.326  19.395  0.00  0.00    +0.000 C 
BRANCH   6   7
ATOM      7  O   UNK A   0       4.993   1.681  20.106  0.00  0.00    +0.000 OA
ATOM      8  H   UNK A   0       4.558   0.880  20.456  0.00  0.00    +0.000 HD
ENDBRANCH   6   7
ENDBRANCH   1   6
BRANCH   3   9
ATOM      9  CA  CYS A   1       6.604   4.980  18.200  0.00  0.00    +0.000 C 
BRANCH   9  10
ATOM     10  C   CYS A   1       7.507   5.765  19.173  0.00  0.00    +0.000 C 
ATOM     11  O   CYS A   1       7.769   5.396  20.312  0.00  0.00    +0.000 OA
BRANCH  10  12
ATOM     12  OXT CYS A   1       8.094   6.865  18.646  0.00  0.00    +0.000 OA
ATOM     13  HXT CYS A   1       7.546   7.324  17.965  0.00  0.00    +0.000 HD
ENDBRANCH  10  12
ENDBRANCH   9  10
BRANCH   9  14
ATOM     14  CB  CYS A   1       7.449   4.563  16.982  0.00  0.00    +0.000 C 
BRANCH  14  15
ATOM     15  SG  CYS A   1       6.516   4.623  15.412  0.00  0.00    +0.000 S 
ATOM     16  HG  CYS A   1       6.547   3.308  15.152  0.00  0.00    +0.000 HD
ENDBRANCH  14  15
ENDBRANCH   9  14
ENDBRANCH   3   9
TORSDOF 7
ENDMDL
MODEL 2
REMARK VINA RESULT:      -5.2      0.666      1.144
REMARK  Name = 
REMARK  7 active torsions:
REMARK  status: ('A' for Active; 'I' for Inactive)
REMARK    1  A    between atoms: C_2  and  O_3
REMARK    2  A    between atoms: C_2  and  C_4
REMARK    3  A    between atoms: N_6  and  CA_7
REMARK    4  A    between atoms: CA_7  and  CB_8
REMARK    5  A    between atoms: CA_7  and  C_10
REMARK    6  A    between atoms: CB_8  and  SG_9
REMARK    7  A    between atoms: C_10  and  OXT_12
REMARK                            x       y       z     vdW  Elec       q    Type
REMARK                         _______ _______ _______ _____ _____    ______ ____
ROOT
ATOM      1  C   UNK A   0       4.646   3.755  18.910  0.00  0.00    +0.000 C 
ATOM      2  O   UNK A   0       3.876   4.576  18.425  0.00  0.00    +0.000 OA
ATOM      3  N   CYS A   1       6.009   3.952  18.921  0.00  0.00    +0.000 N 
ATOM      4  H   CYS A   1       6.590   3.194  19.278  0.00  0.00    +0.000 HD
ENDROOT
BRANCH   1   6
ATOM      5  O   UNK A   0       3.657   2.477  20.734  0.00  0.00    +0.000 OA
ATOM      6  C   UNK A   0       4.153   2.472  19.623  0.00  0.00    +0.000 C 
BRANCH   6   7
ATOM      7  O   UNK A   0       4.299   1.372  18.882  0.00  0.00    +0.000 OA
ATOM      8  H   UNK A   0       5.224   1.378  18.566  0.00  0.00    +0.000 HD
ENDBRANCH   6   7
ENDBRANCH   1   6
BRANCH   3   9
ATOM      9  CA  CYS A   1       6.639   5.050  18.175  0.00  0.00    +0.000 C 
BRANCH   9  10
ATOM     10  C   CYS A   1       7.611   5.862  19.055  0.00  0.00    +0.000 C 
ATOM     11  O   CYS A   1       8.139   6.910  18.704  0.00  0.00    +0.000 OA
BRANCH  10  12
ATOM     12  OXT CYS A   1       7.769   5.391  20.314  0.00  0.00    +0.000 OA
ATOM     13  HXT CYS A   1       8.702   5.159  20.541  0.00  0.00    +0.000 HD
ENDBRANCH  10  12
ENDBRANCH   9  10
BRANCH   9  14
ATOM     14  CB  CYS A   1       7.399   4.570  16.926  0.00  0.00    +0.000 C 
BRANCH  14  15
ATOM     15  SG  CYS A   1       6.298   4.224  15.509  0.00  0.00    +0.000 S 
ATOM     16  HG  CYS A   1       7.037   3.249  14.960  0.00  0.00    +0.000 HD
ENDBRANCH  14  15
ENDBRANCH   9  14
ENDBRANCH   3   9
TORSDOF 7
ENDMDL
MODEL 3
REMARK VINA RESULT:      -5.2      2.645      5.101
REMARK  Name = 
REMARK  7 active torsions:
REMARK  status: ('A' for Active; 'I' for Inactive)
REMARK    1  A    between atoms: C_2  and  O_3
REMARK    2  A    between atoms: C_2  and  C_4
REMARK    3  A    between atoms: N_6  and  CA_7
REMARK    4  A    between atoms: CA_7  and  CB_8
REMARK    5  A    between atoms: CA_7  and  C_10
REMARK    6  A    between atoms: CB_8  and  SG_9
REMARK    7  A    between atoms: C_10  and  OXT_12
REMARK                            x       y       z     vdW  Elec       q    Type
REMARK                         _______ _______ _______ _____ _____    ______ ____
ROOT
ATOM      1  C   UNK A   0       5.735   4.351  17.852  0.00  0.00    +0.000 C 
ATOM      2  O   UNK A   0       4.909   4.950  17.174  0.00  0.00    +0.000 OA
ATOM      3  N   CYS A   1       5.370   3.357  18.733  0.00  0.00    +0.000 N 
ATOM      4  H   CYS A   1       6.104   2.952  19.313  0.00  0.00    +0.000 HD
ENDROOT
BRANCH   1   6
ATOM      5  O   UNK A   0       7.856   4.499  16.662  0.00  0.00    +0.000 OA
ATOM      6  C   UNK A   0       7.257   4.594  17.717  0.00  0.00    +0.000 C 
BRANCH   6   7
ATOM      7  O   UNK A   0       7.835   4.948  18.866  0.00  0.00    +0.000 OA
ATOM      8  H   UNK A   0       7.269   5.647  19.250  0.00  0.00    +0.000 HD
ENDBRANCH   6   7
ENDBRANCH   1   6
BRANCH   3   9
ATOM      9  CA  CYS A   1       3.963   3.098  19.069  0.00  0.00    +0.000 C 
BRANCH   9  10
ATOM     10  C   CYS A   1       3.343   2.016  18.160  0.00  0.00    +0.000 C 
ATOM     11  O   CYS A   1       2.459   2.236  17.341  0.00  0.00    +0.000 OA
BRANCH  10  12
ATOM     12  OXT CYS A   1       3.922   0.797  18.249  0.00  0.00    +0.000 OA
ATOM     13  HXT CYS A   1       4.355   0.497  17.414  0.00  0.00    +0.000 HD
ENDBRANCH  10  12
ENDBRANCH   9  10
BRANCH   9  14
ATOM     14  CB  CYS A   1       3.763   2.675  20.535  0.00  0.00    +0.000 C 
BRANCH  14  15
ATOM     15  SG  CYS A   1       2.036   2.856  21.102  0.00  0.00    +0.000 S 
ATOM     16  HG  CYS A   1       2.102   1.982  22.117  0.00  0.00    +0.000 HD
ENDBRANCH  14  15
ENDBRANCH   9  14
ENDBRANCH   3   9
TORSDOF 7
ENDMDL
MODEL 4
REMARK VINA RESULT:      -5.2      2.673      4.838
REMARK  Name = 
REMARK  7 active torsions:
REMARK  status: ('A' for Active; 'I' for Inactive)
REMARK    1  A    between atoms: C_2  and  O_3
REMARK    2  A    between atoms: C_2  and  C_4
REMARK    3  A    between atoms: N_6  and  CA_7
REMARK    4  A    between atoms: CA_7  and  CB_8
REMARK    5  A    between atoms: CA_7  and  C_10
REMARK    6  A    between atoms: CB_8  and  SG_9
REMARK    7  A    between atoms: C_10  and  OXT_12
REMARK                            x       y       z     vdW  Elec       q    Type
REMARK                         _______ _______ _______ _____ _____    ______ ____
ROOT
ATOM      1  C   UNK A   0       5.737   4.300  16.763  0.00  0.00    +0.000 C 
ATOM      2  O   UNK A   0       4.868   4.168  15.909  0.00  0.00    +0.000 OA
ATOM      3  N   CYS A   1       5.502   4.015  18.090  0.00  0.00    +0.000 N 
ATOM      4  H   CYS A   1       6.251   4.214  18.753  0.00  0.00    +0.000 HD
ENDROOT
BRANCH   1   6
ATOM      5  O   UNK A   0       7.462   5.514  15.543  0.00  0.00    +0.000 OA
ATOM      6  C   UNK A   0       7.188   4.714  16.418  0.00  0.00    +0.000 C 
BRANCH   6   7
ATOM      7  O   UNK A   0       8.099   4.129  17.199  0.00  0.00    +0.000 OA
ATOM      8  H   UNK A   0       7.957   3.166  17.108  0.00  0.00    +0.000 HD
ENDBRANCH   6   7
ENDBRANCH   1   6
BRANCH   3   9
ATOM      9  CA  CYS A   1       4.151   3.736  18.596  0.00  0.00    +0.000 C 
BRANCH   9  10
ATOM     10  C   CYS A   1       4.018   2.291  19.121  0.00  0.00    +0.000 C 
ATOM     11  O   CYS A   1       3.180   1.492  18.720  0.00  0.00    +0.000 OA
BRANCH  10  12
ATOM     12  OXT CYS A   1       4.976   1.913  19.998  0.00  0.00    +0.000 OA
ATOM     13  HXT CYS A   1       4.630   1.425  20.784  0.00  0.00    +0.000 HD
ENDBRANCH  10  12
ENDBRANCH   9  10
BRANCH   9  14
ATOM     14  CB  CYS A   1       3.717   4.701  19.713  0.00  0.00    +0.000 C 
BRANCH  14  15
ATOM     15  SG  CYS A   1       1.974   4.477  20.213  0.00  0.00    +0.000 S 
ATOM     16  HG  CYS A   1       1.599   5.758  20.084  0.00  0.00    +0.000 HD
ENDBRANCH  14  15
ENDBRANCH   9  14
ENDBRANCH   3   9
TORSDOF 7
ENDMDL
MODEL 5
REMARK VINA RESULT:      -5.1      1.893      4.707
REMARK  Name = 
REMARK  7 active torsions:
REMARK  status: ('A' for Active; 'I' for Inactive)
REMARK    1  A    between atoms: C_2  and  O_3
REMARK    2  A    between atoms: C_2  and  C_4
REMARK    3  A    between atoms: N_6  and  CA_7
REMARK    4  A    between atoms: CA_7  and  CB_8
REMARK    5  A    between atoms: CA_7  and  C_10
REMARK    6  A    between atoms: CB_8  and  SG_9
REMARK    7  A    between atoms: C_10  and  OXT_12
REMARK                            x       y       z     vdW  Elec       q    Type
REMARK                         _______ _______ _______ _____ _____    ______ ____
ROOT
ATOM      1  C   UNK A   0       6.769   4.891  18.447  0.00  0.00    +0.000 C 
ATOM      2  O   UNK A   0       7.000   4.502  17.309  0.00  0.00    +0.000 OA
ATOM      3  N   CYS A   1       5.665   4.466  19.153  0.00  0.00    +0.000 N 
ATOM      4  H   CYS A   1       5.502   4.887  20.067  0.00  0.00    +0.000 HD
ENDROOT
BRANCH   1   6
ATOM      5  O   UNK A   0       8.214   6.832  18.740  0.00  0.00    +0.000 OA
ATOM      6  C   UNK A   0       7.735   5.822  19.220  0.00  0.00    +0.000 C 
BRANCH   6   7
ATOM      7  O   UNK A   0       7.959   5.419  20.473  0.00  0.00    +0.000 OA
ATOM      8  H   UNK A   0       7.152   4.945  20.754  0.00  0.00    +0.000 HD
ENDBRANCH   6   7
ENDBRANCH   1   6
BRANCH   3   9
ATOM      9  CA  CYS A   1       4.592   3.688  18.518  0.00  0.00    +0.000 C 
BRANCH   9  10
ATOM     10  C   CYS A   1       4.150   2.496  19.391  0.00  0.00    +0.000 C 
ATOM     11  O   CYS A   1       3.007   2.053  19.416  0.00  0.00    +0.000 OA
BRANCH  10  12
ATOM     12  OXT CYS A   1       5.148   1.883  20.067  0.00  0.00    +0.000 OA
ATOM     13  HXT CYS A   1       5.906   2.477  20.288  0.00  0.00    +0.000 HD
ENDBRANCH  10  12
ENDBRANCH   9  10
BRANCH   9  14
ATOM     14  CB  CYS A   1       3.351   4.536  18.186  0.00  0.00    +0.000 C 
BRANCH  14  15
ATOM     15  SG  CYS A   1       2.937   5.739  19.497  0.00  0.00    +0.000 S 
ATOM     16  HG  CYS A   1       3.819   6.684  19.140  0.00  0.00    +0.000 HD
ENDBRANCH  14  15
ENDBRANCH   9  14
ENDBRANCH   3   9
TORSDOF 7
ENDMDL
MODEL 6
REMARK VINA RESULT:      -5.1      3.891      5.383
REMARK  Name = 
REMARK  7 active torsions:
REMARK  status: ('A' for Active; 'I' for Inactive)
REMARK    1  A    between atoms: C_2  and  O_3
REMARK    2  A    between atoms: C_2  and  C_4
REMARK    3  A    between atoms: N_6  and  CA_7
REMARK    4  A    between atoms: CA_7  and  CB_8
REMARK    5  A    between atoms: CA_7  and  C_10
REMARK    6  A    between atoms: CB_8  and  SG_9
REMARK    7  A    between atoms: C_10  and  OXT_12
REMARK                            x       y       z     vdW  Elec       q    Type
REMARK                         _______ _______ _______ _____ _____    ______ ____
ROOT
ATOM      1  C   UNK A   0       7.035   4.807  14.304  0.00  0.00    +0.000 C 
ATOM      2  O   UNK A   0       6.278   3.844  14.310  0.00  0.00    +0.000 OA
ATOM      3  N   CYS A   1       7.254   5.568  15.431  0.00  0.00    +0.000 N 
ATOM      4  H   CYS A   1       7.843   6.395  15.332  0.00  0.00    +0.000 HD
ENDROOT
BRANCH   1   6
ATOM      5  O   UNK A   0       8.812   5.971  13.110  0.00  0.00    +0.000 OA
ATOM      6  C   UNK A   0       7.871   5.201  13.062  0.00  0.00    +0.000 C 
BRANCH   6   7
ATOM      7  O   UNK A   0       7.475   4.583  11.947  0.00  0.00    +0.000 OA
ATOM      8  H   UNK A   0       6.645   4.120  12.174  0.00  0.00    +0.000 HD
ENDBRANCH   6   7
ENDBRANCH   1   6
BRANCH   3   9
ATOM      9  CA  CYS A   1       6.445   5.404  16.646  0.00  0.00    +0.000 C 
BRANCH   9  10
ATOM     10  C   CYS A   1       7.118   4.460  17.664  0.00  0.00    +0.000 C 
ATOM     11  O   CYS A   1       8.307   4.165  17.642  0.00  0.00    +0.000 OA
BRANCH  10  12
ATOM     12  OXT CYS A   1       6.317   4.047  18.674  0.00  0.00    +0.000 OA
ATOM     13  HXT CYS A   1       6.423   4.567  19.507  0.00  0.00    +0.000 HD
ENDBRANCH  10  12
ENDBRANCH   9  10
BRANCH   9  14
ATOM     14  CB  CYS A   1       6.140   6.738  17.349  0.00  0.00    +0.000 C 
BRANCH  14  15
ATOM     15  SG  CYS A   1       7.624   7.776  17.589  0.00  0.00    +0.000 S 
ATOM     16  HG  CYS A   1       7.854   8.038  16.294  0.00  0.00    +0.000 HD
ENDBRANCH  14  15
ENDBRANCH   9  14
ENDBRANCH   3   9
TORSDOF 7
ENDMDL
MODEL 7
REMARK VINA RESULT:      -5.0      2.319      4.522
REMARK  Name = 
REMARK  7 active torsions:
REMARK  status: ('A' for Active; 'I' for Inactive)
REMARK    1  A    between atoms: C_2  and  O_3
REMARK    2  A    between atoms: C_2  and  C_4
REMARK    3  A    between atoms: N_6  and  CA_7
REMARK    4  A    between atoms: CA_7  and  CB_8
REMARK    5  A    between atoms: CA_7  and  C_10
REMARK    6  A    between atoms: CB_8  and  SG_9
REMARK    7  A    between atoms: C_10  and  OXT_12
REMARK                            x       y       z     vdW  Elec       q    Type
REMARK                         _______ _______ _______ _____ _____    ______ ____
ROOT
ATOM      1  C   UNK A   0       5.864   4.130  17.167  0.00  0.00    +0.000 C 
ATOM      2  O   UNK A   0       4.987   4.100  16.313  0.00  0.00    +0.000 OA
ATOM      3  N   CYS A   1       5.628   3.742  18.467  0.00  0.00    +0.000 N 
ATOM      4  H   CYS A   1       6.388   3.860  19.138  0.00  0.00    +0.000 HD
ENDROOT
BRANCH   1   6
ATOM      5  O   UNK A   0       7.635   5.223  15.899  0.00  0.00    +0.000 OA
ATOM      6  C   UNK A   0       7.327   4.522  16.845  0.00  0.00    +0.000 C 
BRANCH   6   7
ATOM      7  O   UNK A   0       8.204   4.042  17.728  0.00  0.00    +0.000 OA
ATOM      8  H   UNK A   0       7.693   3.474  18.338  0.00  0.00    +0.000 HD
ENDBRANCH   6   7
ENDBRANCH   1   6
BRANCH   3   9
ATOM      9  CA  CYS A   1       4.271   3.467  18.960  0.00  0.00    +0.000 C 
BRANCH   9  10
ATOM     10  C   CYS A   1       4.275   2.464  20.132  0.00  0.00    +0.000 C 
ATOM     11  O   CYS A   1       5.204   1.706  20.380  0.00  0.00    +0.000 OA
BRANCH  10  12
ATOM     12  OXT CYS A   1       3.205   2.547  20.956  0.00  0.00    +0.000 OA
ATOM     13  HXT CYS A   1       2.403   2.937  20.534  0.00  0.00    +0.000 HD
ENDBRANCH  10  12
ENDBRANCH   9  10
BRANCH   9  14
ATOM     14  CB  CYS A   1       3.526   4.737  19.409  0.00  0.00    +0.000 C 
BRANCH  14  15
ATOM     15  SG  CYS A   1       2.157   5.195  18.289  0.00  0.00    +0.000 S 
ATOM     16  HG  CYS A   1       2.897   5.363  17.183  0.00  0.00    +0.000 HD
ENDBRANCH  14  15
ENDBRANCH   9  14
ENDBRANCH   3   9
TORSDOF 7
ENDMDL
MODEL 8
REMARK VINA RESULT:      -5.0      0.561      1.067
REMARK  Name = 
REMARK  7 active torsions:
REMARK  status: ('A' for Active; 'I' for Inactive)
REMARK    1  A    between atoms: C_2  and  O_3
REMARK    2  A    between atoms: C_2  and  C_4
REMARK    3  A    between atoms: N_6  and  CA_7
REMARK    4  A    between atoms: CA_7  and  CB_8
REMARK    5  A    between atoms: CA_7  and  C_10
REMARK    6  A    between atoms: CB_8  and  SG_9
REMARK    7  A    between atoms: C_10  and  OXT_12
REMARK                            x       y       z     vdW  Elec       q    Type
REMARK                         _______ _______ _______ _____ _____    ______ ____
ROOT
ATOM      1  C   UNK A   0       4.740   3.912  19.397  0.00  0.00    +0.000 C 
ATOM      2  O   UNK A   0       4.072   4.931  19.528  0.00  0.00    +0.000 OA
ATOM      3  N   CYS A   1       6.037   3.946  18.936  0.00  0.00    +0.000 N 
ATOM      4  H   CYS A   1       6.506   3.053  18.787  0.00  0.00    +0.000 HD
ENDROOT
BRANCH   1   6
ATOM      5  O   UNK A   0       4.928   1.662  20.313  0.00  0.00    +0.000 OA
ATOM      6  C   UNK A   0       4.219   2.516  19.815  0.00  0.00    +0.000 C 
BRANCH   6   7
ATOM      7  O   UNK A   0       2.910   2.360  19.604  0.00  0.00    +0.000 OA
ATOM      8  H   UNK A   0       2.525   2.101  20.464  0.00  0.00    +0.000 HD
ENDBRANCH   6   7
ENDBRANCH   1   6
BRANCH   3   9
ATOM      9  CA  CYS A   1       6.630   5.170  18.379  0.00  0.00    +0.000 C 
BRANCH   9  10
ATOM     10  C   CYS A   1       7.657   5.803  19.341  0.00  0.00    +0.000 C 
ATOM     11  O   CYS A   1       7.964   5.323  20.425  0.00  0.00    +0.000 OA
BRANCH  10  12
ATOM     12  OXT CYS A   1       8.295   6.893  18.856  0.00  0.00    +0.000 OA
ATOM     13  HXT CYS A   1       9.171   6.696  18.446  0.00  0.00    +0.000 HD
ENDBRANCH  10  12
ENDBRANCH   9  10
BRANCH   9  14
ATOM     14  CB  CYS A   1       7.313   4.942  17.019  0.00  0.00    +0.000 C 
BRANCH  14  15
ATOM     15  SG  CYS A   1       6.212   4.156  15.790  0.00  0.00    +0.000 S 
ATOM     16  HG  CYS A   1       5.737   5.286  15.247  0.00  0.00    +0.000 HD
ENDBRANCH  14  15
ENDBRANCH   9  14
ENDBRANCH   3   9
TORSDOF 7
ENDMDL
MODEL 9
REMARK VINA RESULT:      -5.0      2.482      4.966
REMARK  Name = 
REMARK  7 active torsions:
REMARK  status: ('A' for Active; 'I' for Inactive)
REMARK    1  A    between atoms: C_2  and  O_3
REMARK    2  A    between atoms: C_2  and  C_4
REMARK    3  A    between atoms: N_6  and  CA_7
REMARK    4  A    between atoms: CA_7  and  CB_8
REMARK    5  A    between atoms: CA_7  and  C_10
REMARK    6  A    between atoms: CB_8  and  SG_9
REMARK    7  A    between atoms: C_10  and  OXT_12
REMARK                            x       y       z     vdW  Elec       q    Type
REMARK                         _______ _______ _______ _____ _____    ______ ____
ROOT
ATOM      1  C   UNK A   0       5.556   4.056  16.557  0.00  0.00    +0.000 C 
ATOM      2  O   UNK A   0       4.994   4.199  15.478  0.00  0.00    +0.000 OA
ATOM      3  N   CYS A   1       4.935   3.453  17.628  0.00  0.00    +0.000 N 
ATOM      4  H   CYS A   1       5.440   3.432  18.513  0.00  0.00    +0.000 HD
ENDROOT
BRANCH   1   6
ATOM      5  O   UNK A   0       7.722   4.978  15.928  0.00  0.00    +0.000 OA
ATOM      6  C   UNK A   0       7.032   4.461  16.786  0.00  0.00    +0.000 C 
BRANCH   6   7
ATOM      7  O   UNK A   0       7.456   4.214  18.028  0.00  0.00    +0.000 OA
ATOM      8  H   UNK A   0       6.655   4.026  18.556  0.00  0.00    +0.000 HD
ENDBRANCH   6   7
ENDBRANCH   1   6
BRANCH   3   9
ATOM      9  CA  CYS A   1       3.501   3.131  17.612  0.00  0.00    +0.000 C 
BRANCH   9  10
ATOM     10  C   CYS A   1       3.181   1.878  18.452  0.00  0.00    +0.000 C 
ATOM     11  O   CYS A   1       2.218   1.785  19.203  0.00  0.00    +0.000 OA
BRANCH  10  12
ATOM     12  OXT CYS A   1       3.990   0.817  18.224  0.00  0.00    +0.000 OA
ATOM     13  HXT CYS A   1       3.813   0.044  18.813  0.00  0.00    +0.000 HD
ENDBRANCH  10  12
ENDBRANCH   9  10
BRANCH   9  14
ATOM     14  CB  CYS A   1       2.620   4.290  18.111  0.00  0.00    +0.000 C 
BRANCH  14  15
ATOM     15  SG  CYS A   1       3.394   5.244  19.464  0.00  0.00    +0.000 S 
ATOM     16  HG  CYS A   1       2.266   5.775  19.958  0.00  0.00    +0.000 HD
ENDBRANCH  14  15
ENDBRANCH   9  14
ENDBRANCH   3   9
TORSDOF 7
ENDMDL
