MODEL 1
REMARK VINA RESULT:      -8.8      0.000      0.000
REMARK  Name = 
REMARK  9 active torsions:
REMARK  status: ('A' for Active; 'I' for Inactive)
REMARK    1  A    between atoms: C_1  and  S_2
REMARK    2  A    between atoms: S_2  and  C_5
REMARK    3  A    between atoms: C_11  and  C_12
REMARK    4  A    between atoms: C_12  and  C_13
REMARK    5  A    between atoms: N_21  and  C_22
REMARK    6  A    between atoms: C_22  and  C_23
REMARK    7  A    between atoms: C_23  and  O_24
REMARK    8  A    between atoms: C_23  and  C_25
REMARK    9  A    between atoms: C_25  and  C_26
REMARK                            x       y       z     vdW  Elec       q    Type
REMARK                         _______ _______ _______ _____ _____    ______ ____
ROOT
ATOM      1  C   UNL     1       5.769   5.417  17.560  0.00  0.00    +0.000 A 
ATOM      2  C   UNL     1       5.615   4.425  18.524  0.00  0.00    +0.000 A 
ATOM      3  C   UNL     1       4.543   4.480  19.422  0.00  0.00    +0.000 A 
ATOM      4  C   UNL     1       3.626   5.541  19.307  0.00  0.00    +0.000 A 
ATOM      5  C   UNL     1       3.754   6.527  18.321  0.00  0.00    +0.000 A 
ATOM      6  C   UNL     1       4.851   6.465  17.439  0.00  0.00    +0.000 A 
ATOM      7  C   UNL     1       2.651   7.431  18.452  0.00  0.00    +0.000 A 
ATOM      8  C   UNL     1       1.883   6.958  19.501  0.00  0.00    +0.000 A 
ATOM      9  N   UNL     1       2.502   5.862  20.042  0.00  0.00    +0.000 N 
ENDROOT
BRANCH   1  11
ATOM     10  C   UNL     1       6.354   4.933  14.889  0.00  0.00    +0.000 C 
ATOM     11  S   UNL     1       7.137   5.352  16.426  0.00  0.00    +0.000 S 
ATOM     12  O   UNL     1       7.982   4.243  16.819  0.00  0.00    +0.000 OA
ATOM     13  O   UNL     1       7.675   6.696  16.307  0.00  0.00    +0.000 OA
ENDBRANCH   1  11
BRANCH   7  14
ATOM     14  C   UNL     1       2.393   8.665  17.643  0.00  0.00    +0.000 C 
BRANCH  14  15
ATOM     15  C   UNL     1       1.264   9.408  18.315  0.00  0.00    +0.000 A 
ATOM     16  C   UNL     1       0.001   9.489  17.704  0.00  0.00    +0.000 A 
ATOM     17  C   UNL     1      -1.041  10.184  18.322  0.00  0.00    +0.000 A 
ATOM     18  C   UNL     1      -0.825  10.799  19.548  0.00  0.00    +0.000 A 
ATOM     19  F   UNL     1      -1.822  11.475  20.133  0.00  0.00    +0.000 F 
ATOM     20  C   UNL     1       0.410  10.719  20.179  0.00  0.00    +0.000 A 
ATOM     21  C   UNL     1       1.451  10.021  19.566  0.00  0.00    +0.000 A 
ENDBRANCH  14  15
ENDBRANCH   7  14
BRANCH   9  22
ATOM     22  C   UNL     1       2.013   5.148  21.215  0.00  0.00    +0.000 C 
BRANCH  22  23
ATOM     23  C   UNL     1       1.910   3.620  21.030  0.00  0.00    +0.000 C 
BRANCH  23  24
ATOM     24  O   UNL     1       1.923   2.956  22.304  0.00  0.00    +0.000 OA
ATOM     25  H   UNL     1       2.653   3.320  22.839  0.00  0.00    +0.000 HD
ENDBRANCH  23  24
BRANCH  23  26
ATOM     26  C   UNL     1       0.725   3.092  20.220  0.00  0.00    +0.000 C 
BRANCH  26  27
ATOM     27  C   UNL     1       1.082   2.701  18.803  0.00  0.00    +0.000 C 
ATOM     28  F   UNL     1       1.080   3.751  17.957  0.00  0.00    +0.000 F 
ATOM     29  F   UNL     1       2.312   2.145  18.752  0.00  0.00    +0.000 F 
ATOM     30  F   UNL     1       0.210   1.787  18.320  0.00  0.00    +0.000 F 
ENDBRANCH  26  27
ENDBRANCH  23  26
ENDBRANCH  22  23
ENDBRANCH   9  22
TORSDOF 8
ENDMDL
MODEL 2
REMARK VINA RESULT:      -8.8      0.380      1.176
REMARK  Name = 
REMARK  9 active torsions:
REMARK  status: ('A' for Active; 'I' for Inactive)
REMARK    1  A    between atoms: C_1  and  S_2
REMARK    2  A    between atoms: S_2  and  C_5
REMARK    3  A    between atoms: C_11  and  C_12
REMARK    4  A    between atoms: C_12  and  C_13
REMARK    5  A    between atoms: N_21  and  C_22
REMARK    6  A    between atoms: C_22  and  C_23
REMARK    7  A    between atoms: C_23  and  O_24
REMARK    8  A    between atoms: C_23  and  C_25
REMARK    9  A    between atoms: C_25  and  C_26
REMARK                            x       y       z     vdW  Elec       q    Type
REMARK                         _______ _______ _______ _____ _____    ______ ____
ROOT
ATOM      1  C   UNL     1       5.804   5.285  17.546  0.00  0.00    +0.000 A 
ATOM      2  C   UNL     1       5.728   4.280  18.506  0.00  0.00    +0.000 A 
ATOM      3  C   UNL     1       4.689   4.283  19.443  0.00  0.00    +0.000 A 
ATOM      4  C   UNL     1       3.725   5.306  19.372  0.00  0.00    +0.000 A 
ATOM      5  C   UNL     1       3.775   6.304  18.392  0.00  0.00    +0.000 A 
ATOM      6  C   UNL     1       4.839   6.295  17.468  0.00  0.00    +0.000 A 
ATOM      7  C   UNL     1       2.640   7.160  18.572  0.00  0.00    +0.000 A 
ATOM      8  C   UNL     1       1.933   6.646  19.644  0.00  0.00    +0.000 A 
ATOM      9  N   UNL     1       2.617   5.573  20.152  0.00  0.00    +0.000 N 
ENDROOT
BRANCH   1  11
ATOM     10  C   UNL     1       6.299   4.910  14.839  0.00  0.00    +0.000 C 
ATOM     11  S   UNL     1       7.131   5.286  16.361  0.00  0.00    +0.000 S 
ATOM     12  O   UNL     1       8.008   4.179  16.682  0.00  0.00    +0.000 OA
ATOM     13  O   UNL     1       7.641   6.644  16.273  0.00  0.00    +0.000 OA
ENDBRANCH   1  11
BRANCH   7  14
ATOM     14  C   UNL     1       2.301   8.387  17.784  0.00  0.00    +0.000 C 
BRANCH  14  15
ATOM     15  C   UNL     1       1.304   9.175  18.598  0.00  0.00    +0.000 A 
ATOM     16  C   UNL     1       1.526   9.407  19.966  0.00  0.00    +0.000 A 
ATOM     17  C   UNL     1       0.599  10.129  20.722  0.00  0.00    +0.000 A 
ATOM     18  C   UNL     1      -0.550  10.619  20.114  0.00  0.00    +0.000 A 
ATOM     19  F   UNL     1      -1.443  11.300  20.843  0.00  0.00    +0.000 F 
ATOM     20  C   UNL     1      -0.784  10.416  18.760  0.00  0.00    +0.000 A 
ATOM     21  C   UNL     1       0.144   9.700  18.002  0.00  0.00    +0.000 A 
ENDBRANCH  14  15
ENDBRANCH   7  14
BRANCH   9  22
ATOM     22  C   UNL     1       2.203   4.830  21.335  0.00  0.00    +0.000 C 
BRANCH  22  23
ATOM     23  C   UNL     1       1.812   3.364  21.059  0.00  0.00    +0.000 C 
BRANCH  23  24
ATOM     24  O   UNL     1       1.555   2.670  22.290  0.00  0.00    +0.000 OA
ATOM     25  H   UNL     1       1.194   1.788  22.083  0.00  0.00    +0.000 HD
ENDBRANCH  23  24
BRANCH  23  26
ATOM     26  C   UNL     1       0.637   3.120  20.110  0.00  0.00    +0.000 C 
BRANCH  26  27
ATOM     27  C   UNL     1       1.052   2.630  18.740  0.00  0.00    +0.000 C 
ATOM     28  F   UNL     1       0.192   1.727  18.228  0.00  0.00    +0.000 F 
ATOM     29  F   UNL     1       1.128   3.656  17.865  0.00  0.00    +0.000 F 
ATOM     30  F   UNL     1       2.273   2.051  18.785  0.00  0.00    +0.000 F 
ENDBRANCH  26  27
ENDBRANCH  23  26
ENDBRANCH  22  23
ENDBRANCH   9  22
TORSDOF 8
ENDMDL
MODEL 3
REMARK VINA RESULT:      -8.3      3.509      6.310
REMARK  Name = 
REMARK  9 active torsions:
REMARK  status: ('A' for Active; 'I' for Inactive)
REMARK    1  A    between atoms: C_1  and  S_2
REMARK    2  A    between atoms: S_2  and  C_5
REMARK    3  A    between atoms: C_11  and  C_12
REMARK    4  A    between atoms: C_12  and  C_13
REMARK    5  A    between atoms: N_21  and  C_22
REMARK    6  A    between atoms: C_22  and  C_23
REMARK    7  A    between atoms: C_23  and  O_24
REMARK    8  A    between atoms: C_23  and  C_25
REMARK    9  A    between atoms: C_25  and  C_26
REMARK                            x       y       z     vdW  Elec       q    Type
REMARK                         _______ _______ _______ _____ _____    ______ ____
ROOT
ATOM      1  C   UNL     1       0.696   9.874  19.688  0.00  0.00    +0.000 A 
ATOM      2  C   UNL     1       0.367   9.299  20.912  0.00  0.00    +0.000 A 
ATOM      3  C   UNL     1       0.853   8.029  21.242  0.00  0.00    +0.000 A 
ATOM      4  C   UNL     1       1.691   7.371  20.323  0.00  0.00    +0.000 A 
ATOM      5  C   UNL     1       2.053   7.954  19.103  0.00  0.00    +0.000 A 
ATOM      6  C   UNL     1       1.539   9.225  18.779  0.00  0.00    +0.000 A 
ATOM      7  C   UNL     1       2.934   7.051  18.424  0.00  0.00    +0.000 A 
ATOM      8  C   UNL     1       3.088   5.958  19.258  0.00  0.00    +0.000 A 
ATOM      9  N   UNL     1       2.298   6.132  20.364  0.00  0.00    +0.000 N 
ENDROOT
BRANCH   1  11
ATOM     10  C   UNL     1       1.505  12.307  18.621  0.00  0.00    +0.000 C 
ATOM     11  S   UNL     1       0.070  11.484  19.264  0.00  0.00    +0.000 S 
ATOM     12  O   UNL     1      -0.316  12.144  20.494  0.00  0.00    +0.000 OA
ATOM     13  O   UNL     1      -0.878  11.315  18.177  0.00  0.00    +0.000 OA
ENDBRANCH   1  11
BRANCH   7  14
ATOM     14  C   UNL     1       3.540   7.230  17.066  0.00  0.00    +0.000 C 
BRANCH  14  15
ATOM     15  C   UNL     1       4.804   6.405  17.033  0.00  0.00    +0.000 A 
ATOM     16  C   UNL     1       4.770   5.068  16.599  0.00  0.00    +0.000 A 
ATOM     17  C   UNL     1       5.938   4.302  16.575  0.00  0.00    +0.000 A 
ATOM     18  C   UNL     1       7.138   4.867  16.985  0.00  0.00    +0.000 A 
ATOM     19  F   UNL     1       8.254   4.126  16.974  0.00  0.00    +0.000 F 
ATOM     20  C   UNL     1       7.200   6.190  17.404  0.00  0.00    +0.000 A 
ATOM     21  C   UNL     1       6.035   6.959  17.422  0.00  0.00    +0.000 A 
ENDBRANCH  14  15
ENDBRANCH   7  14
BRANCH   9  22
ATOM     22  C   UNL     1       2.153   5.141  21.423  0.00  0.00    +0.000 C 
BRANCH  22  23
ATOM     23  C   UNL     1       2.071   3.684  20.923  0.00  0.00    +0.000 C 
BRANCH  23  24
ATOM     24  O   UNL     1       2.222   2.766  22.017  0.00  0.00    +0.000 OA
ATOM     25  H   UNL     1       1.878   3.186  22.827  0.00  0.00    +0.000 HD
ENDBRANCH  23  24
BRANCH  23  26
ATOM     26  C   UNL     1       0.828   3.289  20.124  0.00  0.00    +0.000 C 
BRANCH  26  27
ATOM     27  C   UNL     1       1.132   2.808  18.722  0.00  0.00    +0.000 C 
ATOM     28  F   UNL     1       2.379   2.311  18.602  0.00  0.00    +0.000 F 
ATOM     29  F   UNL     1       0.272   1.835  18.351  0.00  0.00    +0.000 F 
ATOM     30  F   UNL     1       1.007   3.815  17.829  0.00  0.00    +0.000 F 
ENDBRANCH  26  27
ENDBRANCH  23  26
ENDBRANCH  22  23
ENDBRANCH   9  22
TORSDOF 8
ENDMDL
MODEL 4
REMARK VINA RESULT:      -8.3      0.795      1.110
REMARK  Name = 
REMARK  9 active torsions:
REMARK  status: ('A' for Active; 'I' for Inactive)
REMARK    1  A    between atoms: C_1  and  S_2
REMARK    2  A    between atoms: S_2  and  C_5
REMARK    3  A    between atoms: C_11  and  C_12
REMARK    4  A    between atoms: C_12  and  C_13
REMARK    5  A    between atoms: N_21  and  C_22
REMARK    6  A    between atoms: C_22  and  C_23
REMARK    7  A    between atoms: C_23  and  O_24
REMARK    8  A    between atoms: C_23  and  C_25
REMARK    9  A    between atoms: C_25  and  C_26
REMARK                            x       y       z     vdW  Elec       q    Type
REMARK                         _______ _______ _______ _____ _____    ______ ____
ROOT
ATOM      1  C   UNL     1       5.141   5.614  16.905  0.00  0.00    +0.000 A 
ATOM      2  C   UNL     1       5.021   4.580  17.828  0.00  0.00    +0.000 A 
ATOM      3  C   UNL     1       4.117   4.689  18.890  0.00  0.00    +0.000 A 
ATOM      4  C   UNL     1       3.326   5.849  18.981  0.00  0.00    +0.000 A 
ATOM      5  C   UNL     1       3.416   6.882  18.041  0.00  0.00    +0.000 A 
ATOM      6  C   UNL     1       4.346   6.763  16.989  0.00  0.00    +0.000 A 
ATOM      7  C   UNL     1       2.462   7.890  18.396  0.00  0.00    +0.000 A 
ATOM      8  C   UNL     1       1.816   7.431  19.530  0.00  0.00    +0.000 A 
ATOM      9  N   UNL     1       2.377   6.238  19.905  0.00  0.00    +0.000 N 
ENDROOT
BRANCH   1  11
ATOM     10  C   UNL     1       6.368   3.729  15.276  0.00  0.00    +0.000 C 
ATOM     11  S   UNL     1       6.298   5.480  15.561  0.00  0.00    +0.000 S 
ATOM     12  O   UNL     1       7.592   5.909  16.051  0.00  0.00    +0.000 OA
ATOM     13  O   UNL     1       5.695   6.103  14.397  0.00  0.00    +0.000 OA
ENDBRANCH   1  11
BRANCH   7  14
ATOM     14  C   UNL     1       2.230   9.198  17.704  0.00  0.00    +0.000 C 
BRANCH  14  15
ATOM     15  C   UNL     1       1.048   9.852  18.377  0.00  0.00    +0.000 A 
ATOM     16  C   UNL     1      -0.247   9.695  17.854  0.00  0.00    +0.000 A 
ATOM     17  C   UNL     1      -1.340  10.307  18.472  0.00  0.00    +0.000 A 
ATOM     18  C   UNL     1      -1.142  11.076  19.611  0.00  0.00    +0.000 A 
ATOM     19  F   UNL     1      -2.190  11.673  20.195  0.00  0.00    +0.000 F 
ATOM     20  C   UNL     1       0.126  11.234  20.156  0.00  0.00    +0.000 A 
ATOM     21  C   UNL     1       1.218  10.618  19.543  0.00  0.00    +0.000 A 
ENDBRANCH  14  15
ENDBRANCH   7  14
BRANCH   9  22
ATOM     22  C   UNL     1       1.995   5.501  21.103  0.00  0.00    +0.000 C 
BRANCH  22  23
ATOM     23  C   UNL     1       1.983   3.969  20.928  0.00  0.00    +0.000 C 
BRANCH  23  24
ATOM     24  O   UNL     1       2.181   3.316  22.192  0.00  0.00    +0.000 OA
ATOM     25  H   UNL     1       2.608   2.453  22.035  0.00  0.00    +0.000 HD
ENDBRANCH  23  24
BRANCH  23  26
ATOM     26  C   UNL     1       0.758   3.352  20.250  0.00  0.00    +0.000 C 
BRANCH  26  27
ATOM     27  C   UNL     1       1.052   2.752  18.893  0.00  0.00    +0.000 C 
ATOM     28  F   UNL     1       2.221   2.082  18.862  0.00  0.00    +0.000 F 
ATOM     29  F   UNL     1       0.081   1.886  18.529  0.00  0.00    +0.000 F 
ATOM     30  F   UNL     1       1.107   3.712  17.943  0.00  0.00    +0.000 F 
ENDBRANCH  26  27
ENDBRANCH  23  26
ENDBRANCH  22  23
ENDBRANCH   9  22
TORSDOF 8
ENDMDL
MODEL 5
REMARK VINA RESULT:      -8.3      0.770      1.442
REMARK  Name = 
REMARK  9 active torsions:
REMARK  status: ('A' for Active; 'I' for Inactive)
REMARK    1  A    between atoms: C_1  and  S_2
REMARK    2  A    between atoms: S_2  and  C_5
REMARK    3  A    between atoms: C_11  and  C_12
REMARK    4  A    between atoms: C_12  and  C_13
REMARK    5  A    between atoms: N_21  and  C_22
REMARK    6  A    between atoms: C_22  and  C_23
REMARK    7  A    between atoms: C_23  and  O_24
REMARK    8  A    between atoms: C_23  and  C_25
REMARK    9  A    between atoms: C_25  and  C_26
REMARK                            x       y       z     vdW  Elec       q    Type
REMARK                         _______ _______ _______ _____ _____    ______ ____
ROOT
ATOM      1  C   UNL     1       5.395   5.875  17.285  0.00  0.00    +0.000 A 
ATOM      2  C   UNL     1       5.285   4.851  18.221  0.00  0.00    +0.000 A 
ATOM      3  C   UNL     1       4.268   4.885  19.182  0.00  0.00    +0.000 A 
ATOM      4  C   UNL     1       3.359   5.959  19.158  0.00  0.00    +0.000 A 
ATOM      5  C   UNL     1       3.442   6.979  18.202  0.00  0.00    +0.000 A 
ATOM      6  C   UNL     1       4.484   6.937  17.255  0.00  0.00    +0.000 A 
ATOM      7  C   UNL     1       2.359   7.889  18.429  0.00  0.00    +0.000 A 
ATOM      8  C   UNL     1       1.648   7.387  19.504  0.00  0.00    +0.000 A 
ATOM      9  N   UNL     1       2.284   6.265  19.969  0.00  0.00    +0.000 N 
ENDROOT
BRANCH   1  11
ATOM     10  C   UNL     1       7.419   4.236  16.323  0.00  0.00    +0.000 C 
ATOM     11  S   UNL     1       6.694   5.836  16.071  0.00  0.00    +0.000 S 
ATOM     12  O   UNL     1       7.671   6.839  16.441  0.00  0.00    +0.000 OA
ATOM     13  O   UNL     1       6.070   5.848  14.759  0.00  0.00    +0.000 OA
ENDBRANCH   1  11
BRANCH   7  14
ATOM     14  C   UNL     1       2.070   9.153  17.680  0.00  0.00    +0.000 C 
BRANCH  14  15
ATOM     15  C   UNL     1       0.949   9.854  18.408  0.00  0.00    +0.000 A 
ATOM     16  C   UNL     1       1.212  10.605  19.567  0.00  0.00    +0.000 A 
ATOM     17  C   UNL     1       0.174  11.247  20.245  0.00  0.00    +0.000 A 
ATOM     18  C   UNL     1      -1.127  11.139  19.771  0.00  0.00    +0.000 A 
ATOM     19  F   UNL     1      -2.123  11.744  20.430  0.00  0.00    +0.000 F 
ATOM     20  C   UNL     1      -1.410  10.414  18.619  0.00  0.00    +0.000 A 
ATOM     21  C   UNL     1      -0.372   9.777  17.937  0.00  0.00    +0.000 A 
ENDBRANCH  14  15
ENDBRANCH   7  14
BRANCH   9  22
ATOM     22  C   UNL     1       1.855   5.515  21.143  0.00  0.00    +0.000 C 
BRANCH  22  23
ATOM     23  C   UNL     1       1.934   3.983  20.980  0.00  0.00    +0.000 C 
BRANCH  23  24
ATOM     24  O   UNL     1       2.132   3.351  22.254  0.00  0.00    +0.000 OA
ATOM     25  H   UNL     1       2.898   2.750  22.190  0.00  0.00    +0.000 HD
ENDBRANCH  23  24
BRANCH  23  26
ATOM     26  C   UNL     1       0.766   3.294  20.272  0.00  0.00    +0.000 C 
BRANCH  26  27
ATOM     27  C   UNL     1       1.090   2.837  18.867  0.00  0.00    +0.000 C 
ATOM     28  F   UNL     1       0.225   1.910  18.409  0.00  0.00    +0.000 F 
ATOM     29  F   UNL     1       1.061   3.876  18.004  0.00  0.00    +0.000 F 
ATOM     30  F   UNL     1       2.331   2.303  18.807  0.00  0.00    +0.000 F 
ENDBRANCH  26  27
ENDBRANCH  23  26
ENDBRANCH  22  23
ENDBRANCH   9  22
TORSDOF 8
ENDMDL
MODEL 6
REMARK VINA RESULT:      -8.3      0.971      1.228
REMARK  Name = 
REMARK  9 active torsions:
REMARK  status: ('A' for Active; 'I' for Inactive)
REMARK    1  A    between atoms: C_1  and  S_2
REMARK    2  A    between atoms: S_2  and  C_5
REMARK    3  A    between atoms: C_11  and  C_12
REMARK    4  A    between atoms: C_12  and  C_13
REMARK    5  A    between atoms: N_21  and  C_22
REMARK    6  A    between atoms: C_22  and  C_23
REMARK    7  A    between atoms: C_23  and  O_24
REMARK    8  A    between atoms: C_23  and  C_25
REMARK    9  A    between atoms: C_25  and  C_26
REMARK                            x       y       z     vdW  Elec       q    Type
REMARK                         _______ _______ _______ _____ _____    ______ ____
ROOT
ATOM      1  C   UNL     1       5.803   5.320  17.544  0.00  0.00    +0.000 A 
ATOM      2  C   UNL     1       5.774   4.347  18.539  0.00  0.00    +0.000 A 
ATOM      3  C   UNL     1       4.731   4.329  19.471  0.00  0.00    +0.000 A 
ATOM      4  C   UNL     1       3.714   5.295  19.359  0.00  0.00    +0.000 A 
ATOM      5  C   UNL     1       3.717   6.259  18.344  0.00  0.00    +0.000 A 
ATOM      6  C   UNL     1       4.786   6.273  17.426  0.00  0.00    +0.000 A 
ATOM      7  C   UNL     1       2.538   7.060  18.488  0.00  0.00    +0.000 A 
ATOM      8  C   UNL     1       1.853   6.548  19.576  0.00  0.00    +0.000 A 
ATOM      9  N   UNL     1       2.589   5.532  20.124  0.00  0.00    +0.000 N 
ENDROOT
BRANCH   1  11
ATOM     10  C   UNL     1       6.307   5.020  14.829  0.00  0.00    +0.000 C 
ATOM     11  S   UNL     1       7.134   5.349  16.365  0.00  0.00    +0.000 S 
ATOM     12  O   UNL     1       8.005   4.228  16.658  0.00  0.00    +0.000 OA
ATOM     13  O   UNL     1       7.651   6.705  16.318  0.00  0.00    +0.000 OA
ENDBRANCH   1  11
BRANCH   7  14
ATOM     14  C   UNL     1       2.140   8.239  17.656  0.00  0.00    +0.000 C 
BRANCH  14  15
ATOM     15  C   UNL     1       1.704   9.327  18.607  0.00  0.00    +0.000 A 
ATOM     16  C   UNL     1       1.847  10.680  18.256  0.00  0.00    +0.000 A 
ATOM     17  C   UNL     1       1.451  11.686  19.140  0.00  0.00    +0.000 A 
ATOM     18  C   UNL     1       0.914  11.345  20.374  0.00  0.00    +0.000 A 
ATOM     19  F   UNL     1       0.547  12.311  21.225  0.00  0.00    +0.000 F 
ATOM     20  C   UNL     1       0.748  10.014  20.737  0.00  0.00    +0.000 A 
ATOM     21  C   UNL     1       1.138   9.007  19.853  0.00  0.00    +0.000 A 
ENDBRANCH  14  15
ENDBRANCH   7  14
BRANCH   9  22
ATOM     22  C   UNL     1       2.208   4.811  21.332  0.00  0.00    +0.000 C 
BRANCH  22  23
ATOM     23  C   UNL     1       1.853   3.327  21.100  0.00  0.00    +0.000 C 
BRANCH  23  24
ATOM     24  O   UNL     1       1.630   2.661  22.352  0.00  0.00    +0.000 OA
ATOM     25  H   UNL     1       1.977   1.751  22.289  0.00  0.00    +0.000 HD
ENDBRANCH  23  24
BRANCH  23  26
ATOM     26  C   UNL     1       0.674   3.027  20.173  0.00  0.00    +0.000 C 
BRANCH  26  27
ATOM     27  C   UNL     1       1.087   2.575  18.789  0.00  0.00    +0.000 C 
ATOM     28  F   UNL     1       0.234   1.674  18.261  0.00  0.00    +0.000 F 
ATOM     29  F   UNL     1       1.145   3.623  17.939  0.00  0.00    +0.000 F 
ATOM     30  F   UNL     1       2.315   2.010  18.813  0.00  0.00    +0.000 F 
ENDBRANCH  26  27
ENDBRANCH  23  26
ENDBRANCH  22  23
ENDBRANCH   9  22
TORSDOF 8
ENDMDL
MODEL 7
REMARK VINA RESULT:      -8.3      3.523      6.320
REMARK  Name = 
REMARK  9 active torsions:
REMARK  status: ('A' for Active; 'I' for Inactive)
REMARK    1  A    between atoms: C_1  and  S_2
REMARK    2  A    between atoms: S_2  and  C_5
REMARK    3  A    between atoms: C_11  and  C_12
REMARK    4  A    between atoms: C_12  and  C_13
REMARK    5  A    between atoms: N_21  and  C_22
REMARK    6  A    between atoms: C_22  and  C_23
REMARK    7  A    between atoms: C_23  and  O_24
REMARK    8  A    between atoms: C_23  and  C_25
REMARK    9  A    between atoms: C_25  and  C_26
REMARK                            x       y       z     vdW  Elec       q    Type
REMARK                         _______ _______ _______ _____ _____    ______ ____
ROOT
ATOM      1  C   UNL     1       0.735   9.947  19.701  0.00  0.00    +0.000 A 
ATOM      2  C   UNL     1       0.394   9.370  20.921  0.00  0.00    +0.000 A 
ATOM      3  C   UNL     1       0.855   8.090  21.245  0.00  0.00    +0.000 A 
ATOM      4  C   UNL     1       1.683   7.422  20.323  0.00  0.00    +0.000 A 
ATOM      5  C   UNL     1       2.057   8.005  19.107  0.00  0.00    +0.000 A 
ATOM      6  C   UNL     1       1.567   9.287  18.790  0.00  0.00    +0.000 A 
ATOM      7  C   UNL     1       2.922   7.089  18.424  0.00  0.00    +0.000 A 
ATOM      8  C   UNL     1       3.054   5.989  19.252  0.00  0.00    +0.000 A 
ATOM      9  N   UNL     1       2.267   6.171  20.358  0.00  0.00    +0.000 N 
ENDROOT
BRANCH   1  11
ATOM     10  C   UNL     1       1.583  12.359  18.619  0.00  0.00    +0.000 C 
ATOM     11  S   UNL     1       0.140  11.570  19.286  0.00  0.00    +0.000 S 
ATOM     12  O   UNL     1      -0.210  12.239  20.522  0.00  0.00    +0.000 OA
ATOM     13  O   UNL     1      -0.830  11.422  18.215  0.00  0.00    +0.000 OA
ENDBRANCH   1  11
BRANCH   7  14
ATOM     14  C   UNL     1       3.533   7.265  17.068  0.00  0.00    +0.000 C 
BRANCH  14  15
ATOM     15  C   UNL     1       4.786   6.424  17.034  0.00  0.00    +0.000 A 
ATOM     16  C   UNL     1       6.026   6.976  17.399  0.00  0.00    +0.000 A 
ATOM     17  C   UNL     1       7.186   6.199  17.360  0.00  0.00    +0.000 A 
ATOM     18  C   UNL     1       7.111   4.873  16.956  0.00  0.00    +0.000 A 
ATOM     19  F   UNL     1       8.227   4.133  16.907  0.00  0.00    +0.000 F 
ATOM     20  C   UNL     1       5.895   4.300  16.605  0.00  0.00    +0.000 A 
ATOM     21  C   UNL     1       4.734   5.073  16.649  0.00  0.00    +0.000 A 
ENDBRANCH  14  15
ENDBRANCH   7  14
BRANCH   9  22
ATOM     22  C   UNL     1       2.101   5.177  21.411  0.00  0.00    +0.000 C 
BRANCH  22  23
ATOM     23  C   UNL     1       2.103   3.718  20.912  0.00  0.00    +0.000 C 
BRANCH  23  24
ATOM     24  O   UNL     1       2.360   2.814  21.998  0.00  0.00    +0.000 OA
ATOM     25  H   UNL     1       2.841   3.294  22.698  0.00  0.00    +0.000 HD
ENDBRANCH  23  24
BRANCH  23  26
ATOM     26  C   UNL     1       0.861   3.234  20.161  0.00  0.00    +0.000 C 
BRANCH  26  27
ATOM     27  C   UNL     1       1.140   2.803  18.738  0.00  0.00    +0.000 C 
ATOM     28  F   UNL     1       1.004   3.811  17.853  0.00  0.00    +0.000 F 
ATOM     29  F   UNL     1       2.398   2.327  18.617  0.00  0.00    +0.000 F 
ATOM     30  F   UNL     1       0.299   1.813  18.361  0.00  0.00    +0.000 F 
ENDBRANCH  26  27
ENDBRANCH  23  26
ENDBRANCH  22  23
ENDBRANCH   9  22
TORSDOF 8
ENDMDL
MODEL 8
REMARK VINA RESULT:      -8.2      3.692      6.396
REMARK  Name = 
REMARK  9 active torsions:
REMARK  status: ('A' for Active; 'I' for Inactive)
REMARK    1  A    between atoms: C_1  and  S_2
REMARK    2  A    between atoms: S_2  and  C_5
REMARK    3  A    between atoms: C_11  and  C_12
REMARK    4  A    between atoms: C_12  and  C_13
REMARK    5  A    between atoms: N_21  and  C_22
REMARK    6  A    between atoms: C_22  and  C_23
REMARK    7  A    between atoms: C_23  and  O_24
REMARK    8  A    between atoms: C_23  and  C_25
REMARK    9  A    between atoms: C_25  and  C_26
REMARK                            x       y       z     vdW  Elec       q    Type
REMARK                         _______ _______ _______ _____ _____    ______ ____
ROOT
ATOM      1  C   UNL     1       0.989   9.708  20.167  0.00  0.00    +0.000 A 
ATOM      2  C   UNL     1       0.499   8.955  21.230  0.00  0.00    +0.000 A 
ATOM      3  C   UNL     1       0.783   7.587  21.310  0.00  0.00    +0.000 A 
ATOM      4  C   UNL     1       1.588   7.010  20.310  0.00  0.00    +0.000 A 
ATOM      5  C   UNL     1       2.111   7.764  19.254  0.00  0.00    +0.000 A 
ATOM      6  C   UNL     1       1.798   9.136  19.180  0.00  0.00    +0.000 A 
ATOM      7  C   UNL     1       2.907   6.895  18.439  0.00  0.00    +0.000 A 
ATOM      8  C   UNL     1       2.852   5.647  19.035  0.00  0.00    +0.000 A 
ATOM      9  N   UNL     1       2.017   5.711  20.119  0.00  0.00    +0.000 N 
ENDROOT
BRANCH   1  11
ATOM     10  C   UNL     1       1.665  11.988  18.734  0.00  0.00    +0.000 C 
ATOM     11  S   UNL     1       0.619  11.444  20.060  0.00  0.00    +0.000 S 
ATOM     12  O   UNL     1       1.079  12.068  21.284  0.00  0.00    +0.000 OA
ATOM     13  O   UNL     1      -0.762  11.574  19.628  0.00  0.00    +0.000 OA
ENDBRANCH   1  11
BRANCH   7  14
ATOM     14  C   UNL     1       3.628   7.250  17.176  0.00  0.00    +0.000 C 
BRANCH  14  15
ATOM     15  C   UNL     1       4.876   6.403  17.124  0.00  0.00    +0.000 A 
ATOM     16  C   UNL     1       6.067   6.853  17.719  0.00  0.00    +0.000 A 
ATOM     17  C   UNL     1       7.225   6.073  17.664  0.00  0.00    +0.000 A 
ATOM     18  C   UNL     1       7.196   4.845  17.015  0.00  0.00    +0.000 A 
ATOM     19  F   UNL     1       8.310   4.105  16.952  0.00  0.00    +0.000 F 
ATOM     20  C   UNL     1       6.026   4.372  16.433  0.00  0.00    +0.000 A 
ATOM     21  C   UNL     1       4.868   5.148  16.492  0.00  0.00    +0.000 A 
ENDBRANCH  14  15
ENDBRANCH   7  14
BRANCH   9  22
ATOM     22  C   UNL     1       1.663   4.562  20.942  0.00  0.00    +0.000 C 
BRANCH  22  23
ATOM     23  C   UNL     1       2.584   3.339  20.753  0.00  0.00    +0.000 C 
BRANCH  23  24
ATOM     24  O   UNL     1       2.730   2.622  21.989  0.00  0.00    +0.000 OA
ATOM     25  H   UNL     1       2.014   1.964  22.056  0.00  0.00    +0.000 HD
ENDBRANCH  23  24
BRANCH  23  26
ATOM     26  C   UNL     1       2.205   2.342  19.656  0.00  0.00    +0.000 C 
BRANCH  26  27
ATOM     27  C   UNL     1       3.285   2.142  18.615  0.00  0.00    +0.000 C 
ATOM     28  F   UNL     1       3.626   0.847  18.462  0.00  0.00    +0.000 F 
ATOM     29  F   UNL     1       2.882   2.599  17.410  0.00  0.00    +0.000 F 
ATOM     30  F   UNL     1       4.405   2.822  18.946  0.00  0.00    +0.000 F 
ENDBRANCH  26  27
ENDBRANCH  23  26
ENDBRANCH  22  23
ENDBRANCH   9  22
TORSDOF 8
ENDMDL
MODEL 9
REMARK VINA RESULT:      -8.0      1.901      2.519
REMARK  Name = 
REMARK  9 active torsions:
REMARK  status: ('A' for Active; 'I' for Inactive)
REMARK    1  A    between atoms: C_1  and  S_2
REMARK    2  A    between atoms: S_2  and  C_5
REMARK    3  A    between atoms: C_11  and  C_12
REMARK    4  A    between atoms: C_12  and  C_13
REMARK    5  A    between atoms: N_21  and  C_22
REMARK    6  A    between atoms: C_22  and  C_23
REMARK    7  A    between atoms: C_23  and  O_24
REMARK    8  A    between atoms: C_23  and  C_25
REMARK    9  A    between atoms: C_25  and  C_26
REMARK                            x       y       z     vdW  Elec       q    Type
REMARK                         _______ _______ _______ _____ _____    ______ ____
ROOT
ATOM      1  C   UNL     1       5.833   5.140  17.559  0.00  0.00    +0.000 A 
ATOM      2  C   UNL     1       5.371   3.832  17.445  0.00  0.00    +0.000 A 
ATOM      3  C   UNL     1       3.999   3.565  17.516  0.00  0.00    +0.000 A 
ATOM      4  C   UNL     1       3.113   4.645  17.681  0.00  0.00    +0.000 A 
ATOM      5  C   UNL     1       3.565   5.968  17.767  0.00  0.00    +0.000 A 
ATOM      6  C   UNL     1       4.951   6.215  17.712  0.00  0.00    +0.000 A 
ATOM      7  C   UNL     1       2.422   6.821  17.893  0.00  0.00    +0.000 A 
ATOM      8  C   UNL     1       1.314   5.992  17.867  0.00  0.00    +0.000 A 
ATOM      9  N   UNL     1       1.738   4.690  17.797  0.00  0.00    +0.000 N 
ENDROOT
BRANCH   1  11
ATOM     10  C   UNL     1       7.971   5.914  19.154  0.00  0.00    +0.000 C 
ATOM     11  S   UNL     1       7.578   5.477  17.479  0.00  0.00    +0.000 S 
ATOM     12  O   UNL     1       7.760   6.652  16.651  0.00  0.00    +0.000 OA
ATOM     13  O   UNL     1       8.253   4.230  17.167  0.00  0.00    +0.000 OA
ENDBRANCH   1  11
BRANCH   7  14
ATOM     14  C   UNL     1       2.419   8.309  18.059  0.00  0.00    +0.000 C 
BRANCH  14  15
ATOM     15  C   UNL     1       1.563   8.620  19.263  0.00  0.00    +0.000 A 
ATOM     16  C   UNL     1       0.572   9.614  19.195  0.00  0.00    +0.000 A 
ATOM     17  C   UNL     1      -0.215   9.906  20.311  0.00  0.00    +0.000 A 
ATOM     18  C   UNL     1      -0.013   9.210  21.496  0.00  0.00    +0.000 A 
ATOM     19  F   UNL     1      -0.759   9.502  22.569  0.00  0.00    +0.000 F 
ATOM     20  C   UNL     1       0.951   8.213  21.583  0.00  0.00    +0.000 A 
ATOM     21  C   UNL     1       1.733   7.915  20.467  0.00  0.00    +0.000 A 
ENDBRANCH  14  15
ENDBRANCH   7  14
BRANCH   9  22
ATOM     22  C   UNL     1       0.842   3.541  17.826  0.00  0.00    +0.000 C 
BRANCH  22  23
ATOM     23  C   UNL     1       0.751   2.843  19.199  0.00  0.00    +0.000 C 
BRANCH  23  24
ATOM     24  O   UNL     1       1.630   1.708  19.247  0.00  0.00    +0.000 OA
ATOM     25  H   UNL     1       2.330   1.826  18.577  0.00  0.00    +0.000 HD
ENDBRANCH  23  24
BRANCH  23  26
ATOM     26  C   UNL     1       1.000   3.704  20.439  0.00  0.00    +0.000 C 
BRANCH  26  27
ATOM     27  C   UNL     1       2.129   3.202  21.311  0.00  0.00    +0.000 C 
ATOM     28  F   UNL     1       3.236   2.895  20.605  0.00  0.00    +0.000 F 
ATOM     29  F   UNL     1       2.480   4.132  22.226  0.00  0.00    +0.000 F 
ATOM     30  F   UNL     1       1.759   2.093  21.990  0.00  0.00    +0.000 F 
ENDBRANCH  26  27
ENDBRANCH  23  26
ENDBRANCH  22  23
ENDBRANCH   9  22
TORSDOF 8
ENDMDL
