MODEL 1
REMARK VINA RESULT:      -7.3      0.000      0.000
REMARK  Name = 
REMARK  16 active torsions:
REMARK  status: ('A' for Active; 'I' for Inactive)
REMARK    1  A    between atoms: C_1  and  C_2
REMARK    2  A    between atoms: C_2  and  C_3
REMARK    3  A    between atoms: C_3  and  C_4
REMARK    4  A    between atoms: C_4  and  C_5
REMARK    5  A    between atoms: C_5  and  C_6
REMARK    6  A    between atoms: C_6  and  C_7
REMARK    7  A    between atoms: C_7  and  C_8
REMARK    8  A    between atoms: C_8  and  C_9
REMARK    9  A    between atoms: C_9  and  C_10
REMARK   10  A    between atoms: C_10  and  C_11
REMARK   11  A    between atoms: C_11  and  C_12
REMARK   12  A    between atoms: C_12  and  N_13
REMARK   13  A    between atoms: N_16  and  C_17
REMARK   14  A    between atoms: C_20  and  C_21
REMARK   15  A    between atoms: C_25  and  C_26
REMARK   16  A    between atoms: C_29  and  C_30
REMARK                            x       y       z     vdW  Elec       q    Type
REMARK                         _______ _______ _______ _____ _____    ______ ____
ROOT
ATOM      1  N   UNL     1       8.049   6.617  18.381  0.00  0.00    +0.000 N 
ATOM      2  C   UNL     1       8.037   7.998  18.233  0.00  0.00    +0.000 C 
ATOM      3  O   UNL     1       7.365   8.535  17.383  0.00  0.00    +0.000 OA
ATOM      4  N   UNL     1       8.925   8.630  19.091  0.00  0.00    +0.000 N 
ATOM      5  H   UNL     1       8.274   6.244  19.289  0.00  0.00    +0.000 HD
ATOM      6  H   UNL     1       9.623   8.039  19.502  0.00  0.00    +0.000 HD
ENDROOT
BRANCH   4   7
ATOM      7  C   UNL     1       9.125  10.031  19.102  0.00  0.00    +0.000 A 
ATOM      8  C   UNL     1       9.340  10.732  20.293  0.00  0.00    +0.000 A 
ATOM      9  C   UNL     1       9.569  12.111  20.294  0.00  0.00    +0.000 A 
ATOM     10  C   UNL     1       9.588  12.818  19.091  0.00  0.00    +0.000 A 
ATOM     11  C   UNL     1       9.373  12.111  17.898  0.00  0.00    +0.000 A 
ATOM     12  C   UNL     1       9.124  10.735  17.903  0.00  0.00    +0.000 A 
BRANCH  10  13
ATOM     13  C   UNL     1       9.839  14.261  19.042  0.00  0.00    +0.000 A 
ATOM     14  N   UNL     1      11.072  14.786  19.094  0.00  0.00    +0.000 NA
ATOM     15  O   UNL     1      10.905  16.153  18.928  0.00  0.00    +0.000 OA
ATOM     16  N   UNL     1       9.566  16.483  18.782  0.00  0.00    +0.000 NA
ATOM     17  C   UNL     1       8.899  15.328  18.891  0.00  0.00    +0.000 A 
BRANCH  17  18
ATOM     18  C   UNL     1       7.442  15.288  18.897  0.00  0.00    +0.000 A 
ATOM     19  C   UNL     1       6.727  14.782  17.810  0.00  0.00    +0.000 A 
ATOM     20  C   UNL     1       5.331  14.808  17.822  0.00  0.00    +0.000 A 
ATOM     21  C   UNL     1       4.633  15.307  18.931  0.00  0.00    +0.000 A 
ATOM     22  C   UNL     1       3.138  15.362  18.946  0.00  0.00    +0.000 C 
ATOM     23  C   UNL     1       5.349  15.782  20.028  0.00  0.00    +0.000 A 
ATOM     24  C   UNL     1       6.739  15.790  20.000  0.00  0.00    +0.000 A 
ENDBRANCH  17  18
ENDBRANCH  10  13
ENDBRANCH   4   7
BRANCH   1  25
ATOM     25  C   UNL     1       7.220   5.858  17.474  0.00  0.00    +0.000 C 
BRANCH  25  26
ATOM     26  C   UNL     1       6.441   4.737  18.152  0.00  0.00    +0.000 C 
BRANCH  26  27
ATOM     27  C   UNL     1       5.209   5.297  18.875  0.00  0.00    +0.000 C 
BRANCH  27  28
ATOM     28  C   UNL     1       3.970   5.250  17.983  0.00  0.00    +0.000 C 
BRANCH  28  29
ATOM     29  C   UNL     1       3.987   4.026  17.068  0.00  0.00    +0.000 C 
BRANCH  29  30
ATOM     30  C   UNL     1       2.698   3.222  17.216  0.00  0.00    +0.000 C 
BRANCH  30  31
ATOM     31  C   UNL     1       1.576   4.082  17.786  0.00  0.00    +0.000 C 
BRANCH  31  32
ATOM     32  C   UNL     1       0.664   3.254  18.686  0.00  0.00    +0.000 C 
BRANCH  32  33
ATOM     33  C   UNL     1       0.841   3.649  20.148  0.00  0.00    +0.000 C 
BRANCH  33  34
ATOM     34  C   UNL     1       1.596   2.566  20.914  0.00  0.00    +0.000 C 
BRANCH  34  36
ATOM     35  C   UNL     1       4.043   2.225  20.484  0.00  0.00    +0.000 C 
ATOM     36  C   UNL     1       3.009   3.024  21.260  0.00  0.00    +0.000 C 
ENDBRANCH  34  36
ENDBRANCH  33  34
ENDBRANCH  32  33
ENDBRANCH  31  32
ENDBRANCH  30  31
ENDBRANCH  29  30
ENDBRANCH  28  29
ENDBRANCH  27  28
ENDBRANCH  26  27
ENDBRANCH  25  26
ENDBRANCH   1  25
TORSDOF 14
ENDMDL
MODEL 2
REMARK VINA RESULT:      -7.0      5.078      7.298
REMARK  Name = 
REMARK  16 active torsions:
REMARK  status: ('A' for Active; 'I' for Inactive)
REMARK    1  A    between atoms: C_1  and  C_2
REMARK    2  A    between atoms: C_2  and  C_3
REMARK    3  A    between atoms: C_3  and  C_4
REMARK    4  A    between atoms: C_4  and  C_5
REMARK    5  A    between atoms: C_5  and  C_6
REMARK    6  A    between atoms: C_6  and  C_7
REMARK    7  A    between atoms: C_7  and  C_8
REMARK    8  A    between atoms: C_8  and  C_9
REMARK    9  A    between atoms: C_9  and  C_10
REMARK   10  A    between atoms: C_10  and  C_11
REMARK   11  A    between atoms: C_11  and  C_12
REMARK   12  A    between atoms: C_12  and  N_13
REMARK   13  A    between atoms: N_16  and  C_17
REMARK   14  A    between atoms: C_20  and  C_21
REMARK   15  A    between atoms: C_25  and  C_26
REMARK   16  A    between atoms: C_29  and  C_30
REMARK                            x       y       z     vdW  Elec       q    Type
REMARK                         _______ _______ _______ _____ _____    ______ ____
ROOT
ATOM      1  N   UNL     1       2.975   4.386  21.217  0.00  0.00    +0.000 N 
ATOM      2  C   UNL     1       2.050   5.329  20.788  0.00  0.00    +0.000 C 
ATOM      3  O   UNL     1       0.898   5.031  20.578  0.00  0.00    +0.000 OA
ATOM      4  N   UNL     1       2.627   6.570  20.562  0.00  0.00    +0.000 N 
ATOM      5  H   UNL     1       3.769   4.712  21.744  0.00  0.00    +0.000 HD
ATOM      6  H   UNL     1       3.626   6.575  20.480  0.00  0.00    +0.000 HD
ENDROOT
BRANCH   4   7
ATOM      7  C   UNL     1       1.898   7.685  20.081  0.00  0.00    +0.000 A 
ATOM      8  C   UNL     1       1.054   8.425  20.916  0.00  0.00    +0.000 A 
ATOM      9  C   UNL     1       0.362   9.544  20.443  0.00  0.00    +0.000 A 
ATOM     10  C   UNL     1       0.506   9.944  19.114  0.00  0.00    +0.000 A 
ATOM     11  C   UNL     1       1.354   9.200  18.281  0.00  0.00    +0.000 A 
ATOM     12  C   UNL     1       2.028   8.070  18.752  0.00  0.00    +0.000 A 
BRANCH  10  13
ATOM     13  C   UNL     1      -0.188  11.119  18.578  0.00  0.00    +0.000 A 
ATOM     14  N   UNL     1      -1.374  11.042  17.958  0.00  0.00    +0.000 NA
ATOM     15  O   UNL     1      -1.740  12.352  17.685  0.00  0.00    +0.000 OA
ATOM     16  N   UNL     1      -0.779  13.247  18.128  0.00  0.00    +0.000 NA
ATOM     17  C   UNL     1       0.201  12.494  18.644  0.00  0.00    +0.000 A 
BRANCH  17  18
ATOM     18  C   UNL     1       1.446  13.085  19.117  0.00  0.00    +0.000 A 
ATOM     19  C   UNL     1       1.733  13.171  20.481  0.00  0.00    +0.000 A 
ATOM     20  C   UNL     1       2.909  13.792  20.906  0.00  0.00    +0.000 A 
ATOM     21  C   UNL     1       3.827  14.303  19.977  0.00  0.00    +0.000 A 
ATOM     22  C   UNL     1       5.079  14.991  20.420  0.00  0.00    +0.000 C 
ATOM     23  C   UNL     1       3.553  14.186  18.615  0.00  0.00    +0.000 A 
ATOM     24  C   UNL     1       2.363  13.601  18.194  0.00  0.00    +0.000 A 
ENDBRANCH  17  18
ENDBRANCH  10  13
ENDBRANCH   4   7
BRANCH   1  25
ATOM     25  C   UNL     1       2.493   3.037  21.400  0.00  0.00    +0.000 C 
BRANCH  25  26
ATOM     26  C   UNL     1       2.935   2.077  20.301  0.00  0.00    +0.000 C 
BRANCH  26  27
ATOM     27  C   UNL     1       4.217   2.582  19.626  0.00  0.00    +0.000 C 
BRANCH  27  28
ATOM     28  C   UNL     1       3.982   2.899  18.151  0.00  0.00    +0.000 C 
BRANCH  28  29
ATOM     29  C   UNL     1       3.986   4.405  17.895  0.00  0.00    +0.000 C 
BRANCH  29  30
ATOM     30  C   UNL     1       5.265   5.042  18.430  0.00  0.00    +0.000 C 
BRANCH  30  31
ATOM     31  C   UNL     1       5.580   6.342  17.698  0.00  0.00    +0.000 C 
BRANCH  31  32
ATOM     32  C   UNL     1       4.656   6.525  16.498  0.00  0.00    +0.000 C 
BRANCH  32  33
ATOM     33  C   UNL     1       5.414   6.307  15.192  0.00  0.00    +0.000 C 
BRANCH  33  34
ATOM     34  C   UNL     1       6.507   5.256  15.370  0.00  0.00    +0.000 C 
BRANCH  34  36
ATOM     35  C   UNL     1       6.184   3.775  13.372  0.00  0.00    +0.000 C 
ATOM     36  C   UNL     1       6.039   3.890  14.880  0.00  0.00    +0.000 C 
ENDBRANCH  34  36
ENDBRANCH  33  34
ENDBRANCH  32  33
ENDBRANCH  31  32
ENDBRANCH  30  31
ENDBRANCH  29  30
ENDBRANCH  28  29
ENDBRANCH  27  28
ENDBRANCH  26  27
ENDBRANCH  25  26
ENDBRANCH   1  25
TORSDOF 14
ENDMDL
MODEL 3
REMARK VINA RESULT:      -7.0      5.592      9.005
REMARK  Name = 
REMARK  16 active torsions:
REMARK  status: ('A' for Active; 'I' for Inactive)
REMARK    1  A    between atoms: C_1  and  C_2
REMARK    2  A    between atoms: C_2  and  C_3
REMARK    3  A    between atoms: C_3  and  C_4
REMARK    4  A    between atoms: C_4  and  C_5
REMARK    5  A    between atoms: C_5  and  C_6
REMARK    6  A    between atoms: C_6  and  C_7
REMARK    7  A    between atoms: C_7  and  C_8
REMARK    8  A    between atoms: C_8  and  C_9
REMARK    9  A    between atoms: C_9  and  C_10
REMARK   10  A    between atoms: C_10  and  C_11
REMARK   11  A    between atoms: C_11  and  C_12
REMARK   12  A    between atoms: C_12  and  N_13
REMARK   13  A    between atoms: N_16  and  C_17
REMARK   14  A    between atoms: C_20  and  C_21
REMARK   15  A    between atoms: C_25  and  C_26
REMARK   16  A    between atoms: C_29  and  C_30
REMARK                            x       y       z     vdW  Elec       q    Type
REMARK                         _______ _______ _______ _____ _____    ______ ____
ROOT
ATOM      1  N   UNL     1       3.782   4.683  18.493  0.00  0.00    +0.000 N 
ATOM      2  C   UNL     1       2.745   5.599  18.606  0.00  0.00    +0.000 C 
ATOM      3  O   UNL     1       1.811   5.591  17.838  0.00  0.00    +0.000 OA
ATOM      4  N   UNL     1       2.966   6.528  19.612  0.00  0.00    +0.000 N 
ATOM      5  H   UNL     1       4.302   4.457  19.325  0.00  0.00    +0.000 HD
ATOM      6  H   UNL     1       3.912   6.592  19.941  0.00  0.00    +0.000 HD
ENDROOT
BRANCH   4   7
ATOM      7  C   UNL     1       2.073   7.588  19.895  0.00  0.00    +0.000 A 
ATOM      8  C   UNL     1       1.867   8.636  18.991  0.00  0.00    +0.000 A 
ATOM      9  C   UNL     1       0.960   9.663  19.262  0.00  0.00    +0.000 A 
ATOM     10  C   UNL     1       0.235   9.659  20.455  0.00  0.00    +0.000 A 
ATOM     11  C   UNL     1       0.444   8.607  21.359  0.00  0.00    +0.000 A 
ATOM     12  C   UNL     1       1.367   7.592  21.094  0.00  0.00    +0.000 A 
BRANCH  10  13
ATOM     13  C   UNL     1      -0.738  10.707  20.776  0.00  0.00    +0.000 A 
ATOM     14  N   UNL     1      -0.830  11.266  21.992  0.00  0.00    +0.000 NA
ATOM     15  O   UNL     1      -1.786  12.264  21.874  0.00  0.00    +0.000 OA
ATOM     16  N   UNL     1      -2.298  12.323  20.587  0.00  0.00    +0.000 NA
ATOM     17  C   UNL     1      -1.687  11.341  19.913  0.00  0.00    +0.000 A 
BRANCH  17  18
ATOM     18  C   UNL     1      -2.049  11.020  18.539  0.00  0.00    +0.000 A 
ATOM     19  C   UNL     1      -1.851  11.939  17.505  0.00  0.00    +0.000 A 
ATOM     20  C   UNL     1      -2.260  11.623  16.208  0.00  0.00    +0.000 A 
ATOM     21  C   UNL     1      -2.839  10.379  15.920  0.00  0.00    +0.000 A 
ATOM     22  C   UNL     1      -3.302  10.039  14.538  0.00  0.00    +0.000 C 
ATOM     23  C   UNL     1      -3.005   9.453  16.948  0.00  0.00    +0.000 A 
ATOM     24  C   UNL     1      -2.633   9.781  18.247  0.00  0.00    +0.000 A 
ENDBRANCH  17  18
ENDBRANCH  10  13
ENDBRANCH   4   7
BRANCH   1  25
ATOM     25  C   UNL     1       3.689   3.723  17.418  0.00  0.00    +0.000 C 
BRANCH  25  26
ATOM     26  C   UNL     1       4.740   3.919  16.332  0.00  0.00    +0.000 C 
BRANCH  26  27
ATOM     27  C   UNL     1       5.353   5.323  16.420  0.00  0.00    +0.000 C 
BRANCH  27  28
ATOM     28  C   UNL     1       6.873   5.261  16.548  0.00  0.00    +0.000 C 
BRANCH  28  29
ATOM     29  C   UNL     1       7.300   4.824  17.949  0.00  0.00    +0.000 C 
BRANCH  29  30
ATOM     30  C   UNL     1       7.857   6.006  18.738  0.00  0.00    +0.000 C 
BRANCH  30  31
ATOM     31  C   UNL     1       7.758   7.299  17.935  0.00  0.00    +0.000 C 
BRANCH  31  32
ATOM     32  C   UNL     1       8.713   8.352  18.487  0.00  0.00    +0.000 C 
BRANCH  32  33
ATOM     33  C   UNL     1       8.233   9.757  18.135  0.00  0.00    +0.000 C 
BRANCH  33  34
ATOM     34  C   UNL     1       9.278  10.798  18.524  0.00  0.00    +0.000 C 
BRANCH  34  36
ATOM     35  C   UNL     1       9.064  12.269  20.544  0.00  0.00    +0.000 C 
ATOM     36  C   UNL     1       9.429  10.884  20.039  0.00  0.00    +0.000 C 
ENDBRANCH  34  36
ENDBRANCH  33  34
ENDBRANCH  32  33
ENDBRANCH  31  32
ENDBRANCH  30  31
ENDBRANCH  29  30
ENDBRANCH  28  29
ENDBRANCH  27  28
ENDBRANCH  26  27
ENDBRANCH  25  26
ENDBRANCH   1  25
TORSDOF 14
ENDMDL
MODEL 4
REMARK VINA RESULT:      -6.9      5.625     10.486
REMARK  Name = 
REMARK  16 active torsions:
REMARK  status: ('A' for Active; 'I' for Inactive)
REMARK    1  A    between atoms: C_1  and  C_2
REMARK    2  A    between atoms: C_2  and  C_3
REMARK    3  A    between atoms: C_3  and  C_4
REMARK    4  A    between atoms: C_4  and  C_5
REMARK    5  A    between atoms: C_5  and  C_6
REMARK    6  A    between atoms: C_6  and  C_7
REMARK    7  A    between atoms: C_7  and  C_8
REMARK    8  A    between atoms: C_8  and  C_9
REMARK    9  A    between atoms: C_9  and  C_10
REMARK   10  A    between atoms: C_10  and  C_11
REMARK   11  A    between atoms: C_11  and  C_12
REMARK   12  A    between atoms: C_12  and  N_13
REMARK   13  A    between atoms: N_16  and  C_17
REMARK   14  A    between atoms: C_20  and  C_21
REMARK   15  A    between atoms: C_25  and  C_26
REMARK   16  A    between atoms: C_29  and  C_30
REMARK                            x       y       z     vdW  Elec       q    Type
REMARK                         _______ _______ _______ _____ _____    ______ ____
ROOT
ATOM      1  N   UNL     1       1.152  12.924  17.919  0.00  0.00    +0.000 N 
ATOM      2  C   UNL     1       1.510  11.811  18.669  0.00  0.00    +0.000 C 
ATOM      3  O   UNL     1       1.982  11.922  19.776  0.00  0.00    +0.000 OA
ATOM      4  N   UNL     1       1.343  10.626  17.968  0.00  0.00    +0.000 N 
ATOM      5  H   UNL     1       0.434  12.810  17.223  0.00  0.00    +0.000 HD
ATOM      6  H   UNL     1       1.246  10.721  16.974  0.00  0.00    +0.000 HD
ENDROOT
BRANCH   4   7
ATOM      7  C   UNL     1       1.678   9.358  18.501  0.00  0.00    +0.000 A 
ATOM      8  C   UNL     1       1.282   8.975  19.787  0.00  0.00    +0.000 A 
ATOM      9  C   UNL     1       1.588   7.711  20.297  0.00  0.00    +0.000 A 
ATOM     10  C   UNL     1       2.302   6.798  19.519  0.00  0.00    +0.000 A 
ATOM     11  C   UNL     1       2.697   7.185  18.230  0.00  0.00    +0.000 A 
ATOM     12  C   UNL     1       2.407   8.458  17.732  0.00  0.00    +0.000 A 
BRANCH  10  13
ATOM     13  C   UNL     1       2.632   5.455  20.006  0.00  0.00    +0.000 A 
ATOM     14  N   UNL     1       2.090   4.931  21.115  0.00  0.00    +0.000 NA
ATOM     15  O   UNL     1       2.572   3.633  21.190  0.00  0.00    +0.000 OA
ATOM     16  N   UNL     1       3.422   3.348  20.132  0.00  0.00    +0.000 NA
ATOM     17  C   UNL     1       3.496   4.479  19.419  0.00  0.00    +0.000 A 
BRANCH  17  18
ATOM     18  C   UNL     1       4.392   4.600  18.276  0.00  0.00    +0.000 A 
ATOM     19  C   UNL     1       3.993   4.201  16.998  0.00  0.00    +0.000 A 
ATOM     20  C   UNL     1       4.893   4.278  15.933  0.00  0.00    +0.000 A 
ATOM     21  C   UNL     1       6.187   4.785  16.122  0.00  0.00    +0.000 A 
ATOM     22  C   UNL     1       7.167   4.851  14.994  0.00  0.00    +0.000 C 
ATOM     23  C   UNL     1       6.571   5.213  17.392  0.00  0.00    +0.000 A 
ATOM     24  C   UNL     1       5.687   5.101  18.460  0.00  0.00    +0.000 A 
ENDBRANCH  17  18
ENDBRANCH  10  13
ENDBRANCH   4   7
BRANCH   1  25
ATOM     25  C   UNL     1       1.369  14.216  18.529  0.00  0.00    +0.000 C 
BRANCH  25  26
ATOM     26  C   UNL     1       0.092  14.869  19.043  0.00  0.00    +0.000 C 
BRANCH  26  27
ATOM     27  C   UNL     1       0.131  15.005  20.571  0.00  0.00    +0.000 C 
BRANCH  27  28
ATOM     28  C   UNL     1      -1.037  14.272  21.226  0.00  0.00    +0.000 C 
BRANCH  28  29
ATOM     29  C   UNL     1      -0.888  12.756  21.100  0.00  0.00    +0.000 C 
BRANCH  29  30
ATOM     30  C   UNL     1      -2.251  12.090  20.933  0.00  0.00    +0.000 C 
BRANCH  30  31
ATOM     31  C   UNL     1      -2.940  12.559  19.656  0.00  0.00    +0.000 C 
BRANCH  31  32
ATOM     32  C   UNL     1      -2.241  11.991  18.426  0.00  0.00    +0.000 C 
BRANCH  32  33
ATOM     33  C   UNL     1      -2.080  10.479  18.543  0.00  0.00    +0.000 C 
BRANCH  33  34
ATOM     34  C   UNL     1      -2.139   9.821  17.167  0.00  0.00    +0.000 C 
BRANCH  34  36
ATOM     35  C   UNL     1      -3.199  10.140  14.917  0.00  0.00    +0.000 C 
ATOM     36  C   UNL     1      -2.529  10.830  16.092  0.00  0.00    +0.000 C 
ENDBRANCH  34  36
ENDBRANCH  33  34
ENDBRANCH  32  33
ENDBRANCH  31  32
ENDBRANCH  30  31
ENDBRANCH  29  30
ENDBRANCH  28  29
ENDBRANCH  27  28
ENDBRANCH  26  27
ENDBRANCH  25  26
ENDBRANCH   1  25
TORSDOF 14
ENDMDL
MODEL 5
REMARK VINA RESULT:      -6.9      1.133      1.932
REMARK  Name = 
REMARK  16 active torsions:
REMARK  status: ('A' for Active; 'I' for Inactive)
REMARK    1  A    between atoms: C_1  and  C_2
REMARK    2  A    between atoms: C_2  and  C_3
REMARK    3  A    between atoms: C_3  and  C_4
REMARK    4  A    between atoms: C_4  and  C_5
REMARK    5  A    between atoms: C_5  and  C_6
REMARK    6  A    between atoms: C_6  and  C_7
REMARK    7  A    between atoms: C_7  and  C_8
REMARK    8  A    between atoms: C_8  and  C_9
REMARK    9  A    between atoms: C_9  and  C_10
REMARK   10  A    between atoms: C_10  and  C_11
REMARK   11  A    between atoms: C_11  and  C_12
REMARK   12  A    between atoms: C_12  and  N_13
REMARK   13  A    between atoms: N_16  and  C_17
REMARK   14  A    between atoms: C_20  and  C_21
REMARK   15  A    between atoms: C_25  and  C_26
REMARK   16  A    between atoms: C_29  and  C_30
REMARK                            x       y       z     vdW  Elec       q    Type
REMARK                         _______ _______ _______ _____ _____    ______ ____
ROOT
ATOM      1  N   UNL     1       8.122   7.247  18.579  0.00  0.00    +0.000 N 
ATOM      2  C   UNL     1       8.165   8.624  18.405  0.00  0.00    +0.000 C 
ATOM      3  O   UNL     1       7.370   9.194  17.693  0.00  0.00    +0.000 OA
ATOM      4  N   UNL     1       9.243   9.206  19.055  0.00  0.00    +0.000 N 
ATOM      5  H   UNL     1       8.501   6.869  19.432  0.00  0.00    +0.000 HD
ATOM      6  H   UNL     1       9.972   8.576  19.332  0.00  0.00    +0.000 HD
ENDROOT
BRANCH   4   7
ATOM      7  C   UNL     1       9.526  10.592  18.993  0.00  0.00    +0.000 A 
ATOM      8  C   UNL     1      10.101  11.174  17.859  0.00  0.00    +0.000 A 
ATOM      9  C   UNL     1      10.349  12.548  17.792  0.00  0.00    +0.000 A 
ATOM     10  C   UNL     1      10.021  13.370  18.870  0.00  0.00    +0.000 A 
ATOM     11  C   UNL     1       9.444  12.783  20.006  0.00  0.00    +0.000 A 
ATOM     12  C   UNL     1       9.216  11.406  20.077  0.00  0.00    +0.000 A 
BRANCH  10  13
ATOM     13  C   UNL     1      10.248  14.818  18.839  0.00  0.00    +0.000 A 
ATOM     14  N   UNL     1      11.459  15.367  19.015  0.00  0.00    +0.000 NA
ATOM     15  O   UNL     1      11.284  16.729  18.825  0.00  0.00    +0.000 OA
ATOM     16  N   UNL     1       9.962  17.033  18.539  0.00  0.00    +0.000 NA
ATOM     17  C   UNL     1       9.308  15.866  18.586  0.00  0.00    +0.000 A 
BRANCH  17  18
ATOM     18  C   UNL     1       7.860  15.797  18.442  0.00  0.00    +0.000 A 
ATOM     19  C   UNL     1       7.036  16.818  18.923  0.00  0.00    +0.000 A 
ATOM     20  C   UNL     1       5.649  16.698  18.819  0.00  0.00    +0.000 A 
ATOM     21  C   UNL     1       5.069  15.578  18.207  0.00  0.00    +0.000 A 
ATOM     22  C   UNL     1       3.583  15.427  18.111  0.00  0.00    +0.000 C 
ATOM     23  C   UNL     1       5.895  14.576  17.699  0.00  0.00    +0.000 A 
ATOM     24  C   UNL     1       7.275  14.678  17.836  0.00  0.00    +0.000 A 
ENDBRANCH  17  18
ENDBRANCH  10  13
ENDBRANCH   4   7
BRANCH   1  25
ATOM     25  C   UNL     1       7.084   6.533  17.871  0.00  0.00    +0.000 C 
BRANCH  25  26
ATOM     26  C   UNL     1       7.576   5.262  17.187  0.00  0.00    +0.000 C 
BRANCH  26  27
ATOM     27  C   UNL     1       7.037   5.177  15.753  0.00  0.00    +0.000 C 
BRANCH  27  28
ATOM     28  C   UNL     1       5.515   5.060  15.736  0.00  0.00    +0.000 C 
BRANCH  28  29
ATOM     29  C   UNL     1       5.054   3.688  16.227  0.00  0.00    +0.000 C 
BRANCH  29  30
ATOM     30  C   UNL     1       3.814   3.817  17.107  0.00  0.00    +0.000 C 
BRANCH  30  31
ATOM     31  C   UNL     1       3.798   5.153  17.842  0.00  0.00    +0.000 C 
BRANCH  31  32
ATOM     32  C   UNL     1       2.366   5.619  18.085  0.00  0.00    +0.000 C 
BRANCH  32  33
ATOM     33  C   UNL     1       2.214   6.195  19.489  0.00  0.00    +0.000 C 
BRANCH  33  34
ATOM     34  C   UNL     1       2.296   5.090  20.539  0.00  0.00    +0.000 C 
BRANCH  34  36
ATOM     35  C   UNL     1       1.332   2.794  20.840  0.00  0.00    +0.000 C 
ATOM     36  C   UNL     1       1.020   4.253  20.555  0.00  0.00    +0.000 C 
ENDBRANCH  34  36
ENDBRANCH  33  34
ENDBRANCH  32  33
ENDBRANCH  31  32
ENDBRANCH  30  31
ENDBRANCH  29  30
ENDBRANCH  28  29
ENDBRANCH  27  28
ENDBRANCH  26  27
ENDBRANCH  25  26
ENDBRANCH   1  25
TORSDOF 14
ENDMDL
MODEL 6
REMARK VINA RESULT:      -6.9      0.634      1.075
REMARK  Name = 
REMARK  16 active torsions:
REMARK  status: ('A' for Active; 'I' for Inactive)
REMARK    1  A    between atoms: C_1  and  C_2
REMARK    2  A    between atoms: C_2  and  C_3
REMARK    3  A    between atoms: C_3  and  C_4
REMARK    4  A    between atoms: C_4  and  C_5
REMARK    5  A    between atoms: C_5  and  C_6
REMARK    6  A    between atoms: C_6  and  C_7
REMARK    7  A    between atoms: C_7  and  C_8
REMARK    8  A    between atoms: C_8  and  C_9
REMARK    9  A    between atoms: C_9  and  C_10
REMARK   10  A    between atoms: C_10  and  C_11
REMARK   11  A    between atoms: C_11  and  C_12
REMARK   12  A    between atoms: C_12  and  N_13
REMARK   13  A    between atoms: N_16  and  C_17
REMARK   14  A    between atoms: C_20  and  C_21
REMARK   15  A    between atoms: C_25  and  C_26
REMARK   16  A    between atoms: C_29  and  C_30
REMARK                            x       y       z     vdW  Elec       q    Type
REMARK                         _______ _______ _______ _____ _____    ______ ____
ROOT
ATOM      1  N   UNL     1       8.129   6.923  18.440  0.00  0.00    +0.000 N 
ATOM      2  C   UNL     1       8.187   8.298  18.256  0.00  0.00    +0.000 C 
ATOM      3  O   UNL     1       7.613   8.837  17.339  0.00  0.00    +0.000 OA
ATOM      4  N   UNL     1       9.026   8.919  19.171  0.00  0.00    +0.000 N 
ATOM      5  H   UNL     1       8.260   6.568  19.373  0.00  0.00    +0.000 HD
ATOM      6  H   UNL     1       9.661   8.313  19.656  0.00  0.00    +0.000 HD
ENDROOT
BRANCH   4   7
ATOM      7  C   UNL     1       9.284  10.310  19.163  0.00  0.00    +0.000 A 
ATOM      8  C   UNL     1       9.229  11.073  20.335  0.00  0.00    +0.000 A 
ATOM      9  C   UNL     1       9.515  12.441  20.326  0.00  0.00    +0.000 A 
ATOM     10  C   UNL     1       9.866  13.074  19.133  0.00  0.00    +0.000 A 
ATOM     11  C   UNL     1       9.921  12.306  17.961  0.00  0.00    +0.000 A 
ATOM     12  C   UNL     1       9.614  10.943  17.970  0.00  0.00    +0.000 A 
BRANCH  10  13
ATOM     13  C   UNL     1      10.190  14.503  19.079  0.00  0.00    +0.000 A 
ATOM     14  N   UNL     1      11.443  14.969  19.195  0.00  0.00    +0.000 NA
ATOM     15  O   UNL     1      11.352  16.339  19.001  0.00  0.00    +0.000 OA
ATOM     16  N   UNL     1      10.042  16.730  18.772  0.00  0.00    +0.000 NA
ATOM     17  C   UNL     1       9.313  15.611  18.858  0.00  0.00    +0.000 A 
BRANCH  17  18
ATOM     18  C   UNL     1       7.859  15.641  18.780  0.00  0.00    +0.000 A 
ATOM     19  C   UNL     1       7.107  16.474  19.611  0.00  0.00    +0.000 A 
ATOM     20  C   UNL     1       5.712  16.440  19.551  0.00  0.00    +0.000 A 
ATOM     21  C   UNL     1       5.053  15.602  18.640  0.00  0.00    +0.000 A 
ATOM     22  C   UNL     1       3.559  15.539  18.583  0.00  0.00    +0.000 C 
ATOM     23  C   UNL     1       5.807  14.795  17.789  0.00  0.00    +0.000 A 
ATOM     24  C   UNL     1       7.195  14.802  17.876  0.00  0.00    +0.000 A 
ENDBRANCH  17  18
ENDBRANCH  10  13
ENDBRANCH   4   7
BRANCH   1  25
ATOM     25  C   UNL     1       7.348   6.172  17.484  0.00  0.00    +0.000 C 
BRANCH  25  26
ATOM     26  C   UNL     1       6.999   4.764  17.954  0.00  0.00    +0.000 C 
BRANCH  26  27
ATOM     27  C   UNL     1       5.798   4.795  18.908  0.00  0.00    +0.000 C 
BRANCH  27  28
ATOM     28  C   UNL     1       4.740   5.791  18.439  0.00  0.00    +0.000 C 
BRANCH  28  29
ATOM     29  C   UNL     1       3.764   5.148  17.454  0.00  0.00    +0.000 C 
BRANCH  29  30
ATOM     30  C   UNL     1       2.328   5.274  17.955  0.00  0.00    +0.000 C 
BRANCH  30  31
ATOM     31  C   UNL     1       1.515   4.029  17.614  0.00  0.00    +0.000 C 
BRANCH  31  32
ATOM     32  C   UNL     1       1.037   3.332  18.883  0.00  0.00    +0.000 C 
BRANCH  32  33
ATOM     33  C   UNL     1       1.453   4.117  20.123  0.00  0.00    +0.000 C 
BRANCH  33  34
ATOM     34  C   UNL     1       1.292   3.266  21.380  0.00  0.00    +0.000 C 
BRANCH  34  36
ATOM     35  C   UNL     1       3.636   2.668  20.716  0.00  0.00    +0.000 C 
ATOM     36  C   UNL     1       2.401   2.225  21.483  0.00  0.00    +0.000 C 
ENDBRANCH  34  36
ENDBRANCH  33  34
ENDBRANCH  32  33
ENDBRANCH  31  32
ENDBRANCH  30  31
ENDBRANCH  29  30
ENDBRANCH  28  29
ENDBRANCH  27  28
ENDBRANCH  26  27
ENDBRANCH  25  26
ENDBRANCH   1  25
TORSDOF 14
ENDMDL
MODEL 7
REMARK VINA RESULT:      -6.8      2.653      4.123
REMARK  Name = 
REMARK  16 active torsions:
REMARK  status: ('A' for Active; 'I' for Inactive)
REMARK    1  A    between atoms: C_1  and  C_2
REMARK    2  A    between atoms: C_2  and  C_3
REMARK    3  A    between atoms: C_3  and  C_4
REMARK    4  A    between atoms: C_4  and  C_5
REMARK    5  A    between atoms: C_5  and  C_6
REMARK    6  A    between atoms: C_6  and  C_7
REMARK    7  A    between atoms: C_7  and  C_8
REMARK    8  A    between atoms: C_8  and  C_9
REMARK    9  A    between atoms: C_9  and  C_10
REMARK   10  A    between atoms: C_10  and  C_11
REMARK   11  A    between atoms: C_11  and  C_12
REMARK   12  A    between atoms: C_12  and  N_13
REMARK   13  A    between atoms: N_16  and  C_17
REMARK   14  A    between atoms: C_20  and  C_21
REMARK   15  A    between atoms: C_25  and  C_26
REMARK   16  A    between atoms: C_29  and  C_30
REMARK                            x       y       z     vdW  Elec       q    Type
REMARK                         _______ _______ _______ _____ _____    ______ ____
ROOT
ATOM      1  N   UNL     1       8.182   6.923  18.838  0.00  0.00    +0.000 N 
ATOM      2  C   UNL     1       8.252   8.262  18.474  0.00  0.00    +0.000 C 
ATOM      3  O   UNL     1       7.735   8.667  17.459  0.00  0.00    +0.000 OA
ATOM      4  N   UNL     1       9.034   9.006  19.345  0.00  0.00    +0.000 N 
ATOM      5  H   UNL     1       8.256   6.698  19.816  0.00  0.00    +0.000 HD
ATOM      6  H   UNL     1       9.638   8.476  19.945  0.00  0.00    +0.000 HD
ENDROOT
BRANCH   4   7
ATOM      7  C   UNL     1       9.292  10.386  19.165  0.00  0.00    +0.000 A 
ATOM      8  C   UNL     1       9.438  11.253  20.252  0.00  0.00    +0.000 A 
ATOM      9  C   UNL     1       9.725  12.609  20.069  0.00  0.00    +0.000 A 
ATOM     10  C   UNL     1       9.873  13.124  18.780  0.00  0.00    +0.000 A 
ATOM     11  C   UNL     1       9.727  12.250  17.692  0.00  0.00    +0.000 A 
ATOM     12  C   UNL     1       9.420  10.900  17.879  0.00  0.00    +0.000 A 
BRANCH  10  13
ATOM     13  C   UNL     1      10.189  14.535  18.540  0.00  0.00    +0.000 A 
ATOM     14  N   UNL     1      11.446  14.989  18.430  0.00  0.00    +0.000 NA
ATOM     15  O   UNL     1      11.331  16.335  18.116  0.00  0.00    +0.000 OA
ATOM     16  N   UNL     1      10.003  16.724  18.039  0.00  0.00    +0.000 NA
ATOM     17  C   UNL     1       9.292  15.630  18.338  0.00  0.00    +0.000 A 
BRANCH  17  18
ATOM     18  C   UNL     1       7.841  15.676  18.465  0.00  0.00    +0.000 A 
ATOM     19  C   UNL     1       7.222  16.526  19.384  0.00  0.00    +0.000 A 
ATOM     20  C   UNL     1       5.832  16.508  19.521  0.00  0.00    +0.000 A 
ATOM     21  C   UNL     1       5.043  15.668  18.722  0.00  0.00    +0.000 A 
ATOM     22  C   UNL     1       3.556  15.622  18.876  0.00  0.00    +0.000 C 
ATOM     23  C   UNL     1       5.662  14.844  17.783  0.00  0.00    +0.000 A 
ATOM     24  C   UNL     1       7.048  14.835  17.673  0.00  0.00    +0.000 A 
ENDBRANCH  17  18
ENDBRANCH  10  13
ENDBRANCH   4   7
BRANCH   1  25
ATOM     25  C   UNL     1       7.460   6.043  17.947  0.00  0.00    +0.000 C 
BRANCH  25  26
ATOM     26  C   UNL     1       5.991   5.874  18.315  0.00  0.00    +0.000 C 
BRANCH  26  27
ATOM     27  C   UNL     1       5.599   4.391  18.307  0.00  0.00    +0.000 C 
BRANCH  27  28
ATOM     28  C   UNL     1       4.946   3.994  16.986  0.00  0.00    +0.000 C 
BRANCH  28  29
ATOM     29  C   UNL     1       5.985   3.820  15.879  0.00  0.00    +0.000 C 
BRANCH  29  30
ATOM     30  C   UNL     1       5.556   4.555  14.612  0.00  0.00    +0.000 C 
BRANCH  30  31
ATOM     31  C   UNL     1       6.714   4.678  13.628  0.00  0.00    +0.000 C 
BRANCH  31  32
ATOM     32  C   UNL     1       6.655   3.569  12.583  0.00  0.00    +0.000 C 
BRANCH  32  33
ATOM     33  C   UNL     1       5.248   3.440  12.008  0.00  0.00    +0.000 C 
BRANCH  33  34
ATOM     34  C   UNL     1       5.072   2.098  11.303  0.00  0.00    +0.000 C 
BRANCH  34  36
ATOM     35  C   UNL     1       6.216  -0.134  11.303  0.00  0.00    +0.000 C 
ATOM     36  C   UNL     1       6.405   1.368  11.175  0.00  0.00    +0.000 C 
ENDBRANCH  34  36
ENDBRANCH  33  34
ENDBRANCH  32  33
ENDBRANCH  31  32
ENDBRANCH  30  31
ENDBRANCH  29  30
ENDBRANCH  28  29
ENDBRANCH  27  28
ENDBRANCH  26  27
ENDBRANCH  25  26
ENDBRANCH   1  25
TORSDOF 14
ENDMDL
MODEL 8
REMARK VINA RESULT:      -6.8      7.305      9.660
REMARK  Name = 
REMARK  16 active torsions:
REMARK  status: ('A' for Active; 'I' for Inactive)
REMARK    1  A    between atoms: C_1  and  C_2
REMARK    2  A    between atoms: C_2  and  C_3
REMARK    3  A    between atoms: C_3  and  C_4
REMARK    4  A    between atoms: C_4  and  C_5
REMARK    5  A    between atoms: C_5  and  C_6
REMARK    6  A    between atoms: C_6  and  C_7
REMARK    7  A    between atoms: C_7  and  C_8
REMARK    8  A    between atoms: C_8  and  C_9
REMARK    9  A    between atoms: C_9  and  C_10
REMARK   10  A    between atoms: C_10  and  C_11
REMARK   11  A    between atoms: C_11  and  C_12
REMARK   12  A    between atoms: C_12  and  N_13
REMARK   13  A    between atoms: N_16  and  C_17
REMARK   14  A    between atoms: C_20  and  C_21
REMARK   15  A    between atoms: C_25  and  C_26
REMARK   16  A    between atoms: C_29  and  C_30
REMARK                            x       y       z     vdW  Elec       q    Type
REMARK                         _______ _______ _______ _____ _____    ______ ____
ROOT
ATOM      1  N   UNL     1       1.829   7.383  20.969  0.00  0.00    +0.000 N 
ATOM      2  C   UNL     1       0.733   8.178  21.277  0.00  0.00    +0.000 C 
ATOM      3  O   UNL     1      -0.398   7.775  21.139  0.00  0.00    +0.000 OA
ATOM      4  N   UNL     1       1.102   9.460  21.658  0.00  0.00    +0.000 N 
ATOM      5  H   UNL     1       2.695   7.571  21.444  0.00  0.00    +0.000 HD
ATOM      6  H   UNL     1       2.039   9.729  21.422  0.00  0.00    +0.000 HD
ENDROOT
BRANCH   4   7
ATOM      7  C   UNL     1       0.164  10.470  21.982  0.00  0.00    +0.000 A 
ATOM      8  C   UNL     1      -0.767  10.304  23.012  0.00  0.00    +0.000 A 
ATOM      9  C   UNL     1      -1.669  11.317  23.349  0.00  0.00    +0.000 A 
ATOM     10  C   UNL     1      -1.654  12.526  22.652  0.00  0.00    +0.000 A 
ATOM     11  C   UNL     1      -0.719  12.689  21.619  0.00  0.00    +0.000 A 
ATOM     12  C   UNL     1       0.168  11.666  21.272  0.00  0.00    +0.000 A 
BRANCH  10  13
ATOM     13  C   UNL     1      -2.571  13.622  22.979  0.00  0.00    +0.000 A 
ATOM     14  N   UNL     1      -2.288  14.555  23.900  0.00  0.00    +0.000 NA
ATOM     15  O   UNL     1      -3.340  15.457  23.855  0.00  0.00    +0.000 OA
ATOM     16  N   UNL     1      -4.285  15.082  22.912  0.00  0.00    +0.000 NA
ATOM     17  C   UNL     1      -3.839  13.931  22.396  0.00  0.00    +0.000 A 
BRANCH  17  18
ATOM     18  C   UNL     1      -4.630  13.169  21.437  0.00  0.00    +0.000 A 
ATOM     19  C   UNL     1      -5.890  12.671  21.773  0.00  0.00    +0.000 A 
ATOM     20  C   UNL     1      -6.600  11.898  20.852  0.00  0.00    +0.000 A 
ATOM     21  C   UNL     1      -6.077  11.641  19.577  0.00  0.00    +0.000 A 
ATOM     22  C   UNL     1      -6.818  10.794  18.590  0.00  0.00    +0.000 C 
ATOM     23  C   UNL     1      -4.833  12.166  19.234  0.00  0.00    +0.000 A 
ATOM     24  C   UNL     1      -4.109  12.905  20.164  0.00  0.00    +0.000 A 
ENDBRANCH  17  18
ENDBRANCH  10  13
ENDBRANCH   4   7
BRANCH   1  25
ATOM     25  C   UNL     1       1.549   6.052  20.478  0.00  0.00    +0.000 C 
BRANCH  25  26
ATOM     26  C   UNL     1       2.503   4.992  21.015  0.00  0.00    +0.000 C 
BRANCH  26  27
ATOM     27  C   UNL     1       1.784   3.645  21.169  0.00  0.00    +0.000 C 
BRANCH  27  28
ATOM     28  C   UNL     1       1.862   2.822  19.886  0.00  0.00    +0.000 C 
BRANCH  28  29
ATOM     29  C   UNL     1       3.307   2.646  19.421  0.00  0.00    +0.000 C 
BRANCH  29  30
ATOM     30  C   UNL     1       3.370   2.454  17.909  0.00  0.00    +0.000 C 
BRANCH  30  31
ATOM     31  C   UNL     1       4.152   3.581  17.243  0.00  0.00    +0.000 C 
BRANCH  31  32
ATOM     32  C   UNL     1       3.477   4.926  17.490  0.00  0.00    +0.000 C 
BRANCH  32  33
ATOM     33  C   UNL     1       4.512   6.004  17.793  0.00  0.00    +0.000 C 
BRANCH  33  34
ATOM     34  C   UNL     1       5.548   6.089  16.676  0.00  0.00    +0.000 C 
BRANCH  34  36
ATOM     35  C   UNL     1       7.084   5.535  18.579  0.00  0.00    +0.000 C 
ATOM     36  C   UNL     1       6.955   6.245  17.243  0.00  0.00    +0.000 C 
ENDBRANCH  34  36
ENDBRANCH  33  34
ENDBRANCH  32  33
ENDBRANCH  31  32
ENDBRANCH  30  31
ENDBRANCH  29  30
ENDBRANCH  28  29
ENDBRANCH  27  28
ENDBRANCH  26  27
ENDBRANCH  25  26
ENDBRANCH   1  25
TORSDOF 14
ENDMDL
MODEL 9
REMARK VINA RESULT:      -6.7      6.203     11.311
REMARK  Name = 
REMARK  16 active torsions:
REMARK  status: ('A' for Active; 'I' for Inactive)
REMARK    1  A    between atoms: C_1  and  C_2
REMARK    2  A    between atoms: C_2  and  C_3
REMARK    3  A    between atoms: C_3  and  C_4
REMARK    4  A    between atoms: C_4  and  C_5
REMARK    5  A    between atoms: C_5  and  C_6
REMARK    6  A    between atoms: C_6  and  C_7
REMARK    7  A    between atoms: C_7  and  C_8
REMARK    8  A    between atoms: C_8  and  C_9
REMARK    9  A    between atoms: C_9  and  C_10
REMARK   10  A    between atoms: C_10  and  C_11
REMARK   11  A    between atoms: C_11  and  C_12
REMARK   12  A    between atoms: C_12  and  N_13
REMARK   13  A    between atoms: N_16  and  C_17
REMARK   14  A    between atoms: C_20  and  C_21
REMARK   15  A    between atoms: C_25  and  C_26
REMARK   16  A    between atoms: C_29  and  C_30
REMARK                            x       y       z     vdW  Elec       q    Type
REMARK                         _______ _______ _______ _____ _____    ______ ____
ROOT
ATOM      1  N   UNL     1       0.142  11.946  18.272  0.00  0.00    +0.000 N 
ATOM      2  C   UNL     1       0.188  10.624  18.695  0.00  0.00    +0.000 C 
ATOM      3  O   UNL     1      -0.786  10.075  19.155  0.00  0.00    +0.000 OA
ATOM      4  N   UNL     1       1.462  10.084  18.602  0.00  0.00    +0.000 N 
ATOM      5  H   UNL     1       0.796  12.236  17.565  0.00  0.00    +0.000 HD
ATOM      6  H   UNL     1       2.207  10.747  18.503  0.00  0.00    +0.000 HD
ENDROOT
BRANCH   4   7
ATOM      7  C   UNL     1       1.774   8.765  19.012  0.00  0.00    +0.000 A 
ATOM      8  C   UNL     1       1.599   8.347  20.335  0.00  0.00    +0.000 A 
ATOM      9  C   UNL     1       1.879   7.035  20.726  0.00  0.00    +0.000 A 
ATOM     10  C   UNL     1       2.342   6.109  19.790  0.00  0.00    +0.000 A 
ATOM     11  C   UNL     1       2.515   6.533  18.463  0.00  0.00    +0.000 A 
ATOM     12  C   UNL     1       2.254   7.851  18.080  0.00  0.00    +0.000 A 
BRANCH  10  13
ATOM     13  C   UNL     1       2.633   4.719  20.151  0.00  0.00    +0.000 A 
ATOM     14  N   UNL     1       2.040   4.096  21.180  0.00  0.00    +0.000 NA
ATOM     15  O   UNL     1       2.500   2.789  21.142  0.00  0.00    +0.000 OA
ATOM     16  N   UNL     1       3.388   2.596  20.094  0.00  0.00    +0.000 NA
ATOM     17  C   UNL     1       3.507   3.791  19.502  0.00  0.00    +0.000 A 
BRANCH  17  18
ATOM     18  C   UNL     1       4.449   4.010  18.413  0.00  0.00    +0.000 A 
ATOM     19  C   UNL     1       5.723   4.530  18.652  0.00  0.00    +0.000 A 
ATOM     20  C   UNL     1       6.584   4.781  17.582  0.00  0.00    +0.000 A 
ATOM     21  C   UNL     1       6.199   4.486  16.266  0.00  0.00    +0.000 A 
ATOM     22  C   UNL     1       7.103   4.772  15.109  0.00  0.00    +0.000 C 
ATOM     23  C   UNL     1       4.938   3.938  16.034  0.00  0.00    +0.000 A 
ATOM     24  C   UNL     1       4.067   3.723  17.097  0.00  0.00    +0.000 A 
ENDBRANCH  17  18
ENDBRANCH  10  13
ENDBRANCH   4   7
BRANCH   1  25
ATOM     25  C   UNL     1      -1.124  12.629  18.408  0.00  0.00    +0.000 C 
BRANCH  25  26
ATOM     26  C   UNL     1      -1.254  13.420  19.705  0.00  0.00    +0.000 C 
BRANCH  26  27
ATOM     27  C   UNL     1      -0.101  14.422  19.845  0.00  0.00    +0.000 C 
BRANCH  27  28
ATOM     28  C   UNL     1       0.975  13.904  20.796  0.00  0.00    +0.000 C 
BRANCH  28  29
ATOM     29  C   UNL     1       1.227  14.882  21.942  0.00  0.00    +0.000 C 
BRANCH  29  30
ATOM     30  C   UNL     1       0.226  16.034  21.901  0.00  0.00    +0.000 C 
BRANCH  30  31
ATOM     31  C   UNL     1      -0.662  16.035  23.140  0.00  0.00    +0.000 C 
BRANCH  31  32
ATOM     32  C   UNL     1      -2.131  16.160  22.751  0.00  0.00    +0.000 C 
BRANCH  32  33
ATOM     33  C   UNL     1      -2.833  14.808  22.839  0.00  0.00    +0.000 C 
BRANCH  33  34
ATOM     34  C   UNL     1      -1.962  13.794  23.576  0.00  0.00    +0.000 C 
BRANCH  34  36
ATOM     35  C   UNL     1      -1.052  11.565  22.877  0.00  0.00    +0.000 C 
ATOM     36  C   UNL     1      -2.309  12.369  23.159  0.00  0.00    +0.000 C 
ENDBRANCH  34  36
ENDBRANCH  33  34
ENDBRANCH  32  33
ENDBRANCH  31  32
ENDBRANCH  30  31
ENDBRANCH  29  30
ENDBRANCH  28  29
ENDBRANCH  27  28
ENDBRANCH  26  27
ENDBRANCH  25  26
ENDBRANCH   1  25
TORSDOF 14
ENDMDL
