MODEL 1
REMARK VINA RESULT:      -8.7      0.000      0.000
REMARK  Name = 
REMARK  8 active torsions:
REMARK  status: ('A' for Active; 'I' for Inactive)
REMARK    1  A    between atoms: C_1  and  N_2
REMARK    2  A    between atoms: C_4  and  C_5
REMARK    3  A    between atoms: C_9  and  C_10
REMARK    4  A    between atoms: N_12  and  C_13
REMARK    5  A    between atoms: C_13  and  C_14
REMARK    6  A    between atoms: N_18  and  C_19
REMARK    7  A    between atoms: CA_23  and  C_24
REMARK    8  A    between atoms: C_24  and  OXT_26
REMARK                            x       y       z     vdW  Elec       q    Type
REMARK                         _______ _______ _______ _____ _____    ______ ____
ROOT
ATOM      1  C   UNL     1       4.892   6.748  17.867  0.00  0.00    +0.000 C 
ATOM      2  C   UNL     1       3.694   7.584  17.372  0.00  0.00    +0.000 C 
ATOM      3  C   UNL     1       2.404   7.244  18.124  0.00  0.00    +0.000 C 
ATOM      4  C   UNL     1       2.116   5.741  18.120  0.00  0.00    +0.000 C 
ATOM      5  N   UNL     1       3.296   5.050  18.633  0.00  0.00    +0.000 N 
ATOM      6  C   UNL     1       4.533   5.255  17.875  0.00  0.00    +0.000 C 
ENDROOT
BRANCH   5   7
ATOM      7  C   UNL     1       3.229   4.103  19.637  0.00  0.00    +0.000 A 
ATOM      8  C   UNL     1       2.204   4.091  20.590  0.00  0.00    +0.000 A 
ATOM      9  C   UNL     1       2.185   3.115  21.580  0.00  0.00    +0.000 A 
ATOM     10  N   UNL     1       3.122   2.153  21.710  0.00  0.00    +0.000 NA
ATOM     11  CA  UNL     1       4.122   2.190  20.783  0.00  0.00    +0.000 A 
ATOM     12  C   UNL     1       4.210   3.116  19.754  0.00  0.00    +0.000 A 
BRANCH  11  13
ATOM     13  C   UNL     1       5.176   1.145  20.939  0.00  0.00    +0.000 C 
ATOM     14  O   UNL     1       5.854   0.973  21.935  0.00  0.00    +0.000 OA
BRANCH  13  15
ATOM     15  OXT UNL     1       5.276   0.406  19.807  0.00  0.00    +0.000 OA
ATOM     16  HXT UNL     1       4.395   0.003  19.623  0.00  0.00    +0.000 HD
ENDBRANCH  13  15
ENDBRANCH  11  13
ENDBRANCH   5   7
BRANCH   1  17
ATOM     17  C   UNL     1       6.138   6.966  16.996  0.00  0.00    +0.000 C 
BRANCH  17  20
ATOM     18  C   UNL     1       6.901   5.173  15.446  0.00  0.00    +0.000 C 
ATOM     19  O   UNL     1       7.736   4.751  16.241  0.00  0.00    +0.000 OA
ATOM     20  N   UNL     1       6.081   6.244  15.742  0.00  0.00    +0.000 N 
ATOM     21  H   UNL     1       5.449   6.589  15.036  0.00  0.00    +0.000 HD
BRANCH  18  27
ATOM     22  C   UNL     1       8.637   5.720  12.936  0.00  0.00    +0.000 C 
ATOM     23  N   UNL     1       7.478   4.858  13.022  0.00  0.00    +0.000 N 
ATOM     24  N   UNL     1       7.069   4.220  11.903  0.00  0.00    +0.000 NA
ATOM     25  C   UNL     1       5.987   3.529  12.289  0.00  0.00    +0.000 A 
ATOM     26  C   UNL     1       5.723   3.733  13.663  0.00  0.00    +0.000 A 
ATOM     27  C   UNL     1       6.692   4.607  14.126  0.00  0.00    +0.000 A 
BRANCH  25  28
ATOM     28  C   UNL     1       5.197   2.679  11.347  0.00  0.00    +0.000 C 
ATOM     29  F   UNL     1       5.480   1.357  11.529  0.00  0.00    +0.000 F 
ATOM     30  F   UNL     1       3.860   2.803  11.590  0.00  0.00    +0.000 F 
ENDBRANCH  25  28
ENDBRANCH  18  27
ENDBRANCH  17  20
ENDBRANCH   1  17
TORSDOF 7
ENDMDL
MODEL 2
REMARK VINA RESULT:      -8.1      3.719      5.564
REMARK  Name = 
REMARK  8 active torsions:
REMARK  status: ('A' for Active; 'I' for Inactive)
REMARK    1  A    between atoms: C_1  and  N_2
REMARK    2  A    between atoms: C_4  and  C_5
REMARK    3  A    between atoms: C_9  and  C_10
REMARK    4  A    between atoms: N_12  and  C_13
REMARK    5  A    between atoms: C_13  and  C_14
REMARK    6  A    between atoms: N_18  and  C_19
REMARK    7  A    between atoms: CA_23  and  C_24
REMARK    8  A    between atoms: C_24  and  OXT_26
REMARK                            x       y       z     vdW  Elec       q    Type
REMARK                         _______ _______ _______ _____ _____    ______ ____
ROOT
ATOM      1  C   UNL     1       3.341   3.921  19.279  0.00  0.00    +0.000 C 
ATOM      2  C   UNL     1       2.385   3.184  20.239  0.00  0.00    +0.000 C 
ATOM      3  C   UNL     1       1.124   4.000  20.536  0.00  0.00    +0.000 C 
ATOM      4  C   UNL     1       1.456   5.418  21.008  0.00  0.00    +0.000 C 
ATOM      5  N   UNL     1       2.335   6.034  20.018  0.00  0.00    +0.000 N 
ATOM      6  C   UNL     1       3.608   5.347  19.784  0.00  0.00    +0.000 C 
ENDROOT
BRANCH   5   7
ATOM      7  C   UNL     1       2.095   7.283  19.480  0.00  0.00    +0.000 A 
ATOM      8  C   UNL     1       2.475   7.624  18.177  0.00  0.00    +0.000 A 
ATOM      9  C   UNL     1       2.208   8.897  17.685  0.00  0.00    +0.000 A 
ATOM     10  N   UNL     1       1.606   9.871  18.397  0.00  0.00    +0.000 NA
ATOM     11  CA  UNL     1       1.259   9.527  19.670  0.00  0.00    +0.000 A 
ATOM     12  C   UNL     1       1.472   8.278  20.236  0.00  0.00    +0.000 A 
BRANCH  11  13
ATOM     13  C   UNL     1       0.618  10.610  20.472  0.00  0.00    +0.000 C 
ATOM     14  O   UNL     1       1.041  11.049  21.526  0.00  0.00    +0.000 OA
BRANCH  13  15
ATOM     15  OXT UNL     1      -0.511  11.043  19.860  0.00  0.00    +0.000 OA
ATOM     16  HXT UNL     1      -1.131  10.280  19.780  0.00  0.00    +0.000 HD
ENDBRANCH  13  15
ENDBRANCH  11  13
ENDBRANCH   5   7
BRANCH   1  17
ATOM     17  C   UNL     1       4.676   3.179  19.123  0.00  0.00    +0.000 C 
BRANCH  17  20
ATOM     18  C   UNL     1       4.922   3.921  16.760  0.00  0.00    +0.000 C 
ATOM     19  O   UNL     1       3.727   3.777  16.521  0.00  0.00    +0.000 OA
ATOM     20  N   UNL     1       5.460   3.657  18.004  0.00  0.00    +0.000 N 
ATOM     21  H   UNL     1       6.456   3.738  18.136  0.00  0.00    +0.000 HD
BRANCH  18  27
ATOM     22  C   UNL     1       7.066   6.119  17.189  0.00  0.00    +0.000 C 
ATOM     23  N   UNL     1       6.838   5.348  15.986  0.00  0.00    +0.000 N 
ATOM     24  N   UNL     1       7.614   5.598  14.906  0.00  0.00    +0.000 NA
ATOM     25  C   UNL     1       7.159   4.758  13.966  0.00  0.00    +0.000 A 
ATOM     26  C   UNL     1       6.095   3.972  14.465  0.00  0.00    +0.000 A 
ATOM     27  C   UNL     1       5.888   4.373  15.775  0.00  0.00    +0.000 A 
BRANCH  25  28
ATOM     28  C   UNL     1       7.732   4.708  12.587  0.00  0.00    +0.000 C 
ATOM     29  F   UNL     1       6.816   4.235  11.694  0.00  0.00    +0.000 F 
ATOM     30  F   UNL     1       8.053   5.961  12.151  0.00  0.00    +0.000 F 
ENDBRANCH  25  28
ENDBRANCH  18  27
ENDBRANCH  17  20
ENDBRANCH   1  17
TORSDOF 7
ENDMDL
MODEL 3
REMARK VINA RESULT:      -8.0      4.871      8.271
REMARK  Name = 
REMARK  8 active torsions:
REMARK  status: ('A' for Active; 'I' for Inactive)
REMARK    1  A    between atoms: C_1  and  N_2
REMARK    2  A    between atoms: C_4  and  C_5
REMARK    3  A    between atoms: C_9  and  C_10
REMARK    4  A    between atoms: N_12  and  C_13
REMARK    5  A    between atoms: C_13  and  C_14
REMARK    6  A    between atoms: N_18  and  C_19
REMARK    7  A    between atoms: CA_23  and  C_24
REMARK    8  A    between atoms: C_24  and  OXT_26
REMARK                            x       y       z     vdW  Elec       q    Type
REMARK                         _______ _______ _______ _____ _____    ______ ____
ROOT
ATOM      1  C   UNL     1       2.451   4.808  20.096  0.00  0.00    +0.000 C 
ATOM      2  C   UNL     1       1.371   3.831  19.587  0.00  0.00    +0.000 C 
ATOM      3  C   UNL     1       1.908   2.892  18.503  0.00  0.00    +0.000 C 
ATOM      4  C   UNL     1       2.592   3.658  17.368  0.00  0.00    +0.000 C 
ATOM      5  N   UNL     1       3.612   4.525  17.952  0.00  0.00    +0.000 N 
ATOM      6  C   UNL     1       3.126   5.520  18.913  0.00  0.00    +0.000 C 
ENDROOT
BRANCH   5   7
ATOM      7  C   UNL     1       4.915   4.561  17.495  0.00  0.00    +0.000 A 
ATOM      8  C   UNL     1       6.012   4.636  18.360  0.00  0.00    +0.000 A 
ATOM      9  C   UNL     1       7.303   4.668  17.846  0.00  0.00    +0.000 A 
ATOM     10  N   UNL     1       7.592   4.651  16.528  0.00  0.00    +0.000 NA
ATOM     11  CA  UNL     1       6.511   4.595  15.700  0.00  0.00    +0.000 A 
ATOM     12  C   UNL     1       5.191   4.542  16.126  0.00  0.00    +0.000 A 
BRANCH  11  13
ATOM     13  C   UNL     1       6.823   4.603  14.241  0.00  0.00    +0.000 C 
ATOM     14  O   UNL     1       6.268   3.921  13.398  0.00  0.00    +0.000 OA
BRANCH  13  15
ATOM     15  OXT UNL     1       7.820   5.483  13.978  0.00  0.00    +0.000 OA
ATOM     16  HXT UNL     1       7.598   6.339  14.412  0.00  0.00    +0.000 HD
ENDBRANCH  13  15
ENDBRANCH  11  13
ENDBRANCH   5   7
BRANCH   1  17
ATOM     17  C   UNL     1       1.865   5.858  21.052  0.00  0.00    +0.000 C 
BRANCH  17  20
ATOM     18  C   UNL     1       1.280   8.273  20.902  0.00  0.00    +0.000 C 
ATOM     19  O   UNL     1       1.731   8.519  22.017  0.00  0.00    +0.000 OA
ATOM     20  N   UNL     1       1.314   7.004  20.360  0.00  0.00    +0.000 N 
ATOM     21  H   UNL     1       0.882   6.841  19.464  0.00  0.00    +0.000 HD
BRANCH  18  27
ATOM     22  C   UNL     1       2.177   9.007  18.027  0.00  0.00    +0.000 C 
ATOM     23  N   UNL     1       1.075   9.581  18.769  0.00  0.00    +0.000 N 
ATOM     24  N   UNL     1       0.346  10.558  18.183  0.00  0.00    +0.000 NA
ATOM     25  C   UNL     1      -0.568  10.893  19.104  0.00  0.00    +0.000 A 
ATOM     26  C   UNL     1      -0.412  10.112  20.273  0.00  0.00    +0.000 A 
ATOM     27  C   UNL     1       0.665   9.272  20.048  0.00  0.00    +0.000 A 
BRANCH  25  28
ATOM     28  C   UNL     1      -1.587  11.962  18.876  0.00  0.00    +0.000 C 
ATOM     29  F   UNL     1      -1.302  12.675  17.749  0.00  0.00    +0.000 F 
ATOM     30  F   UNL     1      -2.819  11.416  18.661  0.00  0.00    +0.000 F 
ENDBRANCH  25  28
ENDBRANCH  18  27
ENDBRANCH  17  20
ENDBRANCH   1  17
TORSDOF 7
ENDMDL
MODEL 4
REMARK VINA RESULT:      -7.8      6.086      9.465
REMARK  Name = 
REMARK  8 active torsions:
REMARK  status: ('A' for Active; 'I' for Inactive)
REMARK    1  A    between atoms: C_1  and  N_2
REMARK    2  A    between atoms: C_4  and  C_5
REMARK    3  A    between atoms: C_9  and  C_10
REMARK    4  A    between atoms: N_12  and  C_13
REMARK    5  A    between atoms: C_13  and  C_14
REMARK    6  A    between atoms: N_18  and  C_19
REMARK    7  A    between atoms: CA_23  and  C_24
REMARK    8  A    between atoms: C_24  and  OXT_26
REMARK                            x       y       z     vdW  Elec       q    Type
REMARK                         _______ _______ _______ _____ _____    ______ ____
ROOT
ATOM      1  C   UNL     1       2.865   7.848  18.382  0.00  0.00    +0.000 C 
ATOM      2  C   UNL     1       2.085   7.167  19.526  0.00  0.00    +0.000 C 
ATOM      3  C   UNL     1       2.851   5.981  20.119  0.00  0.00    +0.000 C 
ATOM      4  C   UNL     1       3.300   4.991  19.041  0.00  0.00    +0.000 C 
ATOM      5  N   UNL     1       4.052   5.730  18.029  0.00  0.00    +0.000 N 
ATOM      6  C   UNL     1       3.320   6.803  17.352  0.00  0.00    +0.000 C 
ENDROOT
BRANCH   5   7
ATOM      7  C   UNL     1       5.295   5.329  17.582  0.00  0.00    +0.000 A 
ATOM      8  C   UNL     1       6.353   5.050  18.456  0.00  0.00    +0.000 A 
ATOM      9  C   UNL     1       7.585   4.650  17.951  0.00  0.00    +0.000 A 
ATOM     10  N   UNL     1       7.858   4.521  16.636  0.00  0.00    +0.000 NA
ATOM     11  CA  UNL     1       6.821   4.813  15.800  0.00  0.00    +0.000 A 
ATOM     12  C   UNL     1       5.556   5.203  16.216  0.00  0.00    +0.000 A 
BRANCH  11  13
ATOM     13  C   UNL     1       7.125   4.700  14.343  0.00  0.00    +0.000 C 
ATOM     14  O   UNL     1       7.847   5.452  13.714  0.00  0.00    +0.000 OA
BRANCH  13  15
ATOM     15  OXT UNL     1       6.481   3.633  13.810  0.00  0.00    +0.000 OA
ATOM     16  HXT UNL     1       7.009   2.824  14.005  0.00  0.00    +0.000 HD
ENDBRANCH  13  15
ENDBRANCH  11  13
ENDBRANCH   5   7
BRANCH   1  17
ATOM     17  C   UNL     1       2.022   8.922  17.678  0.00  0.00    +0.000 C 
BRANCH  17  20
ATOM     18  C   UNL     1       1.086  10.860  18.930  0.00  0.00    +0.000 C 
ATOM     19  O   UNL     1       1.962  11.622  18.534  0.00  0.00    +0.000 OA
ATOM     20  N   UNL     1       1.043   9.532  18.553  0.00  0.00    +0.000 N 
ATOM     21  H   UNL     1       0.336   8.932  18.948  0.00  0.00    +0.000 HD
BRANCH  18  27
ATOM     22  C   UNL     1      -1.637  12.081  18.090  0.00  0.00    +0.000 C 
ATOM     23  N   UNL     1      -1.187  11.797  19.436  0.00  0.00    +0.000 N 
ATOM     24  N   UNL     1      -2.011  12.100  20.465  0.00  0.00    +0.000 NA
ATOM     25  C   UNL     1      -1.323  11.747  21.560  0.00  0.00    +0.000 A 
ATOM     26  C   UNL     1      -0.062  11.212  21.211  0.00  0.00    +0.000 A 
ATOM     27  C   UNL     1       0.019  11.260  19.829  0.00  0.00    +0.000 A 
BRANCH  25  28
ATOM     28  C   UNL     1      -1.863  11.925  22.942  0.00  0.00    +0.000 C 
ATOM     29  F   UNL     1      -3.175  12.296  22.909  0.00  0.00    +0.000 F 
ATOM     30  F   UNL     1      -1.834  10.746  23.628  0.00  0.00    +0.000 F 
ENDBRANCH  25  28
ENDBRANCH  18  27
ENDBRANCH  17  20
ENDBRANCH   1  17
TORSDOF 7
ENDMDL
MODEL 5
REMARK VINA RESULT:      -7.8      5.959      8.516
REMARK  Name = 
REMARK  8 active torsions:
REMARK  status: ('A' for Active; 'I' for Inactive)
REMARK    1  A    between atoms: C_1  and  N_2
REMARK    2  A    between atoms: C_4  and  C_5
REMARK    3  A    between atoms: C_9  and  C_10
REMARK    4  A    between atoms: N_12  and  C_13
REMARK    5  A    between atoms: C_13  and  C_14
REMARK    6  A    between atoms: N_18  and  C_19
REMARK    7  A    between atoms: CA_23  and  C_24
REMARK    8  A    between atoms: C_24  and  OXT_26
REMARK                            x       y       z     vdW  Elec       q    Type
REMARK                         _______ _______ _______ _____ _____    ______ ____
ROOT
ATOM      1  C   UNL     1       0.960   8.936  18.636  0.00  0.00    +0.000 C 
ATOM      2  C   UNL     1       1.080   9.191  20.153  0.00  0.00    +0.000 C 
ATOM      3  C   UNL     1      -0.234   9.691  20.759  0.00  0.00    +0.000 C 
ATOM      4  C   UNL     1      -0.794  10.897  20.000  0.00  0.00    +0.000 C 
ATOM      5  N   UNL     1      -0.896  10.540  18.588  0.00  0.00    +0.000 N 
ATOM      6  C   UNL     1       0.361  10.164  17.935  0.00  0.00    +0.000 C 
ENDROOT
BRANCH   5   7
ATOM      7  C   UNL     1      -2.048  10.733  17.850  0.00  0.00    +0.000 A 
ATOM      8  C   UNL     1      -3.195  11.323  18.391  0.00  0.00    +0.000 A 
ATOM      9  C   UNL     1      -4.328  11.495  17.602  0.00  0.00    +0.000 A 
ATOM     10  N   UNL     1      -4.417  11.105  16.314  0.00  0.00    +0.000 NA
ATOM     11  CA  UNL     1      -3.296  10.516  15.809  0.00  0.00    +0.000 A 
ATOM     12  C   UNL     1      -2.119  10.321  16.518  0.00  0.00    +0.000 A 
BRANCH  11  13
ATOM     13  C   UNL     1      -3.398  10.058  14.392  0.00  0.00    +0.000 C 
ATOM     14  O   UNL     1      -2.456   9.869  13.644  0.00  0.00    +0.000 OA
BRANCH  13  15
ATOM     15  OXT UNL     1      -4.697   9.880  14.048  0.00  0.00    +0.000 OA
ATOM     16  HXT UNL     1      -4.923   8.929  14.178  0.00  0.00    +0.000 HD
ENDBRANCH  13  15
ENDBRANCH  11  13
ENDBRANCH   5   7
BRANCH   1  17
ATOM     17  C   UNL     1       2.320   8.604  18.005  0.00  0.00    +0.000 C 
BRANCH  17  20
ATOM     18  C   UNL     1       3.838   6.648  17.748  0.00  0.00    +0.000 C 
ATOM     19  O   UNL     1       4.374   7.112  16.746  0.00  0.00    +0.000 OA
ATOM     20  N   UNL     1       2.835   7.317  18.421  0.00  0.00    +0.000 N 
ATOM     21  H   UNL     1       2.388   6.871  19.206  0.00  0.00    +0.000 HD
BRANCH  18  27
ATOM     22  C   UNL     1       6.633   5.836  18.815  0.00  0.00    +0.000 C 
ATOM     23  N   UNL     1       5.437   5.021  18.797  0.00  0.00    +0.000 N 
ATOM     24  N   UNL     1       5.514   3.758  19.275  0.00  0.00    +0.000 NA
ATOM     25  C   UNL     1       4.279   3.263  19.110  0.00  0.00    +0.000 A 
ATOM     26  C   UNL     1       3.423   4.228  18.532  0.00  0.00    +0.000 A 
ATOM     27  C   UNL     1       4.189   5.362  18.323  0.00  0.00    +0.000 A 
BRANCH  25  28
ATOM     28  C   UNL     1       3.914   1.866  19.497  0.00  0.00    +0.000 C 
ATOM     29  F   UNL     1       3.576   1.129  18.400  0.00  0.00    +0.000 F 
ATOM     30  F   UNL     1       4.983   1.224  20.053  0.00  0.00    +0.000 F 
ENDBRANCH  25  28
ENDBRANCH  18  27
ENDBRANCH  17  20
ENDBRANCH   1  17
TORSDOF 7
ENDMDL
MODEL 6
REMARK VINA RESULT:      -7.8      5.124      8.475
REMARK  Name = 
REMARK  8 active torsions:
REMARK  status: ('A' for Active; 'I' for Inactive)
REMARK    1  A    between atoms: C_1  and  N_2
REMARK    2  A    between atoms: C_4  and  C_5
REMARK    3  A    between atoms: C_9  and  C_10
REMARK    4  A    between atoms: N_12  and  C_13
REMARK    5  A    between atoms: C_13  and  C_14
REMARK    6  A    between atoms: N_18  and  C_19
REMARK    7  A    between atoms: CA_23  and  C_24
REMARK    8  A    between atoms: C_24  and  OXT_26
REMARK                            x       y       z     vdW  Elec       q    Type
REMARK                         _______ _______ _______ _____ _____    ______ ____
ROOT
ATOM      1  C   UNL     1       2.243   5.247  20.142  0.00  0.00    +0.000 C 
ATOM      2  C   UNL     1       1.219   4.174  19.718  0.00  0.00    +0.000 C 
ATOM      3  C   UNL     1       1.772   3.249  18.630  0.00  0.00    +0.000 C 
ATOM      4  C   UNL     1       2.333   4.033  17.441  0.00  0.00    +0.000 C 
ATOM      5  N   UNL     1       3.309   4.994  17.947  0.00  0.00    +0.000 N 
ATOM      6  C   UNL     1       2.796   5.974  18.908  0.00  0.00    +0.000 C 
ENDROOT
BRANCH   5   7
ATOM      7  C   UNL     1       4.579   5.118  17.419  0.00  0.00    +0.000 A 
ATOM      8  C   UNL     1       5.076   4.243  16.446  0.00  0.00    +0.000 A 
ATOM      9  C   UNL     1       6.363   4.414  15.948  0.00  0.00    +0.000 A 
ATOM     10  N   UNL     1       7.208   5.382  16.356  0.00  0.00    +0.000 NA
ATOM     11  CA  UNL     1       6.714   6.214  17.316  0.00  0.00    +0.000 A 
ATOM     12  C   UNL     1       5.439   6.127  17.857  0.00  0.00    +0.000 A 
BRANCH  11  13
ATOM     13  C   UNL     1       7.655   7.270  17.792  0.00  0.00    +0.000 C 
ATOM     14  O   UNL     1       7.831   8.349  17.257  0.00  0.00    +0.000 OA
BRANCH  13  15
ATOM     15  OXT UNL     1       8.295   6.859  18.914  0.00  0.00    +0.000 OA
ATOM     16  HXT UNL     1       7.953   5.966  19.155  0.00  0.00    +0.000 HD
ENDBRANCH  13  15
ENDBRANCH  11  13
ENDBRANCH   5   7
BRANCH   1  17
ATOM     17  C   UNL     1       1.626   6.275  21.103  0.00  0.00    +0.000 C 
BRANCH  17  20
ATOM     18  C   UNL     1       0.729   8.578  20.806  0.00  0.00    +0.000 C 
ATOM     19  O   UNL     1      -0.297   8.330  21.433  0.00  0.00    +0.000 OA
ATOM     20  N   UNL     1       1.715   7.632  20.607  0.00  0.00    +0.000 N 
ATOM     21  H   UNL     1       2.514   7.867  20.039  0.00  0.00    +0.000 HD
BRANCH  18  27
ATOM     22  C   UNL     1       1.424   9.092  17.828  0.00  0.00    +0.000 C 
ATOM     23  N   UNL     1       1.313  10.080  18.880  0.00  0.00    +0.000 N 
ATOM     24  N   UNL     1       1.548  11.375  18.571  0.00  0.00    +0.000 NA
ATOM     25  C   UNL     1       1.390  12.029  19.729  0.00  0.00    +0.000 A 
ATOM     26  C   UNL     1       1.047  11.136  20.769  0.00  0.00    +0.000 A 
ATOM     27  C   UNL     1       1.011   9.870  20.208  0.00  0.00    +0.000 A 
BRANCH  25  28
ATOM     28  C   UNL     1       1.574  13.508  19.850  0.00  0.00    +0.000 C 
ATOM     29  F   UNL     1       2.854  13.867  19.548  0.00  0.00    +0.000 F 
ATOM     30  F   UNL     1       0.787  14.167  18.950  0.00  0.00    +0.000 F 
ENDBRANCH  25  28
ENDBRANCH  18  27
ENDBRANCH  17  20
ENDBRANCH   1  17
TORSDOF 7
ENDMDL
MODEL 7
REMARK VINA RESULT:      -7.7      6.205      9.564
REMARK  Name = 
REMARK  8 active torsions:
REMARK  status: ('A' for Active; 'I' for Inactive)
REMARK    1  A    between atoms: C_1  and  N_2
REMARK    2  A    between atoms: C_4  and  C_5
REMARK    3  A    between atoms: C_9  and  C_10
REMARK    4  A    between atoms: N_12  and  C_13
REMARK    5  A    between atoms: C_13  and  C_14
REMARK    6  A    between atoms: N_18  and  C_19
REMARK    7  A    between atoms: CA_23  and  C_24
REMARK    8  A    between atoms: C_24  and  OXT_26
REMARK                            x       y       z     vdW  Elec       q    Type
REMARK                         _______ _______ _______ _____ _____    ______ ____
ROOT
ATOM      1  C   UNL     1       2.837   7.726  18.416  0.00  0.00    +0.000 C 
ATOM      2  C   UNL     1       2.092   6.999  19.555  0.00  0.00    +0.000 C 
ATOM      3  C   UNL     1       2.885   5.803  20.089  0.00  0.00    +0.000 C 
ATOM      4  C   UNL     1       3.318   4.855  18.969  0.00  0.00    +0.000 C 
ATOM      5  N   UNL     1       4.037   5.634  17.964  0.00  0.00    +0.000 N 
ATOM      6  C   UNL     1       3.277   6.721  17.341  0.00  0.00    +0.000 C 
ENDROOT
BRANCH   5   7
ATOM      7  C   UNL     1       5.274   5.263  17.474  0.00  0.00    +0.000 A 
ATOM      8  C   UNL     1       6.358   4.978  18.312  0.00  0.00    +0.000 A 
ATOM      9  C   UNL     1       7.582   4.608  17.765  0.00  0.00    +0.000 A 
ATOM     10  N   UNL     1       7.821   4.517  16.441  0.00  0.00    +0.000 NA
ATOM     11  CA  UNL     1       6.759   4.815  15.640  0.00  0.00    +0.000 A 
ATOM     12  C   UNL     1       5.500   5.176  16.099  0.00  0.00    +0.000 A 
BRANCH  11  13
ATOM     13  C   UNL     1       7.025   4.743  14.173  0.00  0.00    +0.000 C 
ATOM     14  O   UNL     1       6.469   3.991  13.394  0.00  0.00    +0.000 OA
BRANCH  13  15
ATOM     15  OXT UNL     1       7.980   5.639  13.824  0.00  0.00    +0.000 OA
ATOM     16  HXT UNL     1       8.584   5.762  14.593  0.00  0.00    +0.000 HD
ENDBRANCH  13  15
ENDBRANCH  11  13
ENDBRANCH   5   7
BRANCH   1  17
ATOM     17  C   UNL     1       1.965   8.812  17.768  0.00  0.00    +0.000 C 
BRANCH  17  20
ATOM     18  C   UNL     1       0.055  10.168  18.613  0.00  0.00    +0.000 C 
ATOM     19  O   UNL     1      -0.663   9.868  17.664  0.00  0.00    +0.000 OA
ATOM     20  N   UNL     1       1.344   9.689  18.738  0.00  0.00    +0.000 N 
ATOM     21  H   UNL     1       1.915  10.007  19.507  0.00  0.00    +0.000 HD
BRANCH  18  27
ATOM     22  C   UNL     1      -0.300  13.241  18.412  0.00  0.00    +0.000 C 
ATOM     23  N   UNL     1      -0.520  12.413  19.579  0.00  0.00    +0.000 N 
ATOM     24  N   UNL     1      -0.906  13.013  20.728  0.00  0.00    +0.000 NA
ATOM     25  C   UNL     1      -1.006  12.010  21.611  0.00  0.00    +0.000 A 
ATOM     26  C   UNL     1      -0.688  10.773  21.006  0.00  0.00    +0.000 A 
ATOM     27  C   UNL     1      -0.362  11.049  19.688  0.00  0.00    +0.000 A 
BRANCH  25  28
ATOM     28  C   UNL     1      -1.400  12.229  23.036  0.00  0.00    +0.000 C 
ATOM     29  F   UNL     1      -2.282  13.264  23.145  0.00  0.00    +0.000 F 
ATOM     30  F   UNL     1      -2.054  11.138  23.530  0.00  0.00    +0.000 F 
ENDBRANCH  25  28
ENDBRANCH  18  27
ENDBRANCH  17  20
ENDBRANCH   1  17
TORSDOF 7
ENDMDL
MODEL 8
REMARK VINA RESULT:      -7.7      4.938      8.332
REMARK  Name = 
REMARK  8 active torsions:
REMARK  status: ('A' for Active; 'I' for Inactive)
REMARK    1  A    between atoms: C_1  and  N_2
REMARK    2  A    between atoms: C_4  and  C_5
REMARK    3  A    between atoms: C_9  and  C_10
REMARK    4  A    between atoms: N_12  and  C_13
REMARK    5  A    between atoms: C_13  and  C_14
REMARK    6  A    between atoms: N_18  and  C_19
REMARK    7  A    between atoms: CA_23  and  C_24
REMARK    8  A    between atoms: C_24  and  OXT_26
REMARK                            x       y       z     vdW  Elec       q    Type
REMARK                         _______ _______ _______ _____ _____    ______ ____
ROOT
ATOM      1  C   UNL     1       2.304   5.004  20.072  0.00  0.00    +0.000 C 
ATOM      2  C   UNL     1       1.319   3.895  19.649  0.00  0.00    +0.000 C 
ATOM      3  C   UNL     1       1.909   2.980  18.571  0.00  0.00    +0.000 C 
ATOM      4  C   UNL     1       2.452   3.774  17.380  0.00  0.00    +0.000 C 
ATOM      5  N   UNL     1       3.393   4.769  17.886  0.00  0.00    +0.000 N 
ATOM      6  C   UNL     1       2.841   5.740  18.835  0.00  0.00    +0.000 C 
ENDROOT
BRANCH   5   7
ATOM      7  C   UNL     1       4.662   4.931  17.365  0.00  0.00    +0.000 A 
ATOM      8  C   UNL     1       5.189   4.073  16.393  0.00  0.00    +0.000 A 
ATOM      9  C   UNL     1       6.473   4.282  15.903  0.00  0.00    +0.000 A 
ATOM     10  N   UNL     1       7.288   5.273  16.318  0.00  0.00    +0.000 NA
ATOM     11  CA  UNL     1       6.765   6.089  17.277  0.00  0.00    +0.000 A 
ATOM     12  C   UNL     1       5.490   5.964  17.810  0.00  0.00    +0.000 A 
BRANCH  11  13
ATOM     13  C   UNL     1       7.672   7.170  17.761  0.00  0.00    +0.000 C 
ATOM     14  O   UNL     1       7.864   8.232  17.197  0.00  0.00    +0.000 OA
BRANCH  13  15
ATOM     15  OXT UNL     1       8.260   6.805  18.926  0.00  0.00    +0.000 OA
ATOM     16  HXT UNL     1       7.607   6.286  19.451  0.00  0.00    +0.000 HD
ENDBRANCH  13  15
ENDBRANCH  11  13
ENDBRANCH   5   7
BRANCH   1  17
ATOM     17  C   UNL     1       1.646   6.018  21.020  0.00  0.00    +0.000 C 
BRANCH  17  20
ATOM     18  C   UNL     1       1.194   8.464  20.909  0.00  0.00    +0.000 C 
ATOM     19  O   UNL     1       1.620   8.660  22.043  0.00  0.00    +0.000 OA
ATOM     20  N   UNL     1       1.180   7.207  20.338  0.00  0.00    +0.000 N 
ATOM     21  H   UNL     1       0.771   7.086  19.424  0.00  0.00    +0.000 HD
BRANCH  18  27
ATOM     22  C   UNL     1       2.160   9.146  18.043  0.00  0.00    +0.000 C 
ATOM     23  N   UNL     1       1.102   9.798  18.783  0.00  0.00    +0.000 N 
ATOM     24  N   UNL     1       0.453  10.831  18.200  0.00  0.00    +0.000 NA
ATOM     25  C   UNL     1      -0.437  11.228  19.120  0.00  0.00    +0.000 A 
ATOM     26  C   UNL     1      -0.349  10.431  20.284  0.00  0.00    +0.000 A 
ATOM     27  C   UNL     1       0.663   9.512  20.058  0.00  0.00    +0.000 A 
BRANCH  25  28
ATOM     28  C   UNL     1      -1.370  12.374  18.894  0.00  0.00    +0.000 C 
ATOM     29  F   UNL     1      -0.871  13.233  17.960  0.00  0.00    +0.000 F 
ATOM     30  F   UNL     1      -2.560  11.936  18.388  0.00  0.00    +0.000 F 
ENDBRANCH  25  28
ENDBRANCH  18  27
ENDBRANCH  17  20
ENDBRANCH   1  17
TORSDOF 7
ENDMDL
MODEL 9
REMARK VINA RESULT:      -7.7      6.041      9.407
REMARK  Name = 
REMARK  8 active torsions:
REMARK  status: ('A' for Active; 'I' for Inactive)
REMARK    1  A    between atoms: C_1  and  N_2
REMARK    2  A    between atoms: C_4  and  C_5
REMARK    3  A    between atoms: C_9  and  C_10
REMARK    4  A    between atoms: N_12  and  C_13
REMARK    5  A    between atoms: C_13  and  C_14
REMARK    6  A    between atoms: N_18  and  C_19
REMARK    7  A    between atoms: CA_23  and  C_24
REMARK    8  A    between atoms: C_24  and  OXT_26
REMARK                            x       y       z     vdW  Elec       q    Type
REMARK                         _______ _______ _______ _____ _____    ______ ____
ROOT
ATOM      1  C   UNL     1       2.736   7.406  18.740  0.00  0.00    +0.000 C 
ATOM      2  C   UNL     1       2.002   6.573  19.811  0.00  0.00    +0.000 C 
ATOM      3  C   UNL     1       2.833   5.374  20.278  0.00  0.00    +0.000 C 
ATOM      4  C   UNL     1       3.324   4.524  19.104  0.00  0.00    +0.000 C 
ATOM      5  N   UNL     1       4.028   5.400  18.171  0.00  0.00    +0.000 N 
ATOM      6  C   UNL     1       3.236   6.497  17.608  0.00  0.00    +0.000 C 
ENDROOT
BRANCH   5   7
ATOM      7  C   UNL     1       5.288   5.113  17.682  0.00  0.00    +0.000 A 
ATOM      8  C   UNL     1       6.393   4.929  18.519  0.00  0.00    +0.000 A 
ATOM      9  C   UNL     1       7.640   4.641  17.973  0.00  0.00    +0.000 A 
ATOM     10  N   UNL     1       7.880   4.539  16.650  0.00  0.00    +0.000 NA
ATOM     11  CA  UNL     1       6.794   4.738  15.849  0.00  0.00    +0.000 A 
ATOM     12  C   UNL     1       5.514   5.013  16.307  0.00  0.00    +0.000 A 
BRANCH  11  13
ATOM     13  C   UNL     1       7.059   4.654  14.382  0.00  0.00    +0.000 C 
ATOM     14  O   UNL     1       7.757   5.425  13.748  0.00  0.00    +0.000 OA
BRANCH  13  15
ATOM     15  OXT UNL     1       6.411   3.591  13.847  0.00  0.00    +0.000 OA
ATOM     16  HXT UNL     1       6.294   2.914  14.554  0.00  0.00    +0.000 HD
ENDBRANCH  13  15
ENDBRANCH  11  13
ENDBRANCH   5   7
BRANCH   1  17
ATOM     17  C   UNL     1       1.832   8.500  18.152  0.00  0.00    +0.000 C 
BRANCH  17  20
ATOM     18  C   UNL     1       1.319  10.720  19.153  0.00  0.00    +0.000 C 
ATOM     19  O   UNL     1       1.904  11.330  18.263  0.00  0.00    +0.000 OA
ATOM     20  N   UNL     1       1.234   9.342  19.165  0.00  0.00    +0.000 N 
ATOM     21  H   UNL     1       0.790   8.884  19.946  0.00  0.00    +0.000 HD
BRANCH  18  27
ATOM     22  C   UNL     1       2.180  13.397  20.458  0.00  0.00    +0.000 C 
ATOM     23  N   UNL     1       1.061  12.563  20.839  0.00  0.00    +0.000 N 
ATOM     24  N   UNL     1       0.295  12.953  21.883  0.00  0.00    +0.000 NA
ATOM     25  C   UNL     1      -0.627  11.989  22.001  0.00  0.00    +0.000 A 
ATOM     26  C   UNL     1      -0.440  10.991  21.017  0.00  0.00    +0.000 A 
ATOM     27  C   UNL     1       0.666  11.369  20.275  0.00  0.00    +0.000 A 
BRANCH  25  28
ATOM     28  C   UNL     1      -1.685  12.011  23.057  0.00  0.00    +0.000 C 
ATOM     29  F   UNL     1      -2.880  12.418  22.542  0.00  0.00    +0.000 F 
ATOM     30  F   UNL     1      -1.906  10.756  23.545  0.00  0.00    +0.000 F 
ENDBRANCH  25  28
ENDBRANCH  18  27
ENDBRANCH  17  20
ENDBRANCH   1  17
TORSDOF 7
ENDMDL
