MODEL 1
REMARK VINA RESULT:      -8.0      0.000      0.000
REMARK  Name = 
REMARK  4 active torsions:
REMARK  status: ('A' for Active; 'I' for Inactive)
REMARK    1  A    between atoms: C_2  and  C_4
REMARK    2  A    between atoms: C_9  and  N_10
REMARK    3  A    between atoms: C_13  and  C_14
REMARK    4  A    between atoms: C_18  and  N_19
REMARK                            x       y       z     vdW  Elec       q    Type
REMARK                         _______ _______ _______ _____ _____    ______ ____
ROOT
ATOM      1  N   UNL     1       0.930   9.447  18.933  0.00  0.00    +0.000 N 
ATOM      2  C   UNL     1       1.859   9.164  17.835  0.00  0.00    +0.000 C 
ATOM      3  C   UNL     1       2.432   7.794  17.983  0.00  0.00    +0.000 C 
ATOM      4  C   UNL     1       2.497   7.216  19.187  0.00  0.00    +0.000 C 
ATOM      5  N   UNL     1       2.010   7.880  20.277  0.00  0.00    +0.000 N 
ATOM      6  C   UNL     1       1.203   8.990  20.219  0.00  0.00    +0.000 C 
ATOM      7  O   UNL     1       0.681   9.401  21.254  0.00  0.00    +0.000 OA
ATOM      8  H   UNL     1       2.087   7.465  21.197  0.00  0.00    +0.000 HD
ENDROOT
BRANCH   1  14
ATOM      9  C   UNL     1       0.280  11.834  18.731  0.00  0.00    +0.000 A 
ATOM     10  C   UNL     1      -0.734  12.792  18.556  0.00  0.00    +0.000 A 
ATOM     11  C   UNL     1      -2.057  12.399  18.349  0.00  0.00    +0.000 A 
ATOM     12  C   UNL     1      -2.378  11.048  18.306  0.00  0.00    +0.000 A 
ATOM     13  C   UNL     1      -1.381  10.084  18.478  0.00  0.00    +0.000 A 
ATOM     14  C   UNL     1      -0.047  10.462  18.710  0.00  0.00    +0.000 A 
BRANCH   9  16
ATOM     15  N   UNL     1       2.386  12.599  17.731  0.00  0.00    +0.000 N 
ATOM     16  C   UNL     1       1.663  12.376  18.869  0.00  0.00    +0.000 C 
ATOM     17  O   UNL     1       2.145  12.633  19.968  0.00  0.00    +0.000 OA
ATOM     18  H   UNL     1       3.339  12.922  17.827  0.00  0.00    +0.000 HD
ATOM     19  H   UNL     1       2.027  12.378  16.812  0.00  0.00    +0.000 HD
ENDBRANCH   9  16
ENDBRANCH   1  14
BRANCH   4  20
ATOM     20  C   UNL     1       3.018   5.865  19.384  0.00  0.00    +0.000 A 
ATOM     21  C   UNL     1       4.116   5.439  18.620  0.00  0.00    +0.000 A 
ATOM     22  C   UNL     1       4.619   4.146  18.758  0.00  0.00    +0.000 A 
ATOM     23  C   UNL     1       4.029   3.262  19.661  0.00  0.00    +0.000 A 
ATOM     24  C   UNL     1       2.936   3.689  20.429  0.00  0.00    +0.000 A 
ATOM     25  C   UNL     1       2.425   4.987  20.296  0.00  0.00    +0.000 A 
BRANCH  24  26
ATOM     26  N   UNL     1       2.311   2.756  21.380  0.00  0.00    +0.000 N 
ATOM     27  O   UNL     1       1.073   2.702  21.405  0.00  0.00    +0.000 OA
ATOM     28  O   UNL     1       3.061   2.084  22.098  0.00  0.00    +0.000 OA
ENDBRANCH  24  26
ENDBRANCH   4  20
TORSDOF 4
ENDMDL
MODEL 2
REMARK VINA RESULT:      -7.9      5.430      8.011
REMARK  Name = 
REMARK  4 active torsions:
REMARK  status: ('A' for Active; 'I' for Inactive)
REMARK    1  A    between atoms: C_2  and  C_4
REMARK    2  A    between atoms: C_9  and  N_10
REMARK    3  A    between atoms: C_13  and  C_14
REMARK    4  A    between atoms: C_18  and  N_19
REMARK                            x       y       z     vdW  Elec       q    Type
REMARK                         _______ _______ _______ _____ _____    ______ ____
ROOT
ATOM      1  N   UNL     1       4.114   5.071  17.920  0.00  0.00    +0.000 N 
ATOM      2  C   UNL     1       4.243   6.321  17.166  0.00  0.00    +0.000 C 
ATOM      3  C   UNL     1       4.886   6.063  15.844  0.00  0.00    +0.000 C 
ATOM      4  C   UNL     1       5.681   5.002  15.676  0.00  0.00    +0.000 C 
ATOM      5  N   UNL     1       5.879   4.140  16.717  0.00  0.00    +0.000 N 
ATOM      6  C   UNL     1       5.117   4.108  17.860  0.00  0.00    +0.000 C 
ATOM      7  O   UNL     1       5.272   3.180  18.653  0.00  0.00    +0.000 OA
ATOM      8  H   UNL     1       6.507   3.353  16.610  0.00  0.00    +0.000 HD
ENDROOT
BRANCH   1  14
ATOM      9  C   UNL     1       2.165   4.001  19.025  0.00  0.00    +0.000 A 
ATOM     10  C   UNL     1       1.181   4.043  20.029  0.00  0.00    +0.000 A 
ATOM     11  C   UNL     1       1.152   5.086  20.955  0.00  0.00    +0.000 A 
ATOM     12  C   UNL     1       2.109   6.092  20.893  0.00  0.00    +0.000 A 
ATOM     13  C   UNL     1       3.094   6.064  19.902  0.00  0.00    +0.000 A 
ATOM     14  C   UNL     1       3.124   5.032  18.947  0.00  0.00    +0.000 A 
BRANCH   9  16
ATOM     15  N   UNL     1       2.364   1.576  18.710  0.00  0.00    +0.000 N 
ATOM     16  C   UNL     1       2.136   2.799  18.143  0.00  0.00    +0.000 C 
ATOM     17  O   UNL     1       1.901   2.889  16.943  0.00  0.00    +0.000 OA
ATOM     18  H   UNL     1       2.390   0.767  18.105  0.00  0.00    +0.000 HD
ATOM     19  H   UNL     1       2.582   1.469  19.692  0.00  0.00    +0.000 HD
ENDBRANCH   9  16
ENDBRANCH   1  14
BRANCH   4  20
ATOM     20  C   UNL     1       6.309   4.683  14.395  0.00  0.00    +0.000 A 
ATOM     21  C   UNL     1       7.408   5.445  13.968  0.00  0.00    +0.000 A 
ATOM     22  C   UNL     1       8.012   5.191  12.736  0.00  0.00    +0.000 A 
ATOM     23  C   UNL     1       7.524   4.174  11.918  0.00  0.00    +0.000 A 
ATOM     24  C   UNL     1       6.429   3.409  12.347  0.00  0.00    +0.000 A 
ATOM     25  C   UNL     1       5.817   3.658  13.583  0.00  0.00    +0.000 A 
BRANCH  24  26
ATOM     26  N   UNL     1       5.911   2.338  11.482  0.00  0.00    +0.000 N 
ATOM     27  O   UNL     1       6.708   1.470  11.098  0.00  0.00    +0.000 OA
ATOM     28  O   UNL     1       4.709   2.369  11.190  0.00  0.00    +0.000 OA
ENDBRANCH  24  26
ENDBRANCH   4  20
TORSDOF 4
ENDMDL
MODEL 3
REMARK VINA RESULT:      -7.9      1.203      1.308
REMARK  Name = 
REMARK  4 active torsions:
REMARK  status: ('A' for Active; 'I' for Inactive)
REMARK    1  A    between atoms: C_2  and  C_4
REMARK    2  A    between atoms: C_9  and  N_10
REMARK    3  A    between atoms: C_13  and  C_14
REMARK    4  A    between atoms: C_18  and  N_19
REMARK                            x       y       z     vdW  Elec       q    Type
REMARK                         _______ _______ _______ _____ _____    ______ ____
ROOT
ATOM      1  N   UNL     1       0.883   9.469  18.940  0.00  0.00    +0.000 N 
ATOM      2  C   UNL     1       1.891   9.647  17.892  0.00  0.00    +0.000 C 
ATOM      3  C   UNL     1       2.626   8.369  17.659  0.00  0.00    +0.000 C 
ATOM      4  C   UNL     1       2.706   7.451  18.627  0.00  0.00    +0.000 C 
ATOM      5  N   UNL     1       2.088   7.681  19.823  0.00  0.00    +0.000 N 
ATOM      6  C   UNL     1       1.150   8.662  20.042  0.00  0.00    +0.000 C 
ATOM      7  O   UNL     1       0.532   8.667  21.106  0.00  0.00    +0.000 OA
ATOM      8  H   UNL     1       2.173   7.008  20.575  0.00  0.00    +0.000 HD
ENDROOT
BRANCH   1  14
ATOM      9  C   UNL     1      -0.131  11.621  19.650  0.00  0.00    +0.000 A 
ATOM     10  C   UNL     1      -1.252  12.470  19.677  0.00  0.00    +0.000 A 
ATOM     11  C   UNL     1      -2.429  12.117  19.015  0.00  0.00    +0.000 A 
ATOM     12  C   UNL     1      -2.495  10.918  18.315  0.00  0.00    +0.000 A 
ATOM     13  C   UNL     1      -1.389  10.065  18.279  0.00  0.00    +0.000 A 
ATOM     14  C   UNL     1      -0.204  10.394  18.958  0.00  0.00    +0.000 A 
BRANCH   9  16
ATOM     15  N   UNL     1       2.002  12.831  19.583  0.00  0.00    +0.000 N 
ATOM     16  C   UNL     1       1.089  12.142  20.332  0.00  0.00    +0.000 C 
ATOM     17  O   UNL     1       1.274  11.976  21.533  0.00  0.00    +0.000 OA
ATOM     18  H   UNL     1       2.850  13.144  20.034  0.00  0.00    +0.000 HD
ATOM     19  H   UNL     1       1.890  12.967  18.587  0.00  0.00    +0.000 HD
ENDBRANCH   9  16
ENDBRANCH   1  14
BRANCH   4  20
ATOM     20  C   UNL     1       3.384   6.169  18.443  0.00  0.00    +0.000 A 
ATOM     21  C   UNL     1       4.113   5.947  17.264  0.00  0.00    +0.000 A 
ATOM     22  C   UNL     1       4.745   4.724  17.039  0.00  0.00    +0.000 A 
ATOM     23  C   UNL     1       4.656   3.709  17.990  0.00  0.00    +0.000 A 
ATOM     24  C   UNL     1       3.933   3.932  19.172  0.00  0.00    +0.000 A 
ATOM     25  C   UNL     1       3.295   5.159  19.404  0.00  0.00    +0.000 A 
BRANCH  24  26
ATOM     26  N   UNL     1       3.835   2.861  20.174  0.00  0.00    +0.000 N 
ATOM     27  O   UNL     1       2.770   2.751  20.799  0.00  0.00    +0.000 OA
ATOM     28  O   UNL     1       4.824   2.135  20.334  0.00  0.00    +0.000 OA
ENDBRANCH  24  26
ENDBRANCH   4  20
TORSDOF 4
ENDMDL
MODEL 4
REMARK VINA RESULT:      -7.8      2.873      3.242
REMARK  Name = 
REMARK  4 active torsions:
REMARK  status: ('A' for Active; 'I' for Inactive)
REMARK    1  A    between atoms: C_2  and  C_4
REMARK    2  A    between atoms: C_9  and  N_10
REMARK    3  A    between atoms: C_13  and  C_14
REMARK    4  A    between atoms: C_18  and  N_19
REMARK                            x       y       z     vdW  Elec       q    Type
REMARK                         _______ _______ _______ _____ _____    ______ ____
ROOT
ATOM      1  N   UNL     1       0.931   9.499  18.790  0.00  0.00    +0.000 N 
ATOM      2  C   UNL     1       1.956   9.870  17.809  0.00  0.00    +0.000 C 
ATOM      3  C   UNL     1       2.778   8.679  17.445  0.00  0.00    +0.000 C 
ATOM      4  C   UNL     1       2.890   7.652  18.293  0.00  0.00    +0.000 C 
ATOM      5  N   UNL     1       2.225   7.690  19.485  0.00  0.00    +0.000 N 
ATOM      6  C   UNL     1       1.220   8.575  19.791  0.00  0.00    +0.000 C 
ATOM      7  O   UNL     1       0.572   8.407  20.824  0.00  0.00    +0.000 OA
ATOM      8  H   UNL     1       2.332   6.932  20.148  0.00  0.00    +0.000 HD
ENDROOT
BRANCH   1  14
ATOM      9  C   UNL     1      -0.235  11.484  19.719  0.00  0.00    +0.000 A 
ATOM     10  C   UNL     1      -1.409  12.252  19.812  0.00  0.00    +0.000 A 
ATOM     11  C   UNL     1      -2.545  11.909  19.078  0.00  0.00    +0.000 A 
ATOM     12  C   UNL     1      -2.518  10.800  18.240  0.00  0.00    +0.000 A 
ATOM     13  C   UNL     1      -1.359  10.027  18.137  0.00  0.00    +0.000 A 
ATOM     14  C   UNL     1      -0.213  10.346  18.885  0.00  0.00    +0.000 A 
BRANCH   9  16
ATOM     15  N   UNL     1       1.740  12.927  19.903  0.00  0.00    +0.000 N 
ATOM     16  C   UNL     1       0.933  11.994  20.492  0.00  0.00    +0.000 C 
ATOM     17  O   UNL     1       1.168  11.606  21.632  0.00  0.00    +0.000 OA
ATOM     18  H   UNL     1       2.557  13.239  20.408  0.00  0.00    +0.000 HD
ATOM     19  H   UNL     1       1.587  13.252  18.958  0.00  0.00    +0.000 HD
ENDBRANCH   9  16
ENDBRANCH   1  14
BRANCH   4  20
ATOM     20  C   UNL     1       3.655   6.447  17.974  0.00  0.00    +0.000 A 
ATOM     21  C   UNL     1       3.048   5.192  18.135  0.00  0.00    +0.000 A 
ATOM     22  C   UNL     1       3.757   4.021  17.872  0.00  0.00    +0.000 A 
ATOM     23  C   UNL     1       5.083   4.090  17.446  0.00  0.00    +0.000 A 
ATOM     24  C   UNL     1       5.689   5.345  17.279  0.00  0.00    +0.000 A 
ATOM     25  C   UNL     1       4.982   6.526  17.541  0.00  0.00    +0.000 A 
BRANCH  24  26
ATOM     26  N   UNL     1       7.088   5.419  16.833  0.00  0.00    +0.000 N 
ATOM     27  O   UNL     1       7.772   4.388  16.906  0.00  0.00    +0.000 OA
ATOM     28  O   UNL     1       7.497   6.509  16.413  0.00  0.00    +0.000 OA
ENDBRANCH  24  26
ENDBRANCH   4  20
TORSDOF 4
ENDMDL
MODEL 5
REMARK VINA RESULT:      -7.8      2.336      2.591
REMARK  Name = 
REMARK  4 active torsions:
REMARK  status: ('A' for Active; 'I' for Inactive)
REMARK    1  A    between atoms: C_2  and  C_4
REMARK    2  A    between atoms: C_9  and  N_10
REMARK    3  A    between atoms: C_13  and  C_14
REMARK    4  A    between atoms: C_18  and  N_19
REMARK                            x       y       z     vdW  Elec       q    Type
REMARK                         _______ _______ _______ _____ _____    ______ ____
ROOT
ATOM      1  N   UNL     1       0.934   9.415  19.024  0.00  0.00    +0.000 N 
ATOM      2  C   UNL     1       1.947   9.458  17.965  0.00  0.00    +0.000 C 
ATOM      3  C   UNL     1       2.651   8.145  17.869  0.00  0.00    +0.000 C 
ATOM      4  C   UNL     1       2.709   7.332  18.928  0.00  0.00    +0.000 C 
ATOM      5  N   UNL     1       2.097   7.701  20.092  0.00  0.00    +0.000 N 
ATOM      6  C   UNL     1       1.183   8.721  20.205  0.00  0.00    +0.000 C 
ATOM      7  O   UNL     1       0.565   8.853  21.260  0.00  0.00    +0.000 OA
ATOM      8  H   UNL     1       2.166   7.108  20.910  0.00  0.00    +0.000 HD
ENDROOT
BRANCH   1  14
ATOM      9  C   UNL     1      -0.023  11.657  19.494  0.00  0.00    +0.000 A 
ATOM     10  C   UNL     1      -1.123  12.530  19.429  0.00  0.00    +0.000 A 
ATOM     11  C   UNL     1      -2.312  12.134  18.814  0.00  0.00    +0.000 A 
ATOM     12  C   UNL     1      -2.411  10.867  18.252  0.00  0.00    +0.000 A 
ATOM     13  C   UNL     1      -1.327   9.989  18.308  0.00  0.00    +0.000 A 
ATOM     14  C   UNL     1      -0.129  10.362  18.943  0.00  0.00    +0.000 A 
BRANCH   9  16
ATOM     15  N   UNL     1       2.104  12.862  19.295  0.00  0.00    +0.000 N 
ATOM     16  C   UNL     1       1.213  12.220  20.109  0.00  0.00    +0.000 C 
ATOM     17  O   UNL     1       1.430  12.129  21.313  0.00  0.00    +0.000 OA
ATOM     18  H   UNL     1       2.963  13.203  19.704  0.00  0.00    +0.000 HD
ATOM     19  H   UNL     1       1.966  12.936  18.296  0.00  0.00    +0.000 HD
ENDBRANCH   9  16
ENDBRANCH   1  14
BRANCH   4  20
ATOM     20  C   UNL     1       3.356   6.022  18.881  0.00  0.00    +0.000 A 
ATOM     21  C   UNL     1       2.730   4.930  19.503  0.00  0.00    +0.000 A 
ATOM     22  C   UNL     1       3.334   3.673  19.507  0.00  0.00    +0.000 A 
ATOM     23  C   UNL     1       4.571   3.493  18.889  0.00  0.00    +0.000 A 
ATOM     24  C   UNL     1       5.194   4.582  18.262  0.00  0.00    +0.000 A 
ATOM     25  C   UNL     1       4.593   5.848  18.254  0.00  0.00    +0.000 A 
BRANCH  24  26
ATOM     26  N   UNL     1       6.501   4.394  17.614  0.00  0.00    +0.000 N 
ATOM     27  O   UNL     1       6.512   4.183  16.392  0.00  0.00    +0.000 OA
ATOM     28  O   UNL     1       7.508   4.457  18.328  0.00  0.00    +0.000 OA
ENDBRANCH  24  26
ENDBRANCH   4  20
TORSDOF 4
ENDMDL
MODEL 6
REMARK VINA RESULT:      -7.8      1.578      1.606
REMARK  Name = 
REMARK  4 active torsions:
REMARK  status: ('A' for Active; 'I' for Inactive)
REMARK    1  A    between atoms: C_2  and  C_4
REMARK    2  A    between atoms: C_9  and  N_10
REMARK    3  A    between atoms: C_13  and  C_14
REMARK    4  A    between atoms: C_18  and  N_19
REMARK                            x       y       z     vdW  Elec       q    Type
REMARK                         _______ _______ _______ _____ _____    ______ ____
ROOT
ATOM      1  N   UNL     1       0.858   9.639  18.974  0.00  0.00    +0.000 N 
ATOM      2  C   UNL     1       1.826   9.805  17.886  0.00  0.00    +0.000 C 
ATOM      3  C   UNL     1       2.483   8.502  17.574  0.00  0.00    +0.000 C 
ATOM      4  C   UNL     1       2.559   7.545  18.505  0.00  0.00    +0.000 C 
ATOM      5  N   UNL     1       2.008   7.761  19.736  0.00  0.00    +0.000 N 
ATOM      6  C   UNL     1       1.133   8.778  20.033  0.00  0.00    +0.000 C 
ATOM      7  O   UNL     1       0.565   8.775  21.124  0.00  0.00    +0.000 OA
ATOM      8  H   UNL     1       2.092   7.057  20.458  0.00  0.00    +0.000 HD
ENDROOT
BRANCH   1  14
ATOM      9  C   UNL     1       0.030  11.864  19.700  0.00  0.00    +0.000 A 
ATOM     10  C   UNL     1      -1.041  12.767  19.818  0.00  0.00    +0.000 A 
ATOM     11  C   UNL     1      -2.302  12.446  19.312  0.00  0.00    +0.000 A 
ATOM     12  C   UNL     1      -2.502  11.226  18.677  0.00  0.00    +0.000 A 
ATOM     13  C   UNL     1      -1.447  10.319  18.553  0.00  0.00    +0.000 A 
ATOM     14  C   UNL     1      -0.177  10.616  19.076  0.00  0.00    +0.000 A 
BRANCH   9  16
ATOM     15  N   UNL     1       2.132  13.086  19.373  0.00  0.00    +0.000 N 
ATOM     16  C   UNL     1       1.343  12.351  20.213  0.00  0.00    +0.000 C 
ATOM     17  O   UNL     1       1.712  12.117  21.359  0.00  0.00    +0.000 OA
ATOM     18  H   UNL     1       3.041  13.377  19.705  0.00  0.00    +0.000 HD
ATOM     19  H   UNL     1       1.868  13.279  18.416  0.00  0.00    +0.000 HD
ENDBRANCH   9  16
ENDBRANCH   1  14
BRANCH   4  20
ATOM     20  C   UNL     1       3.161   6.239  18.244  0.00  0.00    +0.000 A 
ATOM     21  C   UNL     1       4.479   6.180  17.764  0.00  0.00    +0.000 A 
ATOM     22  C   UNL     1       5.074   4.953  17.472  0.00  0.00    +0.000 A 
ATOM     23  C   UNL     1       4.359   3.770  17.656  0.00  0.00    +0.000 A 
ATOM     24  C   UNL     1       3.043   3.828  18.141  0.00  0.00    +0.000 A 
ATOM     25  C   UNL     1       2.439   5.058  18.437  0.00  0.00    +0.000 A 
BRANCH  24  26
ATOM     26  N   UNL     1       2.286   2.582  18.332  0.00  0.00    +0.000 N 
ATOM     27  O   UNL     1       1.055   2.630  18.198  0.00  0.00    +0.000 OA
ATOM     28  O   UNL     1       2.925   1.562  18.617  0.00  0.00    +0.000 OA
ENDBRANCH  24  26
ENDBRANCH   4  20
TORSDOF 4
ENDMDL
MODEL 7
REMARK VINA RESULT:      -7.7      5.596      8.454
REMARK  Name = 
REMARK  4 active torsions:
REMARK  status: ('A' for Active; 'I' for Inactive)
REMARK    1  A    between atoms: C_2  and  C_4
REMARK    2  A    between atoms: C_9  and  N_10
REMARK    3  A    between atoms: C_13  and  C_14
REMARK    4  A    between atoms: C_18  and  N_19
REMARK                            x       y       z     vdW  Elec       q    Type
REMARK                         _______ _______ _______ _____ _____    ______ ____
ROOT
ATOM      1  N   UNL     1       4.206   4.536  18.311  0.00  0.00    +0.000 N 
ATOM      2  C   UNL     1       3.457   5.242  17.267  0.00  0.00    +0.000 C 
ATOM      3  C   UNL     1       4.108   5.043  15.939  0.00  0.00    +0.000 C 
ATOM      4  C   UNL     1       5.411   4.759  15.863  0.00  0.00    +0.000 C 
ATOM      5  N   UNL     1       6.138   4.626  17.012  0.00  0.00    +0.000 N 
ATOM      6  C   UNL     1       5.596   4.489  18.267  0.00  0.00    +0.000 C 
ATOM      7  O   UNL     1       6.336   4.201  19.207  0.00  0.00    +0.000 OA
ATOM      8  H   UNL     1       7.133   4.446  16.963  0.00  0.00    +0.000 HD
ENDROOT
BRANCH   1  14
ATOM      9  C   UNL     1       3.417   2.888  19.992  0.00  0.00    +0.000 A 
ATOM     10  C   UNL     1       2.664   2.619  21.149  0.00  0.00    +0.000 A 
ATOM     11  C   UNL     1       2.011   3.648  21.829  0.00  0.00    +0.000 A 
ATOM     12  C   UNL     1       2.111   4.955  21.366  0.00  0.00    +0.000 A 
ATOM     13  C   UNL     1       2.855   5.237  20.218  0.00  0.00    +0.000 A 
ATOM     14  C   UNL     1       3.501   4.211  19.508  0.00  0.00    +0.000 A 
BRANCH   9  16
ATOM     15  N   UNL     1       5.252   1.260  20.025  0.00  0.00    +0.000 N 
ATOM     16  C   UNL     1       4.127   1.719  19.398  0.00  0.00    +0.000 C 
ATOM     17  O   UNL     1       3.716   1.165  18.383  0.00  0.00    +0.000 OA
ATOM     18  H   UNL     1       5.759   0.498  19.597  0.00  0.00    +0.000 HD
ATOM     19  H   UNL     1       5.629   1.706  20.850  0.00  0.00    +0.000 HD
ENDBRANCH   9  16
ENDBRANCH   1  14
BRANCH   4  20
ATOM     20  C   UNL     1       6.093   4.522  14.591  0.00  0.00    +0.000 A 
ATOM     21  C   UNL     1       7.227   5.286  14.273  0.00  0.00    +0.000 A 
ATOM     22  C   UNL     1       7.882   5.111  13.055  0.00  0.00    +0.000 A 
ATOM     23  C   UNL     1       7.412   4.170  12.140  0.00  0.00    +0.000 A 
ATOM     24  C   UNL     1       6.282   3.402  12.459  0.00  0.00    +0.000 A 
ATOM     25  C   UNL     1       5.618   3.573  13.682  0.00  0.00    +0.000 A 
BRANCH  24  26
ATOM     26  N   UNL     1       5.782   2.412  11.493  0.00  0.00    +0.000 N 
ATOM     27  O   UNL     1       4.595   2.492  11.149  0.00  0.00    +0.000 OA
ATOM     28  O   UNL     1       6.580   1.559  11.084  0.00  0.00    +0.000 OA
ENDBRANCH  24  26
ENDBRANCH   4  20
TORSDOF 4
ENDMDL
MODEL 8
REMARK VINA RESULT:      -7.7      1.399      2.267
REMARK  Name = 
REMARK  4 active torsions:
REMARK  status: ('A' for Active; 'I' for Inactive)
REMARK    1  A    between atoms: C_2  and  C_4
REMARK    2  A    between atoms: C_9  and  N_10
REMARK    3  A    between atoms: C_13  and  C_14
REMARK    4  A    between atoms: C_18  and  N_19
REMARK                            x       y       z     vdW  Elec       q    Type
REMARK                         _______ _______ _______ _____ _____    ______ ____
ROOT
ATOM      1  N   UNL     1       1.380   9.832  19.039  0.00  0.00    +0.000 N 
ATOM      2  C   UNL     1       2.297   9.406  17.977  0.00  0.00    +0.000 C 
ATOM      3  C   UNL     1       2.382   7.916  17.934  0.00  0.00    +0.000 C 
ATOM      4  C   UNL     1       2.113   7.193  19.026  0.00  0.00    +0.000 C 
ATOM      5  N   UNL     1       1.734   7.828  20.174  0.00  0.00    +0.000 N 
ATOM      6  C   UNL     1       1.336   9.141  20.247  0.00  0.00    +0.000 C 
ATOM      7  O   UNL     1       0.850   9.559  21.297  0.00  0.00    +0.000 OA
ATOM      8  H   UNL     1       1.562   7.292  21.016  0.00  0.00    +0.000 HD
ENDROOT
BRANCH   1  14
ATOM      9  C   UNL     1      -0.488  11.341  18.412  0.00  0.00    +0.000 A 
ATOM     10  C   UNL     1      -0.976  12.652  18.269  0.00  0.00    +0.000 A 
ATOM     11  C   UNL     1      -0.195  13.748  18.637  0.00  0.00    +0.000 A 
ATOM     12  C   UNL     1       1.078  13.545  19.158  0.00  0.00    +0.000 A 
ATOM     13  C   UNL     1       1.576  12.249  19.307  0.00  0.00    +0.000 A 
ATOM     14  C   UNL     1       0.812  11.135  18.920  0.00  0.00    +0.000 A 
BRANCH   9  16
ATOM     15  N   UNL     1      -1.623   9.962  16.731  0.00  0.00    +0.000 N 
ATOM     16  C   UNL     1      -1.444  10.254  18.054  0.00  0.00    +0.000 C 
ATOM     17  O   UNL     1      -2.048   9.621  18.914  0.00  0.00    +0.000 OA
ATOM     18  H   UNL     1      -2.305   9.257  16.486  0.00  0.00    +0.000 HD
ATOM     19  H   UNL     1      -1.158  10.478  15.997  0.00  0.00    +0.000 HD
ENDBRANCH   9  16
ENDBRANCH   1  14
BRANCH   4  20
ATOM     20  C   UNL     1       2.148   5.732  19.031  0.00  0.00    +0.000 A 
ATOM     21  C   UNL     1       2.009   5.043  17.816  0.00  0.00    +0.000 A 
ATOM     22  C   UNL     1       2.005   3.648  17.787  0.00  0.00    +0.000 A 
ATOM     23  C   UNL     1       2.139   2.927  18.972  0.00  0.00    +0.000 A 
ATOM     24  C   UNL     1       2.283   3.615  20.186  0.00  0.00    +0.000 A 
ATOM     25  C   UNL     1       2.289   5.016  20.223  0.00  0.00    +0.000 A 
BRANCH  24  26
ATOM     26  N   UNL     1       2.421   2.855  21.438  0.00  0.00    +0.000 N 
ATOM     27  O   UNL     1       1.464   2.863  22.225  0.00  0.00    +0.000 OA
ATOM     28  O   UNL     1       3.486   2.254  21.628  0.00  0.00    +0.000 OA
ENDBRANCH  24  26
ENDBRANCH   4  20
TORSDOF 4
ENDMDL
MODEL 9
REMARK VINA RESULT:      -7.6      2.228      2.866
REMARK  Name = 
REMARK  4 active torsions:
REMARK  status: ('A' for Active; 'I' for Inactive)
REMARK    1  A    between atoms: C_2  and  C_4
REMARK    2  A    between atoms: C_9  and  N_10
REMARK    3  A    between atoms: C_13  and  C_14
REMARK    4  A    between atoms: C_18  and  N_19
REMARK                            x       y       z     vdW  Elec       q    Type
REMARK                         _______ _______ _______ _____ _____    ______ ____
ROOT
ATOM      1  N   UNL     1       0.512  10.074  19.441  0.00  0.00    +0.000 N 
ATOM      2  C   UNL     1       1.500  10.443  18.423  0.00  0.00    +0.000 C 
ATOM      3  C   UNL     1       2.159   9.221  17.875  0.00  0.00    +0.000 C 
ATOM      4  C   UNL     1       2.215   8.101  18.603  0.00  0.00    +0.000 C 
ATOM      5  N   UNL     1       1.642   8.077  19.842  0.00  0.00    +0.000 N 
ATOM      6  C   UNL     1       0.765   9.022  20.316  0.00  0.00    +0.000 C 
ATOM      7  O   UNL     1       0.176   8.810  21.376  0.00  0.00    +0.000 OA
ATOM      8  H   UNL     1       1.711   7.244  20.415  0.00  0.00    +0.000 HD
ENDROOT
BRANCH   1  14
ATOM      9  C   UNL     1      -1.725  11.045  18.976  0.00  0.00    +0.000 A 
ATOM     10  C   UNL     1      -2.687  12.032  19.254  0.00  0.00    +0.000 A 
ATOM     11  C   UNL     1      -2.470  12.976  20.259  0.00  0.00    +0.000 A 
ATOM     12  C   UNL     1      -1.295  12.938  21.000  0.00  0.00    +0.000 A 
ATOM     13  C   UNL     1      -0.330  11.963  20.736  0.00  0.00    +0.000 A 
ATOM     14  C   UNL     1      -0.522  11.018  19.713  0.00  0.00    +0.000 A 
BRANCH   9  16
ATOM     15  N   UNL     1      -1.367  10.008  16.782  0.00  0.00    +0.000 N 
ATOM     16  C   UNL     1      -2.104  10.050  17.932  0.00  0.00    +0.000 C 
ATOM     17  O   UNL     1      -3.041   9.275  18.093  0.00  0.00    +0.000 OA
ATOM     18  H   UNL     1      -1.652   9.366  16.055  0.00  0.00    +0.000 HD
ATOM     19  H   UNL     1      -0.602  10.646  16.608  0.00  0.00    +0.000 HD
ENDBRANCH   9  16
ENDBRANCH   1  14
BRANCH   4  20
ATOM     20  C   UNL     1       2.818   6.867  18.103  0.00  0.00    +0.000 A 
ATOM     21  C   UNL     1       4.059   6.931  17.450  0.00  0.00    +0.000 A 
ATOM     22  C   UNL     1       4.649   5.779  16.930  0.00  0.00    +0.000 A 
ATOM     23  C   UNL     1       4.004   4.549  17.057  0.00  0.00    +0.000 A 
ATOM     24  C   UNL     1       2.767   4.483  17.715  0.00  0.00    +0.000 A 
ATOM     25  C   UNL     1       2.169   5.637  18.240  0.00  0.00    +0.000 A 
BRANCH  24  26
ATOM     26  N   UNL     1       2.085   3.187  17.847  0.00  0.00    +0.000 N 
ATOM     27  O   UNL     1       0.887   3.196  18.167  0.00  0.00    +0.000 OA
ATOM     28  O   UNL     1       2.749   2.166  17.631  0.00  0.00    +0.000 OA
ENDBRANCH  24  26
ENDBRANCH   4  20
TORSDOF 4
ENDMDL
