MODEL 1
REMARK VINA RESULT:      -9.1      0.000      0.000
REMARK  Name = 
REMARK  12 active torsions:
REMARK  status: ('A' for Active; 'I' for Inactive)
REMARK    1  A    between atoms: C_1  and  O_2
REMARK    2  A    between atoms: O_2  and  C_3
REMARK    3  A    between atoms: C_6  and  C_7
REMARK    4  A    between atoms: C_7  and  C_8
REMARK    5  A    between atoms: C_7  and  N_23
REMARK    6  A    between atoms: C_8  and  N_9
REMARK    7  A    between atoms: C_10  and  C_12
REMARK    8  A    between atoms: C_12  and  O_13
REMARK    9  A    between atoms: O_13  and  C_14
REMARK   10  A    between atoms: C_15  and  C_16
REMARK   11  A    between atoms: C_18  and  C_19
REMARK   12  A    between atoms: C_21  and  C_22
REMARK                            x       y       z     vdW  Elec       q    Type
REMARK                         _______ _______ _______ _____ _____    ______ ____
ROOT
ATOM      1  C   UNL     1       5.565   5.440  19.400  0.00  0.00    +0.000 C 
ENDROOT
BRANCH   1   2
ATOM      2  N   UNL     1       6.690   4.662  18.866  0.00  0.00    +0.000 N 
ATOM      3  C   UNL     1       7.326   4.810  17.646  0.00  0.00    +0.000 C 
ATOM      4  O   UNL     1       8.294   4.116  17.379  0.00  0.00    +0.000 OA
ATOM      5  H   UNL     1       7.097   3.956  19.465  0.00  0.00    +0.000 HD
BRANCH   3   6
ATOM      6  C   UNL     1       6.766   5.876  16.699  0.00  0.00    +0.000 C 
BRANCH   6   7
ATOM      7  O   UNL     1       7.351   5.897  15.415  0.00  0.00    +0.000 OA
BRANCH   7   8
ATOM      8  C   UNL     1       6.760   5.088  14.465  0.00  0.00    +0.000 A 
ATOM      9  C   UNL     1       7.489   4.990  13.261  0.00  0.00    +0.000 A 
ATOM     10  C   UNL     1       8.786   5.725  13.037  0.00  0.00    +0.000 C 
ATOM     11  C   UNL     1       7.017   4.163  12.225  0.00  0.00    +0.000 A 
ATOM     12  C   UNL     1       5.864   3.405  12.373  0.00  0.00    +0.000 A 
ATOM     13  C   UNL     1       5.373   2.486  11.302  0.00  0.00    +0.000 C 
ATOM     14  C   UNL     1       5.177   3.481  13.573  0.00  0.00    +0.000 A 
ATOM     15  C   UNL     1       5.605   4.289  14.643  0.00  0.00    +0.000 A 
ATOM     16  C   UNL     1       4.766   4.166  15.888  0.00  0.00    +0.000 C 
ENDBRANCH   7   8
ENDBRANCH   6   7
ENDBRANCH   3   6
ENDBRANCH   1   2
BRANCH   1  17
ATOM     17  C   UNL     1       4.132   5.018  18.937  0.00  0.00    +0.000 C 
BRANCH  17  21
ATOM     18  C   UNL     1       1.804   8.764  18.865  0.00  0.00    +0.000 A 
ATOM     19  C   UNL     1       2.526   8.363  17.735  0.00  0.00    +0.000 A 
ATOM     20  C   UNL     1       3.242   7.142  17.721  0.00  0.00    +0.000 A 
ATOM     21  C   UNL     1       3.253   6.297  18.846  0.00  0.00    +0.000 A 
ATOM     22  C   UNL     1       2.496   6.714  19.953  0.00  0.00    +0.000 A 
ATOM     23  C   UNL     1       1.805   7.928  19.978  0.00  0.00    +0.000 A 
BRANCH  18  25
ATOM     24  C   UNL     1      -0.107   9.987  18.178  0.00  0.00    +0.000 C 
ATOM     25  O   UNL     1       1.175   9.978  18.807  0.00  0.00    +0.000 OA
ENDBRANCH  18  25
ENDBRANCH  17  21
BRANCH  17  26
ATOM     26  N   UNL     1       3.630   3.959  19.840  0.00  0.00    +0.000 NA
ATOM     27  C   UNL     1       4.210   2.610  19.598  0.00  0.00    +0.000 C 
ATOM     28  C   UNL     1       3.625   1.807  18.424  0.00  0.00    +0.000 C 
ATOM     29  O   UNL     1       2.201   1.747  18.460  0.00  0.00    +0.000 OA
ATOM     30  C   UNL     1       1.592   3.030  18.635  0.00  0.00    +0.000 C 
ATOM     31  C   UNL     1       2.165   3.799  19.836  0.00  0.00    +0.000 C 
ENDBRANCH  17  26
ENDBRANCH   1  17
TORSDOF 8
ENDMDL
MODEL 2
REMARK VINA RESULT:      -8.9      2.671      8.760
REMARK  Name = 
REMARK  12 active torsions:
REMARK  status: ('A' for Active; 'I' for Inactive)
REMARK    1  A    between atoms: C_1  and  O_2
REMARK    2  A    between atoms: O_2  and  C_3
REMARK    3  A    between atoms: C_6  and  C_7
REMARK    4  A    between atoms: C_7  and  C_8
REMARK    5  A    between atoms: C_7  and  N_23
REMARK    6  A    between atoms: C_8  and  N_9
REMARK    7  A    between atoms: C_10  and  C_12
REMARK    8  A    between atoms: C_12  and  O_13
REMARK    9  A    between atoms: O_13  and  C_14
REMARK   10  A    between atoms: C_15  and  C_16
REMARK   11  A    between atoms: C_18  and  C_19
REMARK   12  A    between atoms: C_21  and  C_22
REMARK                            x       y       z     vdW  Elec       q    Type
REMARK                         _______ _______ _______ _____ _____    ______ ____
ROOT
ATOM      1  C   UNL     1       2.650   6.702  19.540  0.00  0.00    +0.000 C 
ENDROOT
BRANCH   1   2
ATOM      2  N   UNL     1       2.349   7.644  18.455  0.00  0.00    +0.000 N 
ATOM      3  C   UNL     1       1.697   8.862  18.537  0.00  0.00    +0.000 C 
ATOM      4  O   UNL     1       1.581   9.557  17.541  0.00  0.00    +0.000 OA
ATOM      5  H   UNL     1       2.692   7.417  17.530  0.00  0.00    +0.000 HD
BRANCH   3   6
ATOM      6  C   UNL     1       1.168   9.269  19.916  0.00  0.00    +0.000 C 
BRANCH   6   7
ATOM      7  O   UNL     1      -0.191   9.650  19.942  0.00  0.00    +0.000 OA
BRANCH   7   8
ATOM      8  C   UNL     1      -0.514  10.694  20.785  0.00  0.00    +0.000 A 
ATOM      9  C   UNL     1      -0.902  11.874  20.116  0.00  0.00    +0.000 A 
ATOM     10  C   UNL     1      -0.937  11.978  18.613  0.00  0.00    +0.000 C 
ATOM     11  C   UNL     1      -1.297  13.001  20.861  0.00  0.00    +0.000 A 
ATOM     12  C   UNL     1      -1.352  12.968  22.247  0.00  0.00    +0.000 A 
ATOM     13  C   UNL     1      -1.812  14.140  23.052  0.00  0.00    +0.000 C 
ATOM     14  C   UNL     1      -1.004  11.793  22.891  0.00  0.00    +0.000 A 
ATOM     15  C   UNL     1      -0.604  10.636  22.197  0.00  0.00    +0.000 A 
ATOM     16  C   UNL     1      -0.349   9.441  23.078  0.00  0.00    +0.000 C 
ENDBRANCH   7   8
ENDBRANCH   6   7
ENDBRANCH   3   6
ENDBRANCH   1   2
BRANCH   1  17
ATOM     17  C   UNL     1       3.133   5.275  19.122  0.00  0.00    +0.000 C 
BRANCH  17  21
ATOM     18  C   UNL     1       6.528   5.458  16.311  0.00  0.00    +0.000 A 
ATOM     19  C   UNL     1       5.366   6.195  16.060  0.00  0.00    +0.000 A 
ATOM     20  C   UNL     1       4.282   6.187  16.971  0.00  0.00    +0.000 A 
ATOM     21  C   UNL     1       4.342   5.432  18.156  0.00  0.00    +0.000 A 
ATOM     22  C   UNL     1       5.533   4.727  18.395  0.00  0.00    +0.000 A 
ATOM     23  C   UNL     1       6.595   4.715  17.487  0.00  0.00    +0.000 A 
BRANCH  18  25
ATOM     24  C   UNL     1       7.184   4.877  14.108  0.00  0.00    +0.000 C 
ATOM     25  O   UNL     1       7.508   5.490  15.357  0.00  0.00    +0.000 OA
ENDBRANCH  18  25
ENDBRANCH  17  21
BRANCH  17  26
ATOM     26  N   UNL     1       1.980   4.518  18.587  0.00  0.00    +0.000 NA
ATOM     27  C   UNL     1       1.051   3.987  19.621  0.00  0.00    +0.000 C 
ATOM     28  C   UNL     1       1.486   2.702  20.345  0.00  0.00    +0.000 C 
ATOM     29  O   UNL     1       1.878   1.672  19.441  0.00  0.00    +0.000 OA
ATOM     30  C   UNL     1       2.817   2.120  18.459  0.00  0.00    +0.000 C 
ATOM     31  C   UNL     1       2.345   3.383  17.721  0.00  0.00    +0.000 C 
ENDBRANCH  17  26
ENDBRANCH   1  17
TORSDOF 8
ENDMDL
MODEL 3
REMARK VINA RESULT:      -8.9      2.448      8.680
REMARK  Name = 
REMARK  12 active torsions:
REMARK  status: ('A' for Active; 'I' for Inactive)
REMARK    1  A    between atoms: C_1  and  O_2
REMARK    2  A    between atoms: O_2  and  C_3
REMARK    3  A    between atoms: C_6  and  C_7
REMARK    4  A    between atoms: C_7  and  C_8
REMARK    5  A    between atoms: C_7  and  N_23
REMARK    6  A    between atoms: C_8  and  N_9
REMARK    7  A    between atoms: C_10  and  C_12
REMARK    8  A    between atoms: C_12  and  O_13
REMARK    9  A    between atoms: O_13  and  C_14
REMARK   10  A    between atoms: C_15  and  C_16
REMARK   11  A    between atoms: C_18  and  C_19
REMARK   12  A    between atoms: C_21  and  C_22
REMARK                            x       y       z     vdW  Elec       q    Type
REMARK                         _______ _______ _______ _____ _____    ______ ____
ROOT
ATOM      1  C   UNL     1       2.560   7.068  19.281  0.00  0.00    +0.000 C 
ENDROOT
BRANCH   1   2
ATOM      2  N   UNL     1       2.066   7.730  20.495  0.00  0.00    +0.000 N 
ATOM      3  C   UNL     1       1.177   8.787  20.590  0.00  0.00    +0.000 C 
ATOM      4  O   UNL     1       0.820   9.182  21.687  0.00  0.00    +0.000 OA
ATOM      5  H   UNL     1       2.361   7.354  21.387  0.00  0.00    +0.000 HD
BRANCH   3   6
ATOM      6  C   UNL     1       0.680   9.391  19.273  0.00  0.00    +0.000 C 
BRANCH   6   7
ATOM      7  O   UNL     1       0.451  10.784  19.307  0.00  0.00    +0.000 OA
BRANCH   7   8
ATOM      8  C   UNL     1      -0.869  11.181  19.373  0.00  0.00    +0.000 A 
ATOM      9  C   UNL     1      -1.154  12.056  20.442  0.00  0.00    +0.000 A 
ATOM     10  C   UNL     1      -0.103  12.495  21.430  0.00  0.00    +0.000 C 
ATOM     11  C   UNL     1      -2.455  12.569  20.597  0.00  0.00    +0.000 A 
ATOM     12  C   UNL     1      -3.465  12.264  19.695  0.00  0.00    +0.000 A 
ATOM     13  C   UNL     1      -4.840  12.835  19.818  0.00  0.00    +0.000 C 
ATOM     14  C   UNL     1      -3.165  11.433  18.629  0.00  0.00    +0.000 A 
ATOM     15  C   UNL     1      -1.881  10.894  18.424  0.00  0.00    +0.000 A 
ATOM     16  C   UNL     1      -1.742  10.084  17.161  0.00  0.00    +0.000 C 
ENDBRANCH   7   8
ENDBRANCH   6   7
ENDBRANCH   3   6
ENDBRANCH   1   2
BRANCH   1  17
ATOM     17  C   UNL     1       3.293   5.700  19.472  0.00  0.00    +0.000 C 
BRANCH  17  21
ATOM     18  C   UNL     1       6.636   5.233  16.634  0.00  0.00    +0.000 A 
ATOM     19  C   UNL     1       5.380   5.647  16.179  0.00  0.00    +0.000 A 
ATOM     20  C   UNL     1       4.305   5.847  17.078  0.00  0.00    +0.000 A 
ATOM     21  C   UNL     1       4.469   5.632  18.459  0.00  0.00    +0.000 A 
ATOM     22  C   UNL     1       5.750   5.245  18.888  0.00  0.00    +0.000 A 
ATOM     23  C   UNL     1       6.806   5.025  18.000  0.00  0.00    +0.000 A 
BRANCH  18  25
ATOM     24  C   UNL     1       7.144   4.838  14.352  0.00  0.00    +0.000 C 
ATOM     25  O   UNL     1       7.606   5.023  15.691  0.00  0.00    +0.000 OA
ENDBRANCH  18  25
ENDBRANCH  17  21
BRANCH  17  26
ATOM     26  N   UNL     1       2.298   4.609  19.375  0.00  0.00    +0.000 NA
ATOM     27  C   UNL     1       1.463   4.418  20.592  0.00  0.00    +0.000 C 
ATOM     28  C   UNL     1       2.106   3.652  21.758  0.00  0.00    +0.000 C 
ATOM     29  O   UNL     1       2.687   2.417  21.345  0.00  0.00    +0.000 OA
ATOM     30  C   UNL     1       3.546   2.556  20.210  0.00  0.00    +0.000 C 
ATOM     31  C   UNL     1       2.870   3.292  19.043  0.00  0.00    +0.000 C 
ENDBRANCH  17  26
ENDBRANCH   1  17
TORSDOF 8
ENDMDL
MODEL 4
REMARK VINA RESULT:      -8.9      2.671      8.818
REMARK  Name = 
REMARK  12 active torsions:
REMARK  status: ('A' for Active; 'I' for Inactive)
REMARK    1  A    between atoms: C_1  and  O_2
REMARK    2  A    between atoms: O_2  and  C_3
REMARK    3  A    between atoms: C_6  and  C_7
REMARK    4  A    between atoms: C_7  and  C_8
REMARK    5  A    between atoms: C_7  and  N_23
REMARK    6  A    between atoms: C_8  and  N_9
REMARK    7  A    between atoms: C_10  and  C_12
REMARK    8  A    between atoms: C_12  and  O_13
REMARK    9  A    between atoms: O_13  and  C_14
REMARK   10  A    between atoms: C_15  and  C_16
REMARK   11  A    between atoms: C_18  and  C_19
REMARK   12  A    between atoms: C_21  and  C_22
REMARK                            x       y       z     vdW  Elec       q    Type
REMARK                         _______ _______ _______ _____ _____    ______ ____
ROOT
ATOM      1  C   UNL     1       2.654   6.917  19.779  0.00  0.00    +0.000 C 
ENDROOT
BRANCH   1   2
ATOM      2  N   UNL     1       2.273   7.678  18.583  0.00  0.00    +0.000 N 
ATOM      3  C   UNL     1       1.697   8.934  18.517  0.00  0.00    +0.000 C 
ATOM      4  O   UNL     1       1.499   9.454  17.431  0.00  0.00    +0.000 OA
ATOM      5  H   UNL     1       2.493   7.273  17.681  0.00  0.00    +0.000 HD
BRANCH   3   6
ATOM      6  C   UNL     1       1.355   9.607  19.849  0.00  0.00    +0.000 C 
BRANCH   6   7
ATOM      7  O   UNL     1       0.049   9.359  20.323  0.00  0.00    +0.000 OA
BRANCH   7   8
ATOM      8  C   UNL     1      -0.620  10.442  20.856  0.00  0.00    +0.000 A 
ATOM      9  C   UNL     1      -0.593  10.499  22.265  0.00  0.00    +0.000 A 
ATOM     10  C   UNL     1       0.094   9.451  23.104  0.00  0.00    +0.000 C 
ATOM     11  C   UNL     1      -1.202  11.577  22.933  0.00  0.00    +0.000 A 
ATOM     12  C   UNL     1      -1.801  12.615  22.233  0.00  0.00    +0.000 A 
ATOM     13  C   UNL     1      -2.413  13.790  22.924  0.00  0.00    +0.000 C 
ATOM     14  C   UNL     1      -1.790  12.567  20.850  0.00  0.00    +0.000 A 
ATOM     15  C   UNL     1      -1.193  11.515  20.130  0.00  0.00    +0.000 A 
ATOM     16  C   UNL     1      -1.216  11.694  18.635  0.00  0.00    +0.000 C 
ENDBRANCH   7   8
ENDBRANCH   6   7
ENDBRANCH   3   6
ENDBRANCH   1   2
BRANCH   1  17
ATOM     17  C   UNL     1       3.062   5.423  19.566  0.00  0.00    +0.000 C 
BRANCH  17  21
ATOM     18  C   UNL     1       6.499   5.037  16.829  0.00  0.00    +0.000 A 
ATOM     19  C   UNL     1       5.231   5.348  16.326  0.00  0.00    +0.000 A 
ATOM     20  C   UNL     1       4.123   5.521  17.190  0.00  0.00    +0.000 A 
ATOM     21  C   UNL     1       4.266   5.382  18.583  0.00  0.00    +0.000 A 
ATOM     22  C   UNL     1       5.557   5.100  19.059  0.00  0.00    +0.000 A 
ATOM     23  C   UNL     1       6.647   4.906  18.207  0.00  0.00    +0.000 A 
BRANCH  18  25
ATOM     24  C   UNL     1       7.112   4.866  14.545  0.00  0.00    +0.000 C 
ATOM     25  O   UNL     1       7.503   4.846  15.918  0.00  0.00    +0.000 OA
ENDBRANCH  18  25
ENDBRANCH  17  21
BRANCH  17  26
ATOM     26  N   UNL     1       1.867   4.656  19.148  0.00  0.00    +0.000 NA
ATOM     27  C   UNL     1       0.940   4.297  20.256  0.00  0.00    +0.000 C 
ATOM     28  C   UNL     1       1.338   3.094  21.126  0.00  0.00    +0.000 C 
ATOM     29  O   UNL     1       1.668   1.944  20.350  0.00  0.00    +0.000 OA
ATOM     30  C   UNL     1       2.603   2.226  19.305  0.00  0.00    +0.000 C 
ATOM     31  C   UNL     1       2.167   3.408  18.424  0.00  0.00    +0.000 C 
ENDBRANCH  17  26
ENDBRANCH   1  17
TORSDOF 8
ENDMDL
MODEL 5
REMARK VINA RESULT:      -8.8      2.517      8.444
REMARK  Name = 
REMARK  12 active torsions:
REMARK  status: ('A' for Active; 'I' for Inactive)
REMARK    1  A    between atoms: C_1  and  O_2
REMARK    2  A    between atoms: O_2  and  C_3
REMARK    3  A    between atoms: C_6  and  C_7
REMARK    4  A    between atoms: C_7  and  C_8
REMARK    5  A    between atoms: C_7  and  N_23
REMARK    6  A    between atoms: C_8  and  N_9
REMARK    7  A    between atoms: C_10  and  C_12
REMARK    8  A    between atoms: C_12  and  O_13
REMARK    9  A    between atoms: O_13  and  C_14
REMARK   10  A    between atoms: C_15  and  C_16
REMARK   11  A    between atoms: C_18  and  C_19
REMARK   12  A    between atoms: C_21  and  C_22
REMARK                            x       y       z     vdW  Elec       q    Type
REMARK                         _______ _______ _______ _____ _____    ______ ____
ROOT
ATOM      1  C   UNL     1       2.273   6.026  19.022  0.00  0.00    +0.000 C 
ENDROOT
BRANCH   1   2
ATOM      2  N   UNL     1       2.550   7.132  18.097  0.00  0.00    +0.000 N 
ATOM      3  C   UNL     1       2.239   8.471  18.250  0.00  0.00    +0.000 C 
ATOM      4  O   UNL     1       2.598   9.278  17.407  0.00  0.00    +0.000 OA
ATOM      5  H   UNL     1       3.075   6.920  17.258  0.00  0.00    +0.000 HD
BRANCH   3   6
ATOM      6  C   UNL     1       1.458   8.859  19.509  0.00  0.00    +0.000 C 
BRANCH   6   7
ATOM      7  O   UNL     1       0.378   9.741  19.291  0.00  0.00    +0.000 OA
BRANCH   7   8
ATOM      8  C   UNL     1       0.022  10.542  20.357  0.00  0.00    +0.000 A 
ATOM      9  C   UNL     1      -0.061  11.915  20.041  0.00  0.00    +0.000 A 
ATOM     10  C   UNL     1       0.234  12.448  18.662  0.00  0.00    +0.000 C 
ATOM     11  C   UNL     1      -0.455  12.836  21.029  0.00  0.00    +0.000 A 
ATOM     12  C   UNL     1      -0.804  12.421  22.307  0.00  0.00    +0.000 A 
ATOM     13  C   UNL     1      -1.268  13.379  23.355  0.00  0.00    +0.000 C 
ATOM     14  C   UNL     1      -0.753  11.067  22.595  0.00  0.00    +0.000 A 
ATOM     15  C   UNL     1      -0.369  10.102  21.645  0.00  0.00    +0.000 A 
ATOM     16  C   UNL     1      -0.461   8.680  22.132  0.00  0.00    +0.000 C 
ENDBRANCH   7   8
ENDBRANCH   6   7
ENDBRANCH   3   6
ENDBRANCH   1   2
BRANCH   1  17
ATOM     17  C   UNL     1       3.396   4.951  19.194  0.00  0.00    +0.000 C 
BRANCH  17  21
ATOM     18  C   UNL     1       6.552   5.375  16.142  0.00  0.00    +0.000 A 
ATOM     19  C   UNL     1       5.313   4.821  15.801  0.00  0.00    +0.000 A 
ATOM     20  C   UNL     1       4.271   4.718  16.753  0.00  0.00    +0.000 A 
ATOM     21  C   UNL     1       4.452   5.166  18.074  0.00  0.00    +0.000 A 
ATOM     22  C   UNL     1       5.696   5.745  18.378  0.00  0.00    +0.000 A 
ATOM     23  C   UNL     1       6.734   5.828  17.446  0.00  0.00    +0.000 A 
BRANCH  18  25
ATOM     24  C   UNL     1       7.139   4.857  13.904  0.00  0.00    +0.000 C 
ATOM     25  O   UNL     1       7.516   5.398  15.171  0.00  0.00    +0.000 OA
ENDBRANCH  18  25
ENDBRANCH  17  21
BRANCH  17  26
ATOM     26  N   UNL     1       2.771   3.611  19.237  0.00  0.00    +0.000 NA
ATOM     27  C   UNL     1       1.667   3.471  20.226  0.00  0.00    +0.000 C 
ATOM     28  C   UNL     1       2.076   3.265  21.693  0.00  0.00    +0.000 C 
ATOM     29  O   UNL     1       3.033   2.219  21.851  0.00  0.00    +0.000 OA
ATOM     30  C   UNL     1       4.145   2.341  20.960  0.00  0.00    +0.000 C 
ATOM     31  C   UNL     1       3.714   2.508  19.494  0.00  0.00    +0.000 C 
ENDBRANCH  17  26
ENDBRANCH   1  17
TORSDOF 8
ENDMDL
MODEL 6
REMARK VINA RESULT:      -8.7      3.097      9.116
REMARK  Name = 
REMARK  12 active torsions:
REMARK  status: ('A' for Active; 'I' for Inactive)
REMARK    1  A    between atoms: C_1  and  O_2
REMARK    2  A    between atoms: O_2  and  C_3
REMARK    3  A    between atoms: C_6  and  C_7
REMARK    4  A    between atoms: C_7  and  C_8
REMARK    5  A    between atoms: C_7  and  N_23
REMARK    6  A    between atoms: C_8  and  N_9
REMARK    7  A    between atoms: C_10  and  C_12
REMARK    8  A    between atoms: C_12  and  O_13
REMARK    9  A    between atoms: O_13  and  C_14
REMARK   10  A    between atoms: C_15  and  C_16
REMARK   11  A    between atoms: C_18  and  C_19
REMARK   12  A    between atoms: C_21  and  C_22
REMARK                            x       y       z     vdW  Elec       q    Type
REMARK                         _______ _______ _______ _____ _____    ______ ____
ROOT
ATOM      1  C   UNL     1       2.845   8.310  18.112  0.00  0.00    +0.000 C 
ENDROOT
BRANCH   1   2
ATOM      2  N   UNL     1       1.585   8.857  17.594  0.00  0.00    +0.000 N 
ATOM      3  C   UNL     1       0.564   9.467  18.302  0.00  0.00    +0.000 C 
ATOM      4  O   UNL     1      -0.397   9.925  17.707  0.00  0.00    +0.000 OA
ATOM      5  H   UNL     1       1.444   8.840  16.592  0.00  0.00    +0.000 HD
BRANCH   3   6
ATOM      6  C   UNL     1       0.727   9.539  19.823  0.00  0.00    +0.000 C 
BRANCH   6   7
ATOM      7  O   UNL     1       0.834  10.845  20.348  0.00  0.00    +0.000 OA
BRANCH   7   8
ATOM      8  C   UNL     1      -0.152  11.226  21.236  0.00  0.00    +0.000 A 
ATOM      9  C   UNL     1      -1.004  12.240  20.748  0.00  0.00    +0.000 A 
ATOM     10  C   UNL     1      -0.829  12.858  19.384  0.00  0.00    +0.000 C 
ATOM     11  C   UNL     1      -2.078  12.690  21.538  0.00  0.00    +0.000 A 
ATOM     12  C   UNL     1      -2.346  12.130  22.780  0.00  0.00    +0.000 A 
ATOM     13  C   UNL     1      -3.508  12.563  23.613  0.00  0.00    +0.000 C 
ATOM     14  C   UNL     1      -1.526  11.110  23.232  0.00  0.00    +0.000 A 
ATOM     15  C   UNL     1      -0.440  10.620  22.483  0.00  0.00    +0.000 A 
ATOM     16  C   UNL     1       0.275   9.454  23.115  0.00  0.00    +0.000 C 
ENDBRANCH   7   8
ENDBRANCH   6   7
ENDBRANCH   3   6
ENDBRANCH   1   2
BRANCH   1  17
ATOM     17  C   UNL     1       3.269   6.899  17.589  0.00  0.00    +0.000 C 
BRANCH  17  21
ATOM     18  C   UNL     1       1.356   3.668  19.904  0.00  0.00    +0.000 A 
ATOM     19  C   UNL     1       1.920   4.766  20.563  0.00  0.00    +0.000 A 
ATOM     20  C   UNL     1       2.499   5.836  19.838  0.00  0.00    +0.000 A 
ATOM     21  C   UNL     1       2.526   5.824  18.432  0.00  0.00    +0.000 A 
ATOM     22  C   UNL     1       1.925   4.723  17.799  0.00  0.00    +0.000 A 
ATOM     23  C   UNL     1       1.373   3.655  18.512  0.00  0.00    +0.000 A 
BRANCH  18  25
ATOM     24  C   UNL     1       1.482   2.486  21.955  0.00  0.00    +0.000 C 
ATOM     25  O   UNL     1       0.856   2.660  20.683  0.00  0.00    +0.000 OA
ENDBRANCH  18  25
ENDBRANCH  17  21
BRANCH  17  26
ATOM     26  N   UNL     1       4.746   6.811  17.597  0.00  0.00    +0.000 NA
ATOM     27  C   UNL     1       5.373   6.747  16.249  0.00  0.00    +0.000 C 
ATOM     28  C   UNL     1       5.352   5.383  15.541  0.00  0.00    +0.000 C 
ATOM     29  O   UNL     1       5.834   4.330  16.373  0.00  0.00    +0.000 OA
ATOM     30  C   UNL     1       5.219   4.312  17.664  0.00  0.00    +0.000 C 
ATOM     31  C   UNL     1       5.285   5.677  18.369  0.00  0.00    +0.000 C 
ENDBRANCH  17  26
ENDBRANCH   1  17
TORSDOF 8
ENDMDL
MODEL 7
REMARK VINA RESULT:      -8.7      3.121      9.088
REMARK  Name = 
REMARK  12 active torsions:
REMARK  status: ('A' for Active; 'I' for Inactive)
REMARK    1  A    between atoms: C_1  and  O_2
REMARK    2  A    between atoms: O_2  and  C_3
REMARK    3  A    between atoms: C_6  and  C_7
REMARK    4  A    between atoms: C_7  and  C_8
REMARK    5  A    between atoms: C_7  and  N_23
REMARK    6  A    between atoms: C_8  and  N_9
REMARK    7  A    between atoms: C_10  and  C_12
REMARK    8  A    between atoms: C_12  and  O_13
REMARK    9  A    between atoms: O_13  and  C_14
REMARK   10  A    between atoms: C_15  and  C_16
REMARK   11  A    between atoms: C_18  and  C_19
REMARK   12  A    between atoms: C_21  and  C_22
REMARK                            x       y       z     vdW  Elec       q    Type
REMARK                         _______ _______ _______ _____ _____    ______ ____
ROOT
ATOM      1  C   UNL     1       2.188   7.129  19.738  0.00  0.00    +0.000 C 
ENDROOT
BRANCH   1   2
ATOM      2  N   UNL     1       1.947   7.636  21.094  0.00  0.00    +0.000 N 
ATOM      3  C   UNL     1       1.291   8.795  21.469  0.00  0.00    +0.000 C 
ATOM      4  O   UNL     1       1.122   9.041  22.652  0.00  0.00    +0.000 OA
ATOM      5  H   UNL     1       2.249   7.059  21.870  0.00  0.00    +0.000 HD
BRANCH   3   6
ATOM      6  C   UNL     1       0.795   9.703  20.340  0.00  0.00    +0.000 C 
BRANCH   6   7
ATOM      7  O   UNL     1      -0.392  10.412  20.625  0.00  0.00    +0.000 OA
BRANCH   7   8
ATOM      8  C   UNL     1      -0.241  11.748  20.939  0.00  0.00    +0.000 A 
ATOM      9  C   UNL     1      -0.767  12.105  22.198  0.00  0.00    +0.000 A 
ATOM     10  C   UNL     1      -1.449  11.111  23.103  0.00  0.00    +0.000 C 
ATOM     11  C   UNL     1      -0.640  13.430  22.658  0.00  0.00    +0.000 A 
ATOM     12  C   UNL     1       0.027  14.392  21.913  0.00  0.00    +0.000 A 
ATOM     13  C   UNL     1       0.211  15.791  22.405  0.00  0.00    +0.000 C 
ATOM     14  C   UNL     1       0.571  14.021  20.695  0.00  0.00    +0.000 A 
ATOM     15  C   UNL     1       0.477  12.711  20.189  0.00  0.00    +0.000 A 
ATOM     16  C   UNL     1       1.206  12.494  18.889  0.00  0.00    +0.000 C 
ENDBRANCH   7   8
ENDBRANCH   6   7
ENDBRANCH   3   6
ENDBRANCH   1   2
BRANCH   1  17
ATOM     17  C   UNL     1       2.889   5.737  19.619  0.00  0.00    +0.000 C 
BRANCH  17  21
ATOM     18  C   UNL     1       6.300   5.869  16.825  0.00  0.00    +0.000 A 
ATOM     19  C   UNL     1       5.080   6.457  16.474  0.00  0.00    +0.000 A 
ATOM     20  C   UNL     1       3.987   6.466  17.372  0.00  0.00    +0.000 A 
ATOM     21  C   UNL     1       4.094   5.880  18.647  0.00  0.00    +0.000 A 
ATOM     22  C   UNL     1       5.341   5.324  18.982  0.00  0.00    +0.000 A 
ATOM     23  C   UNL     1       6.415   5.294  18.088  0.00  0.00    +0.000 A 
BRANCH  18  25
ATOM     24  C   UNL     1       7.160   4.897  14.841  0.00  0.00    +0.000 C 
ATOM     25  O   UNL     1       7.290   5.869  15.880  0.00  0.00    +0.000 OA
ENDBRANCH  18  25
ENDBRANCH  17  21
BRANCH  17  26
ATOM     26  N   UNL     1       1.879   4.724  19.242  0.00  0.00    +0.000 NA
ATOM     27  C   UNL     1       0.964   4.317  20.343  0.00  0.00    +0.000 C 
ATOM     28  C   UNL     1       1.517   3.306  21.361  0.00  0.00    +0.000 C 
ATOM     29  O   UNL     1       2.094   2.162  20.735  0.00  0.00    +0.000 OA
ATOM     30  C   UNL     1       3.026   2.501  19.704  0.00  0.00    +0.000 C 
ATOM     31  C   UNL     1       2.441   3.484  18.677  0.00  0.00    +0.000 C 
ENDBRANCH  17  26
ENDBRANCH   1  17
TORSDOF 8
ENDMDL
MODEL 8
REMARK VINA RESULT:      -8.6      2.051      8.227
REMARK  Name = 
REMARK  12 active torsions:
REMARK  status: ('A' for Active; 'I' for Inactive)
REMARK    1  A    between atoms: C_1  and  O_2
REMARK    2  A    between atoms: O_2  and  C_3
REMARK    3  A    between atoms: C_6  and  C_7
REMARK    4  A    between atoms: C_7  and  C_8
REMARK    5  A    between atoms: C_7  and  N_23
REMARK    6  A    between atoms: C_8  and  N_9
REMARK    7  A    between atoms: C_10  and  C_12
REMARK    8  A    between atoms: C_12  and  O_13
REMARK    9  A    between atoms: O_13  and  C_14
REMARK   10  A    between atoms: C_15  and  C_16
REMARK   11  A    between atoms: C_18  and  C_19
REMARK   12  A    between atoms: C_21  and  C_22
REMARK                            x       y       z     vdW  Elec       q    Type
REMARK                         _______ _______ _______ _____ _____    ______ ____
ROOT
ATOM      1  C   UNL     1       2.626   6.126  18.682  0.00  0.00    +0.000 C 
ENDROOT
BRANCH   1   2
ATOM      2  N   UNL     1       2.394   6.952  19.874  0.00  0.00    +0.000 N 
ATOM      3  C   UNL     1       1.730   8.163  19.957  0.00  0.00    +0.000 C 
ATOM      4  O   UNL     1       1.570   8.694  21.044  0.00  0.00    +0.000 OA
ATOM      5  H   UNL     1       2.710   6.588  20.764  0.00  0.00    +0.000 HD
BRANCH   3   6
ATOM      6  C   UNL     1       1.212   8.759  18.644  0.00  0.00    +0.000 C 
BRANCH   6   7
ATOM      7  O   UNL     1       1.135  10.168  18.621  0.00  0.00    +0.000 OA
BRANCH   7   8
ATOM      8  C   UNL     1      -0.093  10.714  18.933  0.00  0.00    +0.000 A 
ATOM      9  C   UNL     1      -0.052  11.660  19.979  0.00  0.00    +0.000 A 
ATOM     10  C   UNL     1       1.224  12.019  20.697  0.00  0.00    +0.000 C 
ATOM     11  C   UNL     1      -1.231  12.324  20.366  0.00  0.00    +0.000 A 
ATOM     12  C   UNL     1      -2.436  12.098  19.715  0.00  0.00    +0.000 A 
ATOM     13  C   UNL     1      -3.687  12.826  20.083  0.00  0.00    +0.000 C 
ATOM     14  C   UNL     1      -2.456  11.194  18.666  0.00  0.00    +0.000 A 
ATOM     15  C   UNL     1      -1.307  10.505  18.235  0.00  0.00    +0.000 A 
ATOM     16  C   UNL     1      -1.525   9.632  17.026  0.00  0.00    +0.000 C 
ENDBRANCH   7   8
ENDBRANCH   6   7
ENDBRANCH   3   6
ENDBRANCH   1   2
BRANCH   1  17
ATOM     17  C   UNL     1       3.557   4.882  18.856  0.00  0.00    +0.000 C 
BRANCH  17  21
ATOM     18  C   UNL     1       6.710   5.277  15.797  0.00  0.00    +0.000 A 
ATOM     19  C   UNL     1       6.563   6.256  16.786  0.00  0.00    +0.000 A 
ATOM     20  C   UNL     1       5.589   6.126  17.804  0.00  0.00    +0.000 A 
ATOM     21  C   UNL     1       4.734   5.010  17.848  0.00  0.00    +0.000 A 
ATOM     22  C   UNL     1       4.926   4.030  16.859  0.00  0.00    +0.000 A 
ATOM     23  C   UNL     1       5.872   4.166  15.840  0.00  0.00    +0.000 A 
BRANCH  18  25
ATOM     24  C   UNL     1       7.373   4.937  13.546  0.00  0.00    +0.000 C 
ATOM     25  O   UNL     1       7.649   5.504  14.828  0.00  0.00    +0.000 OA
ENDBRANCH  18  25
ENDBRANCH  17  21
BRANCH  17  26
ATOM     26  N   UNL     1       2.741   3.654  18.735  0.00  0.00    +0.000 NA
ATOM     27  C   UNL     1       1.285   3.849  18.978  0.00  0.00    +0.000 C 
ATOM     28  C   UNL     1       0.835   3.936  20.445  0.00  0.00    +0.000 C 
ATOM     29  O   UNL     1       1.340   2.863  21.235  0.00  0.00    +0.000 OA
ATOM     30  C   UNL     1       2.749   2.670  21.081  0.00  0.00    +0.000 C 
ATOM     31  C   UNL     1       3.172   2.548  19.608  0.00  0.00    +0.000 C 
ENDBRANCH  17  26
ENDBRANCH   1  17
TORSDOF 8
ENDMDL
MODEL 9
REMARK VINA RESULT:      -8.6      2.469      7.831
REMARK  Name = 
REMARK  12 active torsions:
REMARK  status: ('A' for Active; 'I' for Inactive)
REMARK    1  A    between atoms: C_1  and  O_2
REMARK    2  A    between atoms: O_2  and  C_3
REMARK    3  A    between atoms: C_6  and  C_7
REMARK    4  A    between atoms: C_7  and  C_8
REMARK    5  A    between atoms: C_7  and  N_23
REMARK    6  A    between atoms: C_8  and  N_9
REMARK    7  A    between atoms: C_10  and  C_12
REMARK    8  A    between atoms: C_12  and  O_13
REMARK    9  A    between atoms: O_13  and  C_14
REMARK   10  A    between atoms: C_15  and  C_16
REMARK   11  A    between atoms: C_18  and  C_19
REMARK   12  A    between atoms: C_21  and  C_22
REMARK                            x       y       z     vdW  Elec       q    Type
REMARK                         _______ _______ _______ _____ _____    ______ ____
ROOT
ATOM      1  C   UNL     1       1.610   6.922  19.984  0.00  0.00    +0.000 C 
ENDROOT
BRANCH   1   2
ATOM      2  N   UNL     1       2.048   7.848  21.036  0.00  0.00    +0.000 N 
ATOM      3  C   UNL     1       1.312   8.839  21.662  0.00  0.00    +0.000 C 
ATOM      4  O   UNL     1       1.812   9.485  22.567  0.00  0.00    +0.000 OA
ATOM      5  H   UNL     1       2.987   7.736  21.397  0.00  0.00    +0.000 HD
BRANCH   3   6
ATOM      6  C   UNL     1      -0.124   9.047  21.171  0.00  0.00    +0.000 C 
BRANCH   6   7
ATOM      7  O   UNL     1      -0.239   9.735  19.944  0.00  0.00    +0.000 OA
BRANCH   7   8
ATOM      8  C   UNL     1       0.485  10.905  19.834  0.00  0.00    +0.000 A 
ATOM      9  C   UNL     1       1.418  10.906  18.776  0.00  0.00    +0.000 A 
ATOM     10  C   UNL     1       1.613   9.720  17.866  0.00  0.00    +0.000 C 
ATOM     11  C   UNL     1       2.191  12.056  18.528  0.00  0.00    +0.000 A 
ATOM     12  C   UNL     1       2.030  13.212  19.280  0.00  0.00    +0.000 A 
ATOM     13  C   UNL     1       2.809  14.456  19.002  0.00  0.00    +0.000 C 
ATOM     14  C   UNL     1       1.085  13.211  20.291  0.00  0.00    +0.000 A 
ATOM     15  C   UNL     1       0.283  12.091  20.581  0.00  0.00    +0.000 A 
ATOM     16  C   UNL     1      -0.740  12.323  21.663  0.00  0.00    +0.000 C 
ENDBRANCH   7   8
ENDBRANCH   6   7
ENDBRANCH   3   6
ENDBRANCH   1   2
BRANCH   1  17
ATOM     17  C   UNL     1       2.418   5.592  19.834  0.00  0.00    +0.000 C 
BRANCH  17  21
ATOM     18  C   UNL     1       5.944   6.112  17.236  0.00  0.00    +0.000 A 
ATOM     19  C   UNL     1       4.696   6.601  16.835  0.00  0.00    +0.000 A 
ATOM     20  C   UNL     1       3.561   6.486  17.672  0.00  0.00    +0.000 A 
ATOM     21  C   UNL     1       3.654   5.870  18.934  0.00  0.00    +0.000 A 
ATOM     22  C   UNL     1       4.926   5.416  19.321  0.00  0.00    +0.000 A 
ATOM     23  C   UNL     1       6.044   5.509  18.487  0.00  0.00    +0.000 A 
BRANCH  18  25
ATOM     24  C   UNL     1       7.100   5.175  15.390  0.00  0.00    +0.000 C 
ATOM     25  O   UNL     1       6.978   6.228  16.347  0.00  0.00    +0.000 OA
ENDBRANCH  18  25
ENDBRANCH  17  21
BRANCH  17  26
ATOM     26  N   UNL     1       1.504   4.530  19.356  0.00  0.00    +0.000 NA
ATOM     27  C   UNL     1       0.822   3.765  20.435  0.00  0.00    +0.000 C 
ATOM     28  C   UNL     1       1.645   2.667  21.129  0.00  0.00    +0.000 C 
ATOM     29  O   UNL     1       2.269   1.784  20.199  0.00  0.00    +0.000 OA
ATOM     30  C   UNL     1       2.987   2.472  19.171  0.00  0.00    +0.000 C 
ATOM     31  C   UNL     1       2.135   3.539  18.466  0.00  0.00    +0.000 C 
ENDBRANCH  17  26
ENDBRANCH   1  17
TORSDOF 8
ENDMDL
