MODEL 1
REMARK VINA RESULT:      -8.3      0.000      0.000
REMARK  Name = 
REMARK  5 active torsions:
REMARK  status: ('A' for Active; 'I' for Inactive)
REMARK    1  A    between atoms: C_1  and  C_2
REMARK    2  A    between atoms: C_11  and  O_12
REMARK    3  A    between atoms: C_13  and  C_14
REMARK    4  A    between atoms: N_16  and  C_17
REMARK    5  A    between atoms: C_17  and  C_18
REMARK                            x       y       z     vdW  Elec       q    Type
REMARK                         _______ _______ _______ _____ _____    ______ ____
ROOT
ATOM      1  C   UNL     1       2.136   1.881  18.105  0.00  0.00    +0.000 C 
ATOM      2  C   UNL     1       2.843   2.675  19.220  0.00  0.00    +0.000 C 
ATOM      3  C   UNL     1       2.020   2.603  20.510  0.00  0.00    +0.000 C 
ATOM      4  C   UNL     1       1.306   3.861  20.956  0.00  0.00    +0.000 C 
ATOM      5  C   UNL     1       1.774   5.137  20.337  0.00  0.00    +0.000 A 
ATOM      6  C   UNL     1       1.243   6.326  20.864  0.00  0.00    +0.000 A 
ATOM      7  C   UNL     1       1.615   7.543  20.330  0.00  0.00    +0.000 A 
ATOM      8  F   UNL     1       1.099   8.672  20.830  0.00  0.00    +0.000 F 
ATOM      9  C   UNL     1       2.503   7.608  19.268  0.00  0.00    +0.000 A 
ATOM     10  C   UNL     1       3.063   6.436  18.729  0.00  0.00    +0.000 A 
ATOM     11  C   UNL     1       3.994   6.467  17.579  0.00  0.00    +0.000 A 
ATOM     12  C   UNL     1       4.577   5.345  17.111  0.00  0.00    +0.000 A 
ATOM     13  C   UNL     1       4.273   4.043  17.781  0.00  0.00    +0.000 A 
ATOM     14  O   UNL     1       4.894   3.028  17.442  0.00  0.00    +0.000 OA
ATOM     15  N   UNL     1       3.267   4.004  18.756  0.00  0.00    +0.000 N 
ATOM     16  C   UNL     1       2.689   5.188  19.274  0.00  0.00    +0.000 A 
ENDROOT
BRANCH  12  17
ATOM     17  C   UNL     1       5.509   5.424  15.923  0.00  0.00    +0.000 C 
ATOM     18  O   UNL     1       6.212   6.404  15.678  0.00  0.00    +0.000 OA
ATOM     19  N   UNL     1       5.563   4.330  15.090  0.00  0.00    +0.000 N 
ATOM     20  H   UNL     1       5.089   3.470  15.354  0.00  0.00    +0.000 HD
BRANCH  19  21
ATOM     21  C   UNL     1       6.487   4.328  13.978  0.00  0.00    +0.000 C 
BRANCH  21  22
ATOM     22  C   UNL     1       5.936   3.576  12.826  0.00  0.00    +0.000 A 
ATOM     23  C   UNL     1       6.438   2.571  12.023  0.00  0.00    +0.000 A 
ATOM     24  C   UNL     1       5.385   2.190  11.154  0.00  0.00    +0.000 A 
ATOM     25  C   UNL     1       4.316   2.992  11.474  0.00  0.00    +0.000 A 
ATOM     26  O   UNL     1       4.642   3.840  12.484  0.00  0.00    +0.000 OA
ENDBRANCH  21  22
ENDBRANCH  19  21
ENDBRANCH  12  17
BRANCH  11  27
ATOM     27  O   UNL     1       4.199   7.693  16.971  0.00  0.00    +0.000 OA
ATOM     28  H   UNL     1       3.435   8.276  17.058  0.00  0.00    +0.000 HD
ENDBRANCH  11  27
TORSDOF 4
ENDMDL
MODEL 2
REMARK VINA RESULT:      -8.3      1.107      1.343
REMARK  Name = 
REMARK  5 active torsions:
REMARK  status: ('A' for Active; 'I' for Inactive)
REMARK    1  A    between atoms: C_1  and  C_2
REMARK    2  A    between atoms: C_11  and  O_12
REMARK    3  A    between atoms: C_13  and  C_14
REMARK    4  A    between atoms: N_16  and  C_17
REMARK    5  A    between atoms: C_17  and  C_18
REMARK                            x       y       z     vdW  Elec       q    Type
REMARK                         _______ _______ _______ _____ _____    ______ ____
ROOT
ATOM      1  C   UNL     1       2.750   2.568  19.346  0.00  0.00    +0.000 C 
ATOM      2  C   UNL     1       3.346   3.816  20.022  0.00  0.00    +0.000 C 
ATOM      3  C   UNL     1       2.404   4.311  21.124  0.00  0.00    +0.000 C 
ATOM      4  C   UNL     1       1.651   5.600  20.874  0.00  0.00    +0.000 C 
ATOM      5  C   UNL     1       2.176   6.466  19.777  0.00  0.00    +0.000 A 
ATOM      6  C   UNL     1       1.597   7.740  19.646  0.00  0.00    +0.000 A 
ATOM      7  C   UNL     1       2.018   8.588  18.643  0.00  0.00    +0.000 A 
ATOM      8  F   UNL     1       1.457   9.797  18.517  0.00  0.00    +0.000 F 
ATOM      9  C   UNL     1       3.003   8.196  17.752  0.00  0.00    +0.000 A 
ATOM     10  C   UNL     1       3.613   6.933  17.866  0.00  0.00    +0.000 A 
ATOM     11  C   UNL     1       4.649   6.473  16.916  0.00  0.00    +0.000 A 
ATOM     12  C   UNL     1       5.274   5.288  17.073  0.00  0.00    +0.000 A 
ATOM     13  C   UNL     1       4.908   4.429  18.241  0.00  0.00    +0.000 A 
ATOM     14  O   UNL     1       5.558   3.401  18.464  0.00  0.00    +0.000 OA
ATOM     15  N   UNL     1       3.813   4.800  19.034  0.00  0.00    +0.000 N 
ATOM     16  C   UNL     1       3.188   6.062  18.893  0.00  0.00    +0.000 A 
ENDROOT
BRANCH  12  17
ATOM     17  C   UNL     1       6.317   4.852  16.067  0.00  0.00    +0.000 C 
ATOM     18  O   UNL     1       7.494   4.642  16.360  0.00  0.00    +0.000 OA
ATOM     19  N   UNL     1       5.904   4.680  14.765  0.00  0.00    +0.000 N 
ATOM     20  H   UNL     1       4.913   4.723  14.540  0.00  0.00    +0.000 HD
BRANCH  19  21
ATOM     21  C   UNL     1       6.845   4.201  13.778  0.00  0.00    +0.000 C 
BRANCH  21  22
ATOM     22  C   UNL     1       6.154   3.468  12.692  0.00  0.00    +0.000 A 
ATOM     23  C   UNL     1       6.528   2.430  11.861  0.00  0.00    +0.000 A 
ATOM     24  C   UNL     1       5.382   2.097  11.097  0.00  0.00    +0.000 A 
ATOM     25  C   UNL     1       4.389   2.958  11.500  0.00  0.00    +0.000 A 
ATOM     26  O   UNL     1       4.849   3.796  12.464  0.00  0.00    +0.000 OA
ENDBRANCH  21  22
ENDBRANCH  19  21
ENDBRANCH  12  17
BRANCH  11  27
ATOM     27  O   UNL     1       4.911   7.288  15.830  0.00  0.00    +0.000 OA
ATOM     28  H   UNL     1       5.842   7.541  15.778  0.00  0.00    +0.000 HD
ENDBRANCH  11  27
TORSDOF 4
ENDMDL
MODEL 3
REMARK VINA RESULT:      -7.9      0.870      1.076
REMARK  Name = 
REMARK  5 active torsions:
REMARK  status: ('A' for Active; 'I' for Inactive)
REMARK    1  A    between atoms: C_1  and  C_2
REMARK    2  A    between atoms: C_11  and  O_12
REMARK    3  A    between atoms: C_13  and  C_14
REMARK    4  A    between atoms: N_16  and  C_17
REMARK    5  A    between atoms: C_17  and  C_18
REMARK                            x       y       z     vdW  Elec       q    Type
REMARK                         _______ _______ _______ _____ _____    ______ ____
ROOT
ATOM      1  C   UNL     1       2.154   2.002  18.190  0.00  0.00    +0.000 C 
ATOM      2  C   UNL     1       2.856   2.785  19.315  0.00  0.00    +0.000 C 
ATOM      3  C   UNL     1       2.093   2.601  20.631  0.00  0.00    +0.000 C 
ATOM      4  C   UNL     1       1.324   3.789  21.165  0.00  0.00    +0.000 C 
ATOM      5  C   UNL     1       1.689   5.119  20.594  0.00  0.00    +0.000 A 
ATOM      6  C   UNL     1       1.110   6.247  21.200  0.00  0.00    +0.000 A 
ATOM      7  C   UNL     1       1.385   7.508  20.713  0.00  0.00    +0.000 A 
ATOM      8  F   UNL     1       0.824   8.579  21.288  0.00  0.00    +0.000 F 
ATOM      9  C   UNL     1       2.223   7.679  19.623  0.00  0.00    +0.000 A 
ATOM     10  C   UNL     1       2.831   6.571  19.005  0.00  0.00    +0.000 A 
ATOM     11  C   UNL     1       3.710   6.715  17.824  0.00  0.00    +0.000 A 
ATOM     12  C   UNL     1       4.339   5.654  17.278  0.00  0.00    +0.000 A 
ATOM     13  C   UNL     1       4.142   4.306  17.893  0.00  0.00    +0.000 A 
ATOM     14  O   UNL     1       4.808   3.348  17.480  0.00  0.00    +0.000 OA
ATOM     15  N   UNL     1       3.181   4.158  18.903  0.00  0.00    +0.000 N 
ATOM     16  C   UNL     1       2.554   5.278  19.501  0.00  0.00    +0.000 A 
ENDROOT
BRANCH  12  17
ATOM     17  C   UNL     1       5.216   5.848  16.061  0.00  0.00    +0.000 C 
ATOM     18  O   UNL     1       5.054   6.758  15.248  0.00  0.00    +0.000 OA
ATOM     19  N   UNL     1       6.244   4.952  15.875  0.00  0.00    +0.000 N 
ATOM     20  H   UNL     1       6.465   4.279  16.605  0.00  0.00    +0.000 HD
BRANCH  19  21
ATOM     21  C   UNL     1       7.151   5.131  14.764  0.00  0.00    +0.000 C 
BRANCH  21  22
ATOM     22  C   UNL     1       6.708   4.357  13.581  0.00  0.00    +0.000 A 
ATOM     23  C   UNL     1       5.568   3.631  13.295  0.00  0.00    +0.000 A 
ATOM     24  C   UNL     1       5.689   3.210  11.948  0.00  0.00    +0.000 A 
ATOM     25  C   UNL     1       6.897   3.693  11.503  0.00  0.00    +0.000 A 
ATOM     26  O   UNL     1       7.524   4.386  12.488  0.00  0.00    +0.000 OA
ENDBRANCH  21  22
ENDBRANCH  19  21
ENDBRANCH  12  17
BRANCH  11  27
ATOM     27  O   UNL     1       3.815   7.978  17.270  0.00  0.00    +0.000 OA
ATOM     28  H   UNL     1       3.616   7.982  16.326  0.00  0.00    +0.000 HD
ENDBRANCH  11  27
TORSDOF 4
ENDMDL
MODEL 4
REMARK VINA RESULT:      -7.5      3.619      7.194
REMARK  Name = 
REMARK  5 active torsions:
REMARK  status: ('A' for Active; 'I' for Inactive)
REMARK    1  A    between atoms: C_1  and  C_2
REMARK    2  A    between atoms: C_11  and  O_12
REMARK    3  A    between atoms: C_13  and  C_14
REMARK    4  A    between atoms: N_16  and  C_17
REMARK    5  A    between atoms: C_17  and  C_18
REMARK                            x       y       z     vdW  Elec       q    Type
REMARK                         _______ _______ _______ _____ _____    ______ ____
ROOT
ATOM      1  C   UNL     1       2.754   2.892  21.245  0.00  0.00    +0.000 C 
ATOM      2  C   UNL     1       2.248   2.992  19.794  0.00  0.00    +0.000 C 
ATOM      3  C   UNL     1       2.696   1.761  19.001  0.00  0.00    +0.000 C 
ATOM      4  C   UNL     1       3.772   1.956  17.955  0.00  0.00    +0.000 C 
ATOM      5  C   UNL     1       4.015   3.362  17.516  0.00  0.00    +0.000 A 
ATOM      6  C   UNL     1       4.885   3.542  16.428  0.00  0.00    +0.000 A 
ATOM      7  C   UNL     1       5.173   4.815  15.979  0.00  0.00    +0.000 A 
ATOM      8  F   UNL     1       6.009   4.981  14.947  0.00  0.00    +0.000 F 
ATOM      9  C   UNL     1       4.620   5.925  16.596  0.00  0.00    +0.000 A 
ATOM     10  C   UNL     1       3.733   5.776  17.679  0.00  0.00    +0.000 A 
ATOM     11  C   UNL     1       3.145   6.940  18.378  0.00  0.00    +0.000 A 
ATOM     12  C   UNL     1       2.246   6.788  19.371  0.00  0.00    +0.000 A 
ATOM     13  C   UNL     1       1.836   5.404  19.765  0.00  0.00    +0.000 A 
ATOM     14  O   UNL     1       0.924   5.254  20.587  0.00  0.00    +0.000 OA
ATOM     15  N   UNL     1       2.522   4.314  19.212  0.00  0.00    +0.000 N 
ATOM     16  C   UNL     1       3.433   4.476  18.140  0.00  0.00    +0.000 A 
ENDROOT
BRANCH  12  17
ATOM     17  C   UNL     1       1.684   8.007  20.068  0.00  0.00    +0.000 C 
ATOM     18  O   UNL     1       1.617   8.116  21.292  0.00  0.00    +0.000 OA
ATOM     19  N   UNL     1       1.236   9.036  19.272  0.00  0.00    +0.000 N 
ATOM     20  H   UNL     1       1.406   9.011  18.270  0.00  0.00    +0.000 HD
BRANCH  19  21
ATOM     21  C   UNL     1       0.751  10.251  19.888  0.00  0.00    +0.000 C 
BRANCH  21  22
ATOM     22  C   UNL     1      -0.499  10.717  19.242  0.00  0.00    +0.000 A 
ATOM     23  C   UNL     1      -1.188  10.319  18.113  0.00  0.00    +0.000 A 
ATOM     24  C   UNL     1      -2.378  11.086  18.080  0.00  0.00    +0.000 A 
ATOM     25  C   UNL     1      -2.333  11.910  19.179  0.00  0.00    +0.000 A 
ATOM     26  O   UNL     1      -1.194  11.697  19.888  0.00  0.00    +0.000 OA
ENDBRANCH  21  22
ENDBRANCH  19  21
ENDBRANCH  12  17
BRANCH  11  27
ATOM     27  O   UNL     1       3.599   8.192  18.002  0.00  0.00    +0.000 OA
ATOM     28  H   UNL     1       2.893   8.744  17.643  0.00  0.00    +0.000 HD
ENDBRANCH  11  27
TORSDOF 4
ENDMDL
MODEL 5
REMARK VINA RESULT:      -7.5      4.126      6.730
REMARK  Name = 
REMARK  5 active torsions:
REMARK  status: ('A' for Active; 'I' for Inactive)
REMARK    1  A    between atoms: C_1  and  C_2
REMARK    2  A    between atoms: C_11  and  O_12
REMARK    3  A    between atoms: C_13  and  C_14
REMARK    4  A    between atoms: N_16  and  C_17
REMARK    5  A    between atoms: C_17  and  C_18
REMARK                            x       y       z     vdW  Elec       q    Type
REMARK                         _______ _______ _______ _____ _____    ______ ____
ROOT
ATOM      1  C   UNL     1       2.647  12.608  18.166  0.00  0.00    +0.000 C 
ATOM      2  C   UNL     1       1.203  12.085  18.282  0.00  0.00    +0.000 C 
ATOM      3  C   UNL     1       0.280  13.209  18.764  0.00  0.00    +0.000 C 
ATOM      4  C   UNL     1      -0.259  13.114  20.175  0.00  0.00    +0.000 C 
ATOM      5  C   UNL     1      -0.173  11.772  20.823  0.00  0.00    +0.000 A 
ATOM      6  C   UNL     1      -0.822  11.626  22.060  0.00  0.00    +0.000 A 
ATOM      7  C   UNL     1      -0.770  10.419  22.728  0.00  0.00    +0.000 A 
ATOM      8  F   UNL     1      -1.382  10.288  23.911  0.00  0.00    +0.000 F 
ATOM      9  C   UNL     1      -0.075   9.346  22.195  0.00  0.00    +0.000 A 
ATOM     10  C   UNL     1       0.572   9.456  20.951  0.00  0.00    +0.000 A 
ATOM     11  C   UNL     1       1.345   8.339  20.365  0.00  0.00    +0.000 A 
ATOM     12  C   UNL     1       1.906   8.432  19.143  0.00  0.00    +0.000 A 
ATOM     13  C   UNL     1       1.733   9.698  18.366  0.00  0.00    +0.000 A 
ATOM     14  O   UNL     1       2.136   9.751  17.197  0.00  0.00    +0.000 OA
ATOM     15  N   UNL     1       1.144  10.802  18.997  0.00  0.00    +0.000 N 
ATOM     16  C   UNL     1       0.519  10.688  20.262  0.00  0.00    +0.000 A 
ENDROOT
BRANCH  12  17
ATOM     17  C   UNL     1       2.701   7.269  18.592  0.00  0.00    +0.000 C 
ATOM     18  O   UNL     1       2.459   6.094  18.866  0.00  0.00    +0.000 OA
ATOM     19  N   UNL     1       3.738   7.563  17.737  0.00  0.00    +0.000 N 
ATOM     20  H   UNL     1       3.863   8.515  17.402  0.00  0.00    +0.000 HD
BRANCH  19  21
ATOM     21  C   UNL     1       4.487   6.485  17.131  0.00  0.00    +0.000 C 
BRANCH  21  22
ATOM     22  C   UNL     1       5.843   6.378  17.719  0.00  0.00    +0.000 A 
ATOM     23  C   UNL     1       7.031   7.045  17.491  0.00  0.00    +0.000 A 
ATOM     24  C   UNL     1       7.952   6.561  18.452  0.00  0.00    +0.000 A 
ATOM     25  C   UNL     1       7.274   5.623  19.194  0.00  0.00    +0.000 A 
ATOM     26  O   UNL     1       5.995   5.502  18.754  0.00  0.00    +0.000 OA
ENDBRANCH  21  22
ENDBRANCH  19  21
ENDBRANCH  12  17
BRANCH  11  27
ATOM     27  O   UNL     1       1.512   7.212  21.150  0.00  0.00    +0.000 OA
ATOM     28  H   UNL     1       0.773   7.076  21.756  0.00  0.00    +0.000 HD
ENDBRANCH  11  27
TORSDOF 4
ENDMDL
MODEL 6
REMARK VINA RESULT:      -7.3      3.540      7.255
REMARK  Name = 
REMARK  5 active torsions:
REMARK  status: ('A' for Active; 'I' for Inactive)
REMARK    1  A    between atoms: C_1  and  C_2
REMARK    2  A    between atoms: C_11  and  O_12
REMARK    3  A    between atoms: C_13  and  C_14
REMARK    4  A    between atoms: N_16  and  C_17
REMARK    5  A    between atoms: C_17  and  C_18
REMARK                            x       y       z     vdW  Elec       q    Type
REMARK                         _______ _______ _______ _____ _____    ______ ____
ROOT
ATOM      1  C   UNL     1       2.933   2.897  21.147  0.00  0.00    +0.000 C 
ATOM      2  C   UNL     1       2.389   3.045  19.714  0.00  0.00    +0.000 C 
ATOM      3  C   UNL     1       2.881   1.881  18.848  0.00  0.00    +0.000 C 
ATOM      4  C   UNL     1       3.922   2.184  17.792  0.00  0.00    +0.000 C 
ATOM      5  C   UNL     1       4.084   3.622  17.423  0.00  0.00    +0.000 A 
ATOM      6  C   UNL     1       4.919   3.902  16.329  0.00  0.00    +0.000 A 
ATOM      7  C   UNL     1       5.131   5.209  15.941  0.00  0.00    +0.000 A 
ATOM      8  F   UNL     1       5.934   5.472  14.903  0.00  0.00    +0.000 F 
ATOM      9  C   UNL     1       4.537   6.257  16.627  0.00  0.00    +0.000 A 
ATOM     10  C   UNL     1       3.684   6.007  17.718  0.00  0.00    +0.000 A 
ATOM     11  C   UNL     1       3.054   7.101  18.488  0.00  0.00    +0.000 A 
ATOM     12  C   UNL     1       2.186   6.852  19.490  0.00  0.00    +0.000 A 
ATOM     13  C   UNL     1       1.856   5.431  19.818  0.00  0.00    +0.000 A 
ATOM     14  O   UNL     1       0.971   5.192  20.650  0.00  0.00    +0.000 OA
ATOM     15  N   UNL     1       2.583   4.407  19.196  0.00  0.00    +0.000 N 
ATOM     16  C   UNL     1       3.460   4.671  18.116  0.00  0.00    +0.000 A 
ENDROOT
BRANCH  12  17
ATOM     17  C   UNL     1       1.579   8.003  20.260  0.00  0.00    +0.000 C 
ATOM     18  O   UNL     1       1.563   8.061  21.490  0.00  0.00    +0.000 OA
ATOM     19  N   UNL     1       1.028   9.030  19.528  0.00  0.00    +0.000 N 
ATOM     20  H   UNL     1       1.151   9.055  18.520  0.00  0.00    +0.000 HD
BRANCH  19  21
ATOM     21  C   UNL     1       0.494  10.185  20.215  0.00  0.00    +0.000 C 
BRANCH  21  22
ATOM     22  C   UNL     1       1.263  11.407  19.884  0.00  0.00    +0.000 A 
ATOM     23  C   UNL     1       1.699  11.960  18.696  0.00  0.00    +0.000 A 
ATOM     24  C   UNL     1       2.294  13.203  19.028  0.00  0.00    +0.000 A 
ATOM     25  C   UNL     1       2.194  13.322  20.393  0.00  0.00    +0.000 A 
ATOM     26  O   UNL     1       1.574  12.236  20.922  0.00  0.00    +0.000 OA
ENDBRANCH  21  22
ENDBRANCH  19  21
ENDBRANCH  12  17
BRANCH  11  27
ATOM     27  O   UNL     1       3.435   8.393  18.170  0.00  0.00    +0.000 OA
ATOM     28  H   UNL     1       3.473   8.539  17.216  0.00  0.00    +0.000 HD
ENDBRANCH  11  27
TORSDOF 4
ENDMDL
MODEL 7
REMARK VINA RESULT:      -7.2      3.488      6.262
REMARK  Name = 
REMARK  5 active torsions:
REMARK  status: ('A' for Active; 'I' for Inactive)
REMARK    1  A    between atoms: C_1  and  C_2
REMARK    2  A    between atoms: C_11  and  O_12
REMARK    3  A    between atoms: C_13  and  C_14
REMARK    4  A    between atoms: N_16  and  C_17
REMARK    5  A    between atoms: C_17  and  C_18
REMARK                            x       y       z     vdW  Elec       q    Type
REMARK                         _______ _______ _______ _____ _____    ______ ____
ROOT
ATOM      1  C   UNL     1       2.459  12.244  18.109  0.00  0.00    +0.000 C 
ATOM      2  C   UNL     1       1.106  11.580  18.425  0.00  0.00    +0.000 C 
ATOM      3  C   UNL     1       0.193  12.577  19.146  0.00  0.00    +0.000 C 
ATOM      4  C   UNL     1      -0.081  12.339  20.615  0.00  0.00    +0.000 C 
ATOM      5  C   UNL     1       0.227  10.971  21.128  0.00  0.00    +0.000 A 
ATOM      6  C   UNL     1      -0.180  10.683  22.441  0.00  0.00    +0.000 A 
ATOM      7  C   UNL     1       0.087   9.445  22.990  0.00  0.00    +0.000 A 
ATOM      8  F   UNL     1      -0.296   9.179  24.244  0.00  0.00    +0.000 F 
ATOM      9  C   UNL     1       0.764   8.480  22.262  0.00  0.00    +0.000 A 
ATOM     10  C   UNL     1       1.171   8.733  20.939  0.00  0.00    +0.000 A 
ATOM     11  C   UNL     1       1.918   7.735  20.143  0.00  0.00    +0.000 A 
ATOM     12  C   UNL     1       2.247   7.962  18.855  0.00  0.00    +0.000 A 
ATOM     13  C   UNL     1       1.836   9.253  18.224  0.00  0.00    +0.000 A 
ATOM     14  O   UNL     1       2.023   9.422  17.012  0.00  0.00    +0.000 OA
ATOM     15  N   UNL     1       1.279  10.253  19.033  0.00  0.00    +0.000 N 
ATOM     16  C   UNL     1       0.897   9.997  20.372  0.00  0.00    +0.000 A 
ENDROOT
BRANCH  12  17
ATOM     17  C   UNL     1       3.026   6.918  18.085  0.00  0.00    +0.000 C 
ATOM     18  O   UNL     1       4.125   7.133  17.576  0.00  0.00    +0.000 OA
ATOM     19  N   UNL     1       2.459   5.670  17.966  0.00  0.00    +0.000 N 
ATOM     20  H   UNL     1       1.618   5.444  18.490  0.00  0.00    +0.000 HD
BRANCH  19  21
ATOM     21  C   UNL     1       3.191   4.618  17.298  0.00  0.00    +0.000 C 
BRANCH  21  22
ATOM     22  C   UNL     1       3.439   3.475  18.209  0.00  0.00    +0.000 A 
ATOM     23  C   UNL     1       3.216   2.117  18.108  0.00  0.00    +0.000 A 
ATOM     24  C   UNL     1       3.770   1.532  19.274  0.00  0.00    +0.000 A 
ATOM     25  C   UNL     1       4.283   2.570  20.014  0.00  0.00    +0.000 A 
ATOM     26  O   UNL     1       4.083   3.753  19.379  0.00  0.00    +0.000 OA
ENDBRANCH  21  22
ENDBRANCH  19  21
ENDBRANCH  12  17
BRANCH  11  27
ATOM     27  O   UNL     1       2.312   6.580  20.795  0.00  0.00    +0.000 OA
ATOM     28  H   UNL     1       1.733   6.362  21.536  0.00  0.00    +0.000 HD
ENDBRANCH  11  27
TORSDOF 4
ENDMDL
MODEL 8
REMARK VINA RESULT:      -7.2      5.207      8.005
REMARK  Name = 
REMARK  5 active torsions:
REMARK  status: ('A' for Active; 'I' for Inactive)
REMARK    1  A    between atoms: C_1  and  C_2
REMARK    2  A    between atoms: C_11  and  O_12
REMARK    3  A    between atoms: C_13  and  C_14
REMARK    4  A    between atoms: N_16  and  C_17
REMARK    5  A    between atoms: C_17  and  C_18
REMARK                            x       y       z     vdW  Elec       q    Type
REMARK                         _______ _______ _______ _____ _____    ______ ____
ROOT
ATOM      1  C   UNL     1      -0.700  10.307  23.276  0.00  0.00    +0.000 C 
ATOM      2  C   UNL     1      -0.779  11.592  22.432  0.00  0.00    +0.000 C 
ATOM      3  C   UNL     1      -1.864  12.518  22.993  0.00  0.00    +0.000 C 
ATOM      4  C   UNL     1      -3.132  12.680  22.184  0.00  0.00    +0.000 C 
ATOM      5  C   UNL     1      -3.059  12.255  20.755  0.00  0.00    +0.000 A 
ATOM      6  C   UNL     1      -4.169  12.557  19.949  0.00  0.00    +0.000 A 
ATOM      7  C   UNL     1      -4.182  12.178  18.622  0.00  0.00    +0.000 A 
ATOM      8  F   UNL     1      -5.246  12.461  17.861  0.00  0.00    +0.000 F 
ATOM      9  C   UNL     1      -3.112  11.490  18.073  0.00  0.00    +0.000 A 
ATOM     10  C   UNL     1      -1.979  11.186  18.850  0.00  0.00    +0.000 A 
ATOM     11  C   UNL     1      -0.831  10.431  18.303  0.00  0.00    +0.000 A 
ATOM     12  C   UNL     1       0.278  10.202  19.036  0.00  0.00    +0.000 A 
ATOM     13  C   UNL     1       0.340  10.732  20.433  0.00  0.00    +0.000 A 
ATOM     14  O   UNL     1       1.395  10.636  21.071  0.00  0.00    +0.000 OA
ATOM     15  N   UNL     1      -0.814  11.298  20.992  0.00  0.00    +0.000 N 
ATOM     16  C   UNL     1      -1.960  11.575  20.207  0.00  0.00    +0.000 A 
ENDROOT
BRANCH  12  17
ATOM     17  C   UNL     1       1.421   9.411  18.439  0.00  0.00    +0.000 C 
ATOM     18  O   UNL     1       2.039   9.767  17.436  0.00  0.00    +0.000 OA
ATOM     19  N   UNL     1       1.775   8.241  19.070  0.00  0.00    +0.000 N 
ATOM     20  H   UNL     1       1.360   8.006  19.969  0.00  0.00    +0.000 HD
BRANCH  19  21
ATOM     21  C   UNL     1       2.903   7.482  18.580  0.00  0.00    +0.000 C 
BRANCH  21  22
ATOM     22  C   UNL     1       2.691   6.027  18.765  0.00  0.00    +0.000 A 
ATOM     23  C   UNL     1       2.022   5.065  18.034  0.00  0.00    +0.000 A 
ATOM     24  C   UNL     1       2.273   3.827  18.676  0.00  0.00    +0.000 A 
ATOM     25  C   UNL     1       3.066   4.114  19.762  0.00  0.00    +0.000 A 
ATOM     26  O   UNL     1       3.321   5.446  19.828  0.00  0.00    +0.000 OA
ENDBRANCH  21  22
ENDBRANCH  19  21
ENDBRANCH  12  17
BRANCH  11  27
ATOM     27  O   UNL     1      -0.965   9.925  17.023  0.00  0.00    +0.000 OA
ATOM     28  H   UNL     1      -1.178  10.611  16.378  0.00  0.00    +0.000 HD
ENDBRANCH  11  27
TORSDOF 4
ENDMDL
MODEL 9
REMARK VINA RESULT:      -7.1      3.712      6.498
REMARK  Name = 
REMARK  5 active torsions:
REMARK  status: ('A' for Active; 'I' for Inactive)
REMARK    1  A    between atoms: C_1  and  C_2
REMARK    2  A    between atoms: C_11  and  O_12
REMARK    3  A    between atoms: C_13  and  C_14
REMARK    4  A    between atoms: N_16  and  C_17
REMARK    5  A    between atoms: C_17  and  C_18
REMARK                            x       y       z     vdW  Elec       q    Type
REMARK                         _______ _______ _______ _____ _____    ______ ____
ROOT
ATOM      1  C   UNL     1       2.686  11.972  17.918  0.00  0.00    +0.000 C 
ATOM      2  C   UNL     1       1.248  11.451  18.090  0.00  0.00    +0.000 C 
ATOM      3  C   UNL     1       0.311  12.614  18.433  0.00  0.00    +0.000 C 
ATOM      4  C   UNL     1      -0.234  12.681  19.844  0.00  0.00    +0.000 C 
ATOM      5  C   UNL     1      -0.137  11.426  20.646  0.00  0.00    +0.000 A 
ATOM      6  C   UNL     1      -0.790  11.420  21.890  0.00  0.00    +0.000 A 
ATOM      7  C   UNL     1      -0.728  10.301  22.696  0.00  0.00    +0.000 A 
ATOM      8  F   UNL     1      -1.344  10.304  23.884  0.00  0.00    +0.000 F 
ATOM      9  C   UNL     1      -0.019   9.180  22.296  0.00  0.00    +0.000 A 
ATOM     10  C   UNL     1       0.632   9.150  21.050  0.00  0.00    +0.000 A 
ATOM     11  C   UNL     1       1.419   7.979  20.603  0.00  0.00    +0.000 A 
ATOM     12  C   UNL     1       1.985   7.933  19.380  0.00  0.00    +0.000 A 
ATOM     13  C   UNL     1       1.802   9.096  18.458  0.00  0.00    +0.000 A 
ATOM     14  O   UNL     1       2.210   9.015  17.293  0.00  0.00    +0.000 OA
ATOM     15  N   UNL     1       1.199  10.261  18.952  0.00  0.00    +0.000 N 
ATOM     16  C   UNL     1       0.569  10.290  20.220  0.00  0.00    +0.000 A 
ENDROOT
BRANCH  12  17
ATOM     17  C   UNL     1       2.794   6.722  18.973  0.00  0.00    +0.000 C 
ATOM     18  O   UNL     1       3.745   6.292  19.627  0.00  0.00    +0.000 OA
ATOM     19  N   UNL     1       2.427   6.079  17.813  0.00  0.00    +0.000 N 
ATOM     20  H   UNL     1       1.569   6.345  17.338  0.00  0.00    +0.000 HD
BRANCH  19  21
ATOM     21  C   UNL     1       3.126   4.878  17.415  0.00  0.00    +0.000 C 
BRANCH  21  22
ATOM     22  C   UNL     1       2.534   3.678  18.052  0.00  0.00    +0.000 A 
ATOM     23  C   UNL     1       3.061   2.644  18.801  0.00  0.00    +0.000 A 
ATOM     24  C   UNL     1       1.964   1.851  19.218  0.00  0.00    +0.000 A 
ATOM     25  C   UNL     1       0.842   2.443  18.687  0.00  0.00    +0.000 A 
ATOM     26  O   UNL     1       1.178   3.549  17.975  0.00  0.00    +0.000 OA
ENDBRANCH  21  22
ENDBRANCH  19  21
ENDBRANCH  12  17
BRANCH  11  27
ATOM     27  O   UNL     1       1.594   6.955  21.517  0.00  0.00    +0.000 OA
ATOM     28  H   UNL     1       2.409   7.053  22.024  0.00  0.00    +0.000 HD
ENDBRANCH  11  27
TORSDOF 4
ENDMDL
