MODEL 1
REMARK VINA RESULT:      -5.5      0.000      0.000
REMARK  Name = 
REMARK  9 active torsions:
REMARK  status: ('A' for Active; 'I' for Inactive)
REMARK    1  A    between atoms: C_1  and  C_2
REMARK    2  A    between atoms: C_2  and  N_3
REMARK    3  A    between atoms: C_10  and  O_11
REMARK    4  A    between atoms: O_11  and  C_12
REMARK    5  A    between atoms: C_13  and  O_14
REMARK    6  A    between atoms: C_20  and  C_21
REMARK    7  A    between atoms: C_21  and  C_22
REMARK    8  A    between atoms: C_21  and  O_23
REMARK    9  A    between atoms: C_24  and  O_25
REMARK                            x       y       z     vdW  Elec       q    Type
REMARK                         _______ _______ _______ _____ _____    ______ ____
ROOT
ATOM      1  N   UNL     1      -2.092  14.514  23.140  0.00  0.00    +0.000 N 
ATOM      2  C   UNL     1      -1.526  15.170  22.097  0.00  0.00    +0.000 C 
ATOM      3  O   UNL     1      -1.100  16.300  21.980  0.00  0.00    +0.000 OA
ATOM      4  C   UNL     1      -1.632  14.031  21.219  0.00  0.00    +0.000 C 
ATOM      5  C   UNL     1      -1.285  13.792  19.945  0.00  0.00    +0.000 C 
ATOM      6  C   UNL     1      -0.368  14.520  18.967  0.00  0.00    +0.000 C 
ATOM      7  O   UNL     1       0.225  13.395  18.115  0.00  0.00    +0.000 OA
ATOM      8  C   UNL     1       0.201  12.297  19.053  0.00  0.00    +0.000 C 
ATOM      9  C   UNL     1       0.298  10.725  18.892  0.00  0.00    +0.000 C 
ATOM     10  C   UNL     1       0.882  10.136  20.236  0.00  0.00    +0.000 C 
ATOM     11  C   UNL     1       0.028   9.222  21.121  0.00  0.00    +0.000 C 
ATOM     12  C   UNL     1      -0.035   9.738  22.598  0.00  0.00    +0.000 C 
ATOM     13  C   UNL     1      -1.228  10.678  22.891  0.00  0.00    +0.000 C 
ATOM     14  C   UNL     1      -0.955  12.210  23.020  0.00  0.00    +0.000 C 
ATOM     15  C   UNL     1      -2.079  13.183  22.466  0.00  0.00    +0.000 C 
ATOM     16  C   UNL     1      -1.316  12.460  19.355  0.00  0.00    +0.000 C 
ENDROOT
BRANCH   1  18
ATOM     17  C   UNL     1      -2.932  15.205  25.384  0.00  0.00    +0.000 C 
ATOM     18  C   UNL     1      -1.749  14.893  24.493  0.00  0.00    +0.000 C 
ENDBRANCH   1  18
BRANCH   8  19
ATOM     19  O   UNL     1       1.206  12.719  20.015  0.00  0.00    +0.000 OA
ATOM     20  C   UNL     1       2.433  13.134  19.395  0.00  0.00    +0.000 C 
ENDBRANCH   8  19
BRANCH   9  21
ATOM     21  O   UNL     1       1.050  10.274  17.754  0.00  0.00    +0.000 OA
ATOM     22  H   UNL     1       1.176  11.000  17.146  0.00  0.00    +0.000 HD
ENDBRANCH   9  21
BRANCH  15  23
ATOM     23  C   UNL     1      -3.509  12.536  22.462  0.00  0.00    +0.000 C 
ATOM     24  C   UNL     1      -4.615  13.351  21.807  0.00  0.00    +0.000 C 
BRANCH  23  25
ATOM     25  O   UNL     1      -3.909  12.180  23.793  0.00  0.00    +0.000 OA
ATOM     26  H   UNL     1      -4.099  11.228  23.805  0.00  0.00    +0.000 HD
ENDBRANCH  23  25
ENDBRANCH  15  23
BRANCH  16  27
ATOM     27  O   UNL     1      -2.027  11.530  20.117  0.00  0.00    +0.000 OA
ATOM     28  H   UNL     1      -2.959  11.800  20.022  0.00  0.00    +0.000 HD
ENDBRANCH  16  27
TORSDOF 6
ENDMDL
MODEL 2
REMARK VINA RESULT:      -5.2      8.376     10.805
REMARK  Name = 
REMARK  9 active torsions:
REMARK  status: ('A' for Active; 'I' for Inactive)
REMARK    1  A    between atoms: C_1  and  C_2
REMARK    2  A    between atoms: C_2  and  N_3
REMARK    3  A    between atoms: C_10  and  O_11
REMARK    4  A    between atoms: O_11  and  C_12
REMARK    5  A    between atoms: C_13  and  O_14
REMARK    6  A    between atoms: C_20  and  C_21
REMARK    7  A    between atoms: C_21  and  C_22
REMARK    8  A    between atoms: C_21  and  O_23
REMARK    9  A    between atoms: C_24  and  O_25
REMARK                            x       y       z     vdW  Elec       q    Type
REMARK                         _______ _______ _______ _____ _____    ______ ____
ROOT
ATOM      1  N   UNL     1       8.483  16.047  22.487  0.00  0.00    +0.000 N 
ATOM      2  C   UNL     1       8.695  17.005  21.550  0.00  0.00    +0.000 C 
ATOM      3  O   UNL     1       8.876  18.201  21.635  0.00  0.00    +0.000 OA
ATOM      4  C   UNL     1       8.616  16.066  20.457  0.00  0.00    +0.000 C 
ATOM      5  C   UNL     1       8.731  16.166  19.125  0.00  0.00    +0.000 C 
ATOM      6  C   UNL     1       9.280  17.256  18.210  0.00  0.00    +0.000 C 
ATOM      7  O   UNL     1       9.878  16.480  17.033  0.00  0.00    +0.000 OA
ATOM      8  C   UNL     1      10.245  15.242  17.678  0.00  0.00    +0.000 C 
ATOM      9  C   UNL     1      10.588  13.793  17.139  0.00  0.00    +0.000 C 
ATOM     10  C   UNL     1      11.533  13.095  18.194  0.00  0.00    +0.000 C 
ATOM     11  C   UNL     1      11.058  11.858  18.966  0.00  0.00    +0.000 C 
ATOM     12  C   UNL     1      11.209  12.047  20.512  0.00  0.00    +0.000 C 
ATOM     13  C   UNL     1       9.953  12.623  21.207  0.00  0.00    +0.000 C 
ATOM     14  C   UNL     1       9.966  14.122  21.647  0.00  0.00    +0.000 C 
ATOM     15  C   UNL     1       8.596  14.911  21.525  0.00  0.00    +0.000 C 
ATOM     16  C   UNL     1       8.819  15.003  18.251  0.00  0.00    +0.000 C 
ENDROOT
BRANCH   1  18
ATOM     17  C   UNL     1       8.041  15.963  24.939  0.00  0.00    +0.000 C 
ATOM     18  C   UNL     1       9.023  16.218  23.817  0.00  0.00    +0.000 C 
ENDBRANCH   1  18
BRANCH   8  19
ATOM     19  O   UNL     1      11.334  15.677  18.537  0.00  0.00    +0.000 OA
ATOM     20  C   UNL     1      12.316  16.460  17.841  0.00  0.00    +0.000 C 
ENDBRANCH   8  19
BRANCH   9  21
ATOM     21  O   UNL     1      11.158  13.752  15.821  0.00  0.00    +0.000 OA
ATOM     22  H   UNL     1      11.934  14.310  15.791  0.00  0.00    +0.000 HD
ENDBRANCH   9  21
BRANCH  15  23
ATOM     23  C   UNL     1       7.335  13.979  21.600  0.00  0.00    +0.000 C 
ATOM     24  C   UNL     1       5.989  14.646  21.360  0.00  0.00    +0.000 C 
BRANCH  23  25
ATOM     25  O   UNL     1       7.299  13.274  22.850  0.00  0.00    +0.000 OA
ATOM     26  H   UNL     1       8.178  13.337  23.256  0.00  0.00    +0.000 HD
ENDBRANCH  23  25
ENDBRANCH  15  23
BRANCH  16  27
ATOM     27  O   UNL     1       8.459  13.807  18.877  0.00  0.00    +0.000 OA
ATOM     28  H   UNL     1       7.631  13.542  18.436  0.00  0.00    +0.000 HD
ENDBRANCH  16  27
TORSDOF 6
ENDMDL
MODEL 3
REMARK VINA RESULT:      -5.0      9.007     11.564
REMARK  Name = 
REMARK  9 active torsions:
REMARK  status: ('A' for Active; 'I' for Inactive)
REMARK    1  A    between atoms: C_1  and  C_2
REMARK    2  A    between atoms: C_2  and  N_3
REMARK    3  A    between atoms: C_10  and  O_11
REMARK    4  A    between atoms: O_11  and  C_12
REMARK    5  A    between atoms: C_13  and  O_14
REMARK    6  A    between atoms: C_20  and  C_21
REMARK    7  A    between atoms: C_21  and  C_22
REMARK    8  A    between atoms: C_21  and  O_23
REMARK    9  A    between atoms: C_24  and  O_25
REMARK                            x       y       z     vdW  Elec       q    Type
REMARK                         _______ _______ _______ _____ _____    ______ ____
ROOT
ATOM      1  N   UNL     1       7.872  15.560  22.151  0.00  0.00    +0.000 N 
ATOM      2  C   UNL     1       7.923  14.206  22.194  0.00  0.00    +0.000 C 
ATOM      3  O   UNL     1       7.157  13.376  22.637  0.00  0.00    +0.000 OA
ATOM      4  C   UNL     1       9.204  14.153  21.533  0.00  0.00    +0.000 C 
ATOM      5  C   UNL     1      10.020  13.161  21.146  0.00  0.00    +0.000 C 
ATOM      6  C   UNL     1       9.817  11.659  20.976  0.00  0.00    +0.000 C 
ATOM      7  O   UNL     1      10.732  11.296  19.803  0.00  0.00    +0.000 OA
ATOM      8  C   UNL     1      10.737  12.537  19.064  0.00  0.00    +0.000 C 
ATOM      9  C   UNL     1      11.684  13.134  17.945  0.00  0.00    +0.000 C 
ATOM     10  C   UNL     1      10.836  14.150  17.084  0.00  0.00    +0.000 C 
ATOM     11  C   UNL     1      11.176  15.645  17.085  0.00  0.00    +0.000 C 
ATOM     12  C   UNL     1       9.930  16.522  17.442  0.00  0.00    +0.000 C 
ATOM     13  C   UNL     1       9.783  16.834  18.949  0.00  0.00    +0.000 C 
ATOM     14  C   UNL     1       8.700  16.063  19.769  0.00  0.00    +0.000 C 
ATOM     15  C   UNL     1       9.067  15.697  21.267  0.00  0.00    +0.000 C 
ATOM     16  C   UNL     1      11.180  13.380  20.293  0.00  0.00    +0.000 C 
ENDROOT
BRANCH   1  18
ATOM     17  C   UNL     1       6.419  17.331  23.136  0.00  0.00    +0.000 C 
ATOM     18  C   UNL     1       6.589  16.226  22.116  0.00  0.00    +0.000 C 
ENDBRANCH   1  18
BRANCH   8  19
ATOM     19  O   UNL     1       9.369  12.586  18.576  0.00  0.00    +0.000 OA
ATOM     20  C   UNL     1       8.973  11.382  17.902  0.00  0.00    +0.000 C 
ENDBRANCH   8  19
BRANCH   9  21
ATOM     21  O   UNL     1      12.333  12.159  17.112  0.00  0.00    +0.000 OA
ATOM     22  H   UNL     1      11.717  11.839  16.455  0.00  0.00    +0.000 HD
ENDBRANCH   9  21
BRANCH  15  23
ATOM     23  C   UNL     1      10.130  16.665  21.898  0.00  0.00    +0.000 C 
ATOM     24  C   UNL     1      10.630  16.302  23.288  0.00  0.00    +0.000 C 
BRANCH  23  25
ATOM     25  O   UNL     1       9.644  18.015  21.907  0.00  0.00    +0.000 OA
ATOM     26  H   UNL     1      10.165  18.526  21.267  0.00  0.00    +0.000 HD
ENDBRANCH  23  25
ENDBRANCH  15  23
BRANCH  16  27
ATOM     27  O   UNL     1      11.543  14.725  20.181  0.00  0.00    +0.000 OA
ATOM     28  H   UNL     1      11.303  15.114  21.042  0.00  0.00    +0.000 HD
ENDBRANCH  16  27
TORSDOF 6
ENDMDL
MODEL 4
REMARK VINA RESULT:      -4.9      8.366     10.430
REMARK  Name = 
REMARK  9 active torsions:
REMARK  status: ('A' for Active; 'I' for Inactive)
REMARK    1  A    between atoms: C_1  and  C_2
REMARK    2  A    between atoms: C_2  and  N_3
REMARK    3  A    between atoms: C_10  and  O_11
REMARK    4  A    between atoms: O_11  and  C_12
REMARK    5  A    between atoms: C_13  and  O_14
REMARK    6  A    between atoms: C_20  and  C_21
REMARK    7  A    between atoms: C_21  and  C_22
REMARK    8  A    between atoms: C_21  and  O_23
REMARK    9  A    between atoms: C_24  and  O_25
REMARK                            x       y       z     vdW  Elec       q    Type
REMARK                         _______ _______ _______ _____ _____    ______ ____
ROOT
ATOM      1  N   UNL     1       7.305  13.310  23.492  0.00  0.00    +0.000 N 
ATOM      2  C   UNL     1       8.147  12.356  23.022  0.00  0.00    +0.000 C 
ATOM      3  O   UNL     1       8.234  11.167  23.243  0.00  0.00    +0.000 OA
ATOM      4  C   UNL     1       8.869  13.289  22.192  0.00  0.00    +0.000 C 
ATOM      5  C   UNL     1       9.900  13.185  21.341  0.00  0.00    +0.000 C 
ATOM      6  C   UNL     1      10.566  11.993  20.662  0.00  0.00    +0.000 C 
ATOM      7  O   UNL     1      11.017  12.548  19.308  0.00  0.00    +0.000 OA
ATOM      8  C   UNL     1      10.030  13.578  19.090  0.00  0.00    +0.000 C 
ATOM      9  C   UNL     1       9.964  14.839  18.134  0.00  0.00    +0.000 C 
ATOM     10  C   UNL     1       8.442  15.158  17.858  0.00  0.00    +0.000 C 
ATOM     11  C   UNL     1       7.818  16.466  18.358  0.00  0.00    +0.000 C 
ATOM     12  C   UNL     1       6.530  16.206  19.209  0.00  0.00    +0.000 C 
ATOM     13  C   UNL     1       6.789  16.070  20.727  0.00  0.00    +0.000 C 
ATOM     14  C   UNL     1       6.748  14.644  21.365  0.00  0.00    +0.000 C 
ATOM     15  C   UNL     1       7.773  14.362  22.542  0.00  0.00    +0.000 C 
ATOM     16  C   UNL     1      10.306  14.269  20.455  0.00  0.00    +0.000 C 
ENDROOT
BRANCH   1  18
ATOM     17  C   UNL     1       5.643  13.275  25.351  0.00  0.00    +0.000 C 
ATOM     18  C   UNL     1       5.971  12.940  23.912  0.00  0.00    +0.000 C 
ENDBRANCH   1  18
BRANCH   8  19
ATOM     19  O   UNL     1       8.829  12.786  18.880  0.00  0.00    +0.000 OA
ATOM     20  C   UNL     1       8.983  11.803  17.844  0.00  0.00    +0.000 C 
ENDBRANCH   8  19
BRANCH   9  21
ATOM     21  O   UNL     1      10.701  14.713  16.907  0.00  0.00    +0.000 OA
ATOM     22  H   UNL     1      11.061  13.830  16.840  0.00  0.00    +0.000 HD
ENDBRANCH   9  21
BRANCH  15  23
ATOM     23  C   UNL     1       8.209  15.661  23.308  0.00  0.00    +0.000 C 
ATOM     24  C   UNL     1       9.352  15.506  24.300  0.00  0.00    +0.000 C 
BRANCH  23  25
ATOM     25  O   UNL     1       7.087  16.262  23.969  0.00  0.00    +0.000 OA
ATOM     26  H   UNL     1       6.301  15.727  23.774  0.00  0.00    +0.000 HD
ENDBRANCH  23  25
ENDBRANCH  15  23
BRANCH  16  27
ATOM     27  O   UNL     1       9.744  15.503  20.792  0.00  0.00    +0.000 OA
ATOM     28  H   UNL     1       8.813  15.299  20.993  0.00  0.00    +0.000 HD
ENDBRANCH  16  27
TORSDOF 6
ENDMDL
MODEL 5
REMARK VINA RESULT:      -4.9      2.000      5.843
REMARK  Name = 
REMARK  9 active torsions:
REMARK  status: ('A' for Active; 'I' for Inactive)
REMARK    1  A    between atoms: C_1  and  C_2
REMARK    2  A    between atoms: C_2  and  N_3
REMARK    3  A    between atoms: C_10  and  O_11
REMARK    4  A    between atoms: O_11  and  C_12
REMARK    5  A    between atoms: C_13  and  O_14
REMARK    6  A    between atoms: C_20  and  C_21
REMARK    7  A    between atoms: C_21  and  C_22
REMARK    8  A    between atoms: C_21  and  O_23
REMARK    9  A    between atoms: C_24  and  O_25
REMARK                            x       y       z     vdW  Elec       q    Type
REMARK                         _______ _______ _______ _____ _____    ______ ____
ROOT
ATOM      1  N   UNL     1       0.179  13.262  21.077  0.00  0.00    +0.000 N 
ATOM      2  C   UNL     1       0.158  14.098  22.145  0.00  0.00    +0.000 C 
ATOM      3  O   UNL     1       0.905  14.986  22.499  0.00  0.00    +0.000 OA
ATOM      4  C   UNL     1      -1.059  13.526  22.669  0.00  0.00    +0.000 C 
ATOM      5  C   UNL     1      -1.827  13.775  23.740  0.00  0.00    +0.000 C 
ATOM      6  C   UNL     1      -1.909  14.953  24.705  0.00  0.00    +0.000 C 
ATOM      7  O   UNL     1      -3.392  15.013  25.084  0.00  0.00    +0.000 OA
ATOM      8  C   UNL     1      -4.002  14.470  23.894  0.00  0.00    +0.000 C 
ATOM      9  C   UNL     1      -5.431  13.862  23.583  0.00  0.00    +0.000 C 
ATOM     10  C   UNL     1      -5.724  14.076  22.046  0.00  0.00    +0.000 C 
ATOM     11  C   UNL     1      -5.856  12.873  21.104  0.00  0.00    +0.000 C 
ATOM     12  C   UNL     1      -4.901  12.996  19.870  0.00  0.00    +0.000 C 
ATOM     13  C   UNL     1      -3.517  12.336  20.072  0.00  0.00    +0.000 C 
ATOM     14  C   UNL     1      -2.284  13.258  20.336  0.00  0.00    +0.000 C 
ATOM     15  C   UNL     1      -1.182  12.705  21.333  0.00  0.00    +0.000 C 
ATOM     16  C   UNL     1      -3.142  13.175  23.925  0.00  0.00    +0.000 C 
ENDROOT
BRANCH   1  18
ATOM     17  C   UNL     1       1.955  12.817  19.384  0.00  0.00    +0.000 C 
ATOM     18  C   UNL     1       0.810  13.691  19.848  0.00  0.00    +0.000 C 
ENDBRANCH   1  18
BRANCH   8  19
ATOM     19  O   UNL     1      -3.736  15.523  22.928  0.00  0.00    +0.000 OA
ATOM     20  C   UNL     1      -4.225  16.805  23.351  0.00  0.00    +0.000 C 
ENDBRANCH   8  19
BRANCH   9  21
ATOM     21  O   UNL     1      -6.501  14.374  24.394  0.00  0.00    +0.000 OA
ATOM     22  H   UNL     1      -6.420  15.324  24.468  0.00  0.00    +0.000 HD
ENDBRANCH   9  21
BRANCH  15  23
ATOM     23  C   UNL     1      -1.145  11.137  21.408  0.00  0.00    +0.000 C 
ATOM     24  C   UNL     1      -0.354  10.537  22.560  0.00  0.00    +0.000 C 
BRANCH  23  25
ATOM     25  O   UNL     1      -0.678  10.581  20.171  0.00  0.00    +0.000 OA
ATOM     26  H   UNL     1      -0.988   9.663  20.119  0.00  0.00    +0.000 HD
ENDBRANCH  23  25
ENDBRANCH  15  23
BRANCH  16  27
ATOM     27  O   UNL     1      -3.388  12.097  23.070  0.00  0.00    +0.000 OA
ATOM     28  H   UNL     1      -3.826  11.435  23.635  0.00  0.00    +0.000 HD
ENDBRANCH  16  27
TORSDOF 6
ENDMDL
MODEL 6
REMARK VINA RESULT:      -4.9      2.335      5.300
REMARK  Name = 
REMARK  9 active torsions:
REMARK  status: ('A' for Active; 'I' for Inactive)
REMARK    1  A    between atoms: C_1  and  C_2
REMARK    2  A    between atoms: C_2  and  N_3
REMARK    3  A    between atoms: C_10  and  O_11
REMARK    4  A    between atoms: O_11  and  C_12
REMARK    5  A    between atoms: C_13  and  O_14
REMARK    6  A    between atoms: C_20  and  C_21
REMARK    7  A    between atoms: C_21  and  C_22
REMARK    8  A    between atoms: C_21  and  O_23
REMARK    9  A    between atoms: C_24  and  O_25
REMARK                            x       y       z     vdW  Elec       q    Type
REMARK                         _______ _______ _______ _____ _____    ______ ____
ROOT
ATOM      1  N   UNL     1      -0.021  11.369  21.007  0.00  0.00    +0.000 N 
ATOM      2  C   UNL     1      -0.399  12.306  21.913  0.00  0.00    +0.000 C 
ATOM      3  O   UNL     1      -0.664  12.236  23.094  0.00  0.00    +0.000 OA
ATOM      4  C   UNL     1      -0.362  13.373  20.943  0.00  0.00    +0.000 C 
ATOM      5  C   UNL     1      -0.595  14.693  20.992  0.00  0.00    +0.000 C 
ATOM      6  C   UNL     1      -0.714  15.683  22.147  0.00  0.00    +0.000 C 
ATOM      7  O   UNL     1      -0.149  16.985  21.573  0.00  0.00    +0.000 OA
ATOM      8  C   UNL     1       0.790  16.474  20.603  0.00  0.00    +0.000 C 
ATOM      9  C   UNL     1       1.521  17.114  19.352  0.00  0.00    +0.000 C 
ATOM     10  C   UNL     1       2.869  16.324  19.123  0.00  0.00    +0.000 C 
ATOM     11  C   UNL     1       3.078  15.494  17.851  0.00  0.00    +0.000 C 
ATOM     12  C   UNL     1       3.489  14.020  18.181  0.00  0.00    +0.000 C 
ATOM     13  C   UNL     1       2.299  13.040  18.295  0.00  0.00    +0.000 C 
ATOM     14  C   UNL     1       1.847  12.578  19.717  0.00  0.00    +0.000 C 
ATOM     15  C   UNL     1       0.292  12.359  19.935  0.00  0.00    +0.000 C 
ATOM     16  C   UNL     1      -0.275  15.592  19.891  0.00  0.00    +0.000 C 
ENDROOT
BRANCH   1  18
ATOM     17  C   UNL     1      -0.109   8.917  21.451  0.00  0.00    +0.000 C 
ATOM     18  C   UNL     1       0.700  10.197  21.452  0.00  0.00    +0.000 C 
ENDBRANCH   1  18
BRANCH   8  19
ATOM     19  O   UNL     1       1.799  15.880  21.464  0.00  0.00    +0.000 OA
ATOM     20  C   UNL     1       2.318  16.803  22.435  0.00  0.00    +0.000 C 
ENDBRANCH   8  19
BRANCH   9  21
ATOM     21  O   UNL     1       1.754  18.529  19.441  0.00  0.00    +0.000 OA
ATOM     22  H   UNL     1       1.351  18.966  18.692  0.00  0.00    +0.000 HD
ENDBRANCH   9  21
BRANCH  15  23
ATOM     23  C   UNL     1      -0.476  12.017  18.609  0.00  0.00    +0.000 C 
ATOM     24  C   UNL     1      -1.994  11.982  18.700  0.00  0.00    +0.000 C 
BRANCH  23  25
ATOM     25  O   UNL     1      -0.007  10.779  18.055  0.00  0.00    +0.000 OA
ATOM     26  H   UNL     1       0.251  10.941  17.134  0.00  0.00    +0.000 HD
ENDBRANCH  23  25
ENDBRANCH  15  23
BRANCH  16  27
ATOM     27  O   UNL     1      -0.011  14.930  18.690  0.00  0.00    +0.000 OA
ATOM     28  H   UNL     1      -0.225  15.584  17.999  0.00  0.00    +0.000 HD
ENDBRANCH  16  27
TORSDOF 6
ENDMDL
MODEL 7
REMARK VINA RESULT:      -4.9      2.057      5.403
REMARK  Name = 
REMARK  9 active torsions:
REMARK  status: ('A' for Active; 'I' for Inactive)
REMARK    1  A    between atoms: C_1  and  C_2
REMARK    2  A    between atoms: C_2  and  N_3
REMARK    3  A    between atoms: C_10  and  O_11
REMARK    4  A    between atoms: O_11  and  C_12
REMARK    5  A    between atoms: C_13  and  O_14
REMARK    6  A    between atoms: C_20  and  C_21
REMARK    7  A    between atoms: C_21  and  C_22
REMARK    8  A    between atoms: C_21  and  O_23
REMARK    9  A    between atoms: C_24  and  O_25
REMARK                            x       y       z     vdW  Elec       q    Type
REMARK                         _______ _______ _______ _____ _____    ______ ____
ROOT
ATOM      1  N   UNL     1       0.120  10.308  21.103  0.00  0.00    +0.000 N 
ATOM      2  C   UNL     1      -0.708  10.901  21.999  0.00  0.00    +0.000 C 
ATOM      3  O   UNL     1      -1.057  10.587  23.118  0.00  0.00    +0.000 OA
ATOM      4  C   UNL     1      -0.998  12.008  21.120  0.00  0.00    +0.000 C 
ATOM      5  C   UNL     1      -1.751  13.113  21.219  0.00  0.00    +0.000 C 
ATOM      6  C   UNL     1      -2.396  13.825  22.405  0.00  0.00    +0.000 C 
ATOM      7  O   UNL     1      -2.347  15.304  22.013  0.00  0.00    +0.000 OA
ATOM      8  C   UNL     1      -1.176  15.328  21.169  0.00  0.00    +0.000 C 
ATOM      9  C   UNL     1      -0.630  16.352  20.093  0.00  0.00    +0.000 C 
ATOM     10  C   UNL     1       0.939  16.191  20.023  0.00  0.00    +0.000 C 
ATOM     11  C   UNL     1       1.613  15.675  18.748  0.00  0.00    +0.000 C 
ATOM     12  C   UNL     1       2.548  14.453  19.039  0.00  0.00    +0.000 C 
ATOM     13  C   UNL     1       1.855  13.077  18.901  0.00  0.00    +0.000 C 
ATOM     14  C   UNL     1       1.469  12.303  20.202  0.00  0.00    +0.000 C 
ATOM     15  C   UNL     1       0.124  11.465  20.160  0.00  0.00    +0.000 C 
ATOM     16  C   UNL     1      -1.701  14.193  20.243  0.00  0.00    +0.000 C 
ENDROOT
BRANCH   1  18
ATOM     17  C   UNL     1       1.200   8.063  21.015  0.00  0.00    +0.000 C 
ATOM     18  C   UNL     1       1.198   9.469  21.575  0.00  0.00    +0.000 C 
ENDBRANCH   1  18
BRANCH   8  19
ATOM     19  O   UNL     1      -0.120  15.077  22.135  0.00  0.00    +0.000 OA
ATOM     20  C   UNL     1      -0.126  16.014  23.224  0.00  0.00    +0.000 C 
ENDBRANCH   8  19
BRANCH   9  21
ATOM     21  O   UNL     1      -1.005  17.722  20.310  0.00  0.00    +0.000 OA
ATOM     22  H   UNL     1      -0.886  17.944  21.232  0.00  0.00    +0.000 HD
ENDBRANCH   9  21
BRANCH  15  23
ATOM     23  C   UNL     1      -0.279  11.015  18.711  0.00  0.00    +0.000 C 
ATOM     24  C   UNL     1      -1.623  10.314  18.574  0.00  0.00    +0.000 C 
BRANCH  23  25
ATOM     25  O   UNL     1       0.745  10.194  18.131  0.00  0.00    +0.000 OA
ATOM     26  H   UNL     1       0.327   9.384  17.798  0.00  0.00    +0.000 HD
ENDBRANCH  23  25
ENDBRANCH  15  23
BRANCH  16  27
ATOM     27  O   UNL     1      -1.053  13.842  19.057  0.00  0.00    +0.000 OA
ATOM     28  H   UNL     1      -0.260  13.355  19.348  0.00  0.00    +0.000 HD
ENDBRANCH  16  27
TORSDOF 6
ENDMDL
MODEL 8
REMARK VINA RESULT:      -4.8      7.496     11.263
REMARK  Name = 
REMARK  9 active torsions:
REMARK  status: ('A' for Active; 'I' for Inactive)
REMARK    1  A    between atoms: C_1  and  C_2
REMARK    2  A    between atoms: C_2  and  N_3
REMARK    3  A    between atoms: C_10  and  O_11
REMARK    4  A    between atoms: O_11  and  C_12
REMARK    5  A    between atoms: C_13  and  O_14
REMARK    6  A    between atoms: C_20  and  C_21
REMARK    7  A    between atoms: C_21  and  C_22
REMARK    8  A    between atoms: C_21  and  O_23
REMARK    9  A    between atoms: C_24  and  O_25
REMARK                            x       y       z     vdW  Elec       q    Type
REMARK                         _______ _______ _______ _____ _____    ______ ____
ROOT
ATOM      1  N   UNL     1       9.658  12.800  17.855  0.00  0.00    +0.000 N 
ATOM      2  C   UNL     1       8.365  13.002  17.500  0.00  0.00    +0.000 C 
ATOM      3  O   UNL     1       7.566  12.312  16.902  0.00  0.00    +0.000 OA
ATOM      4  C   UNL     1       8.325  14.317  18.093  0.00  0.00    +0.000 C 
ATOM      5  C   UNL     1       7.382  15.262  18.217  0.00  0.00    +0.000 C 
ATOM      6  C   UNL     1       5.867  15.243  18.044  0.00  0.00    +0.000 C 
ATOM      7  O   UNL     1       5.368  16.260  19.075  0.00  0.00    +0.000 OA
ATOM      8  C   UNL     1       6.402  16.166  20.078  0.00  0.00    +0.000 C 
ATOM      9  C   UNL     1       6.846  17.101  21.275  0.00  0.00    +0.000 C 
ATOM     10  C   UNL     1       7.530  16.193  22.372  0.00  0.00    +0.000 C 
ATOM     11  C   UNL     1       9.017  16.358  22.703  0.00  0.00    +0.000 C 
ATOM     12  C   UNL     1       9.790  15.001  22.595  0.00  0.00    +0.000 C 
ATOM     13  C   UNL     1      10.411  14.733  21.204  0.00  0.00    +0.000 C 
ATOM     14  C   UNL     1       9.714  13.700  20.263  0.00  0.00    +0.000 C 
ATOM     15  C   UNL     1       9.741  14.020  18.710  0.00  0.00    +0.000 C 
ATOM     16  C   UNL     1       7.548  16.437  19.063  0.00  0.00    +0.000 C 
ENDROOT
BRANCH   1  18
ATOM     17  C   UNL     1       9.240  10.602  18.957  0.00  0.00    +0.000 C 
ATOM     18  C   UNL     1      10.134  11.452  18.080  0.00  0.00    +0.000 C 
ENDBRANCH   1  18
BRANCH   8  19
ATOM     19  O   UNL     1       6.170  14.831  20.605  0.00  0.00    +0.000 OA
ATOM     20  C   UNL     1       4.838  14.656  21.115  0.00  0.00    +0.000 C 
ENDBRANCH   8  19
BRANCH   9  21
ATOM     21  O   UNL     1       5.799  17.904  21.843  0.00  0.00    +0.000 OA
ATOM     22  H   UNL     1       5.877  17.906  22.796  0.00  0.00    +0.000 HD
ENDBRANCH   9  21
BRANCH  15  23
ATOM     23  C   UNL     1      10.951  14.926  18.286  0.00  0.00    +0.000 C 
ATOM     24  C   UNL     1      10.897  15.508  16.881  0.00  0.00    +0.000 C 
BRANCH  23  25
ATOM     25  O   UNL     1      12.193  14.230  18.463  0.00  0.00    +0.000 OA
ATOM     26  H   UNL     1      12.050  13.519  19.107  0.00  0.00    +0.000 HD
ENDBRANCH  23  25
ENDBRANCH  15  23
BRANCH  16  27
ATOM     27  O   UNL     1       8.868  16.649  19.469  0.00  0.00    +0.000 OA
ATOM     28  H   UNL     1       9.246  15.754  19.540  0.00  0.00    +0.000 HD
ENDBRANCH  16  27
TORSDOF 6
ENDMDL
MODEL 9
REMARK VINA RESULT:      -4.8      2.193      3.841
REMARK  Name = 
REMARK  9 active torsions:
REMARK  status: ('A' for Active; 'I' for Inactive)
REMARK    1  A    between atoms: C_1  and  C_2
REMARK    2  A    between atoms: C_2  and  N_3
REMARK    3  A    between atoms: C_10  and  O_11
REMARK    4  A    between atoms: O_11  and  C_12
REMARK    5  A    between atoms: C_13  and  O_14
REMARK    6  A    between atoms: C_20  and  C_21
REMARK    7  A    between atoms: C_21  and  C_22
REMARK    8  A    between atoms: C_21  and  O_23
REMARK    9  A    between atoms: C_24  and  O_25
REMARK                            x       y       z     vdW  Elec       q    Type
REMARK                         _______ _______ _______ _____ _____    ______ ____
ROOT
ATOM      1  N   UNL     1      -5.246  13.242  22.597  0.00  0.00    +0.000 N 
ATOM      2  C   UNL     1      -4.098  13.056  23.296  0.00  0.00    +0.000 C 
ATOM      3  O   UNL     1      -3.889  12.759  24.453  0.00  0.00    +0.000 OA
ATOM      4  C   UNL     1      -3.263  13.346  22.156  0.00  0.00    +0.000 C 
ATOM      5  C   UNL     1      -1.938  13.380  21.948  0.00  0.00    +0.000 C 
ATOM      6  C   UNL     1      -0.751  12.846  22.743  0.00  0.00    +0.000 C 
ATOM      7  O   UNL     1       0.268  12.462  21.665  0.00  0.00    +0.000 OA
ATOM      8  C   UNL     1      -0.607  12.135  20.564  0.00  0.00    +0.000 C 
ATOM      9  C   UNL     1      -0.385  11.989  19.003  0.00  0.00    +0.000 C 
ATOM     10  C   UNL     1      -1.478  10.993  18.450  0.00  0.00    +0.000 C 
ATOM     11  C   UNL     1      -2.554  11.483  17.474  0.00  0.00    +0.000 C 
ATOM     12  C   UNL     1      -3.995  11.136  17.978  0.00  0.00    +0.000 C 
ATOM     13  C   UNL     1      -4.654  12.245  18.831  0.00  0.00    +0.000 C 
ATOM     14  C   UNL     1      -4.735  12.047  20.378  0.00  0.00    +0.000 C 
ATOM     15  C   UNL     1      -4.564  13.344  21.273  0.00  0.00    +0.000 C 
ATOM     16  C   UNL     1      -1.350  13.499  20.620  0.00  0.00    +0.000 C 
ENDROOT
BRANCH   1  18
ATOM     17  C   UNL     1      -7.325  13.280  23.972  0.00  0.00    +0.000 C 
ATOM     18  C   UNL     1      -6.444  12.536  22.991  0.00  0.00    +0.000 C 
ENDBRANCH   1  18
BRANCH   8  19
ATOM     19  O   UNL     1      -1.237  10.918  21.050  0.00  0.00    +0.000 OA
ATOM     20  C   UNL     1      -0.286   9.912  21.432  0.00  0.00    +0.000 C 
ENDBRANCH   8  19
BRANCH   9  21
ATOM     21  O   UNL     1       0.937  11.583  18.611  0.00  0.00    +0.000 OA
ATOM     22  H   UNL     1       0.956  11.426  17.668  0.00  0.00    +0.000 HD
ENDBRANCH   9  21
BRANCH  15  23
ATOM     23  C   UNL     1      -4.970  14.666  20.529  0.00  0.00    +0.000 C 
ATOM     24  C   UNL     1      -4.590  15.969  21.216  0.00  0.00    +0.000 C 
BRANCH  23  25
ATOM     25  O   UNL     1      -6.375  14.676  20.240  0.00  0.00    +0.000 OA
ATOM     26  H   UNL     1      -6.570  13.911  19.675  0.00  0.00    +0.000 HD
ENDBRANCH  23  25
ENDBRANCH  15  23
BRANCH  16  27
ATOM     27  O   UNL     1      -2.265  13.889  19.639  0.00  0.00    +0.000 OA
ATOM     28  H   UNL     1      -1.721  14.029  18.842  0.00  0.00    +0.000 HD
ENDBRANCH  16  27
TORSDOF 6
ENDMDL
