MODEL 1
REMARK VINA RESULT:      -7.8      0.000      0.000
REMARK  Name = 
REMARK  8 active torsions:
REMARK  status: ('A' for Active; 'I' for Inactive)
REMARK    1  A    between atoms: C_2  and  C_3
REMARK    2  A    between atoms: C_3  and  C_4
REMARK    3  A    between atoms: C_4  and  S_5
REMARK    4  A    between atoms: S_5  and  C_8
REMARK    5  A    between atoms: C_8  and  C_9
REMARK    6  A    between atoms: N_15  and  C_16
REMARK    7  A    between atoms: C_16  and  C_17
REMARK    8  A    between atoms: C_17  and  C_18
REMARK                            x       y       z     vdW  Elec       q    Type
REMARK                         _______ _______ _______ _____ _____    ______ ____
ROOT
ATOM      1  O   UNL     1       7.190   7.745  16.909  0.00  0.00    +0.000 OA
ATOM      2  C   UNL     1       7.733   7.423  17.960  0.00  0.00    +0.000 C 
ATOM      3  N   UNL     1       8.429   8.316  18.743  0.00  0.00    +0.000 N 
ATOM      4  H   UNL     1       9.073   7.969  19.438  0.00  0.00    +0.000 HD
ENDROOT
BRANCH   2   5
ATOM      5  C   UNL     1       7.735   5.986  18.438  0.00  0.00    +0.000 C 
BRANCH   5   6
ATOM      6  C   UNL     1       6.462   5.571  19.156  0.00  0.00    +0.000 C 
BRANCH   6   7
ATOM      7  S   UNL     1       5.514   4.446  18.163  0.00  0.00    +0.000 S 
ATOM      8  O   UNL     1       6.202   4.319  16.894  0.00  0.00    +0.000 OA
ATOM      9  O   UNL     1       5.243   3.290  18.999  0.00  0.00    +0.000 OA
BRANCH   7  10
ATOM     10  C   UNL     1       3.985   5.356  17.914  0.00  0.00    +0.000 C 
BRANCH  10  11
ATOM     11  C   UNL     1       2.897   4.697  18.715  0.00  0.00    +0.000 A 
ATOM     12  C   UNL     1       2.132   3.660  18.161  0.00  0.00    +0.000 A 
ATOM     13  C   UNL     1       1.072   3.104  18.876  0.00  0.00    +0.000 A 
ATOM     14  C   UNL     1       0.769   3.575  20.151  0.00  0.00    +0.000 A 
ATOM     15  C   UNL     1       1.527   4.595  20.719  0.00  0.00    +0.000 A 
ATOM     16  C   UNL     1       2.588   5.154  20.005  0.00  0.00    +0.000 A 
ENDBRANCH  10  11
ENDBRANCH   7  10
ENDBRANCH   6   7
ENDBRANCH   5   6
ENDBRANCH   2   5
BRANCH   3  17
ATOM     17  C   UNL     1       8.588   9.698  18.319  0.00  0.00    +0.000 C 
BRANCH  17  18
ATOM     18  C   UNL     1       9.673  10.407  19.132  0.00  0.00    +0.000 C 
BRANCH  18  19
ATOM     19  C   UNL     1      10.209  11.624  18.429  0.00  0.00    +0.000 A 
ATOM     20  C   UNL     1       9.337  12.640  18.015  0.00  0.00    +0.000 A 
ATOM     21  C   UNL     1       9.826  13.763  17.349  0.00  0.00    +0.000 A 
ATOM     22  C   UNL     1      11.191  13.879  17.086  0.00  0.00    +0.000 A 
ATOM     23  C   UNL     1      12.066  12.874  17.490  0.00  0.00    +0.000 A 
ATOM     24  C   UNL     1      11.578  11.748  18.156  0.00  0.00    +0.000 A 
ENDBRANCH  18  19
ENDBRANCH  17  18
ENDBRANCH   3  17
TORSDOF 8
ENDMDL
MODEL 2
REMARK VINA RESULT:      -7.7      1.478      1.727
REMARK  Name = 
REMARK  8 active torsions:
REMARK  status: ('A' for Active; 'I' for Inactive)
REMARK    1  A    between atoms: C_2  and  C_3
REMARK    2  A    between atoms: C_3  and  C_4
REMARK    3  A    between atoms: C_4  and  S_5
REMARK    4  A    between atoms: S_5  and  C_8
REMARK    5  A    between atoms: C_8  and  C_9
REMARK    6  A    between atoms: N_15  and  C_16
REMARK    7  A    between atoms: C_16  and  C_17
REMARK    8  A    between atoms: C_17  and  C_18
REMARK                            x       y       z     vdW  Elec       q    Type
REMARK                         _______ _______ _______ _____ _____    ______ ____
ROOT
ATOM      1  O   UNL     1       6.279   7.959  17.213  0.00  0.00    +0.000 OA
ATOM      2  C   UNL     1       7.278   7.393  17.642  0.00  0.00    +0.000 C 
ATOM      3  N   UNL     1       8.361   8.074  18.150  0.00  0.00    +0.000 N 
ATOM      4  H   UNL     1       9.248   7.602  18.238  0.00  0.00    +0.000 HD
ENDROOT
BRANCH   2   5
ATOM      5  C   UNL     1       7.420   5.887  17.575  0.00  0.00    +0.000 C 
BRANCH   5   6
ATOM      6  C   UNL     1       6.122   5.156  17.276  0.00  0.00    +0.000 C 
BRANCH   6   7
ATOM      7  S   UNL     1       5.210   4.850  18.767  0.00  0.00    +0.000 S 
ATOM      8  O   UNL     1       6.182   4.653  19.825  0.00  0.00    +0.000 OA
ATOM      9  O   UNL     1       4.198   5.888  18.850  0.00  0.00    +0.000 OA
BRANCH   7  10
ATOM     10  C   UNL     1       4.409   3.283  18.407  0.00  0.00    +0.000 C 
BRANCH  10  11
ATOM     11  C   UNL     1       3.230   3.123  19.325  0.00  0.00    +0.000 A 
ATOM     12  C   UNL     1       1.932   3.405  18.875  0.00  0.00    +0.000 A 
ATOM     13  C   UNL     1       0.850   3.333  19.750  0.00  0.00    +0.000 A 
ATOM     14  C   UNL     1       1.051   2.974  21.080  0.00  0.00    +0.000 A 
ATOM     15  C   UNL     1       2.332   2.679  21.539  0.00  0.00    +0.000 A 
ATOM     16  C   UNL     1       3.417   2.752  20.665  0.00  0.00    +0.000 A 
ENDBRANCH  10  11
ENDBRANCH   7  10
ENDBRANCH   6   7
ENDBRANCH   5   6
ENDBRANCH   2   5
BRANCH   3  17
ATOM     17  C   UNL     1       8.379   9.529  18.155  0.00  0.00    +0.000 C 
BRANCH  17  18
ATOM     18  C   UNL     1       9.051  10.072  19.417  0.00  0.00    +0.000 C 
BRANCH  18  19
ATOM     19  C   UNL     1      10.099  11.106  19.106  0.00  0.00    +0.000 A 
ATOM     20  C   UNL     1      10.439  11.385  17.776  0.00  0.00    +0.000 A 
ATOM     21  C   UNL     1      11.420  12.331  17.480  0.00  0.00    +0.000 A 
ATOM     22  C   UNL     1      12.073  13.003  18.513  0.00  0.00    +0.000 A 
ATOM     23  C   UNL     1      11.746  12.731  19.839  0.00  0.00    +0.000 A 
ATOM     24  C   UNL     1      10.764  11.784  20.137  0.00  0.00    +0.000 A 
ENDBRANCH  18  19
ENDBRANCH  17  18
ENDBRANCH   3  17
TORSDOF 8
ENDMDL
MODEL 3
REMARK VINA RESULT:      -7.7      1.234      1.767
REMARK  Name = 
REMARK  8 active torsions:
REMARK  status: ('A' for Active; 'I' for Inactive)
REMARK    1  A    between atoms: C_2  and  C_3
REMARK    2  A    between atoms: C_3  and  C_4
REMARK    3  A    between atoms: C_4  and  S_5
REMARK    4  A    between atoms: S_5  and  C_8
REMARK    5  A    between atoms: C_8  and  C_9
REMARK    6  A    between atoms: N_15  and  C_16
REMARK    7  A    between atoms: C_16  and  C_17
REMARK    8  A    between atoms: C_17  and  C_18
REMARK                            x       y       z     vdW  Elec       q    Type
REMARK                         _______ _______ _______ _____ _____    ______ ____
ROOT
ATOM      1  O   UNL     1       8.095   6.785  18.634  0.00  0.00    +0.000 OA
ATOM      2  C   UNL     1       7.532   7.372  17.716  0.00  0.00    +0.000 C 
ATOM      3  N   UNL     1       7.745   8.704  17.442  0.00  0.00    +0.000 N 
ATOM      4  H   UNL     1       7.082   9.206  16.872  0.00  0.00    +0.000 HD
ENDROOT
BRANCH   2   5
ATOM      5  C   UNL     1       6.497   6.680  16.855  0.00  0.00    +0.000 C 
BRANCH   5   6
ATOM      6  C   UNL     1       6.678   5.174  16.760  0.00  0.00    +0.000 C 
BRANCH   6   7
ATOM      7  S   UNL     1       5.338   4.325  17.556  0.00  0.00    +0.000 S 
ATOM      8  O   UNL     1       4.931   3.253  16.669  0.00  0.00    +0.000 OA
ATOM      9  O   UNL     1       5.770   4.061  18.917  0.00  0.00    +0.000 OA
BRANCH   7  10
ATOM     10  C   UNL     1       4.056   5.581  17.584  0.00  0.00    +0.000 C 
BRANCH  10  11
ATOM     11  C   UNL     1       2.967   5.137  18.520  0.00  0.00    +0.000 A 
ATOM     12  C   UNL     1       2.824   5.732  19.782  0.00  0.00    +0.000 A 
ATOM     13  C   UNL     1       1.865   5.264  20.679  0.00  0.00    +0.000 A 
ATOM     14  C   UNL     1       1.036   4.202  20.324  0.00  0.00    +0.000 A 
ATOM     15  C   UNL     1       1.159   3.610  19.070  0.00  0.00    +0.000 A 
ATOM     16  C   UNL     1       2.119   4.075  18.171  0.00  0.00    +0.000 A 
ENDBRANCH  10  11
ENDBRANCH   7  10
ENDBRANCH   6   7
ENDBRANCH   5   6
ENDBRANCH   2   5
BRANCH   3  17
ATOM     17  C   UNL     1       8.634   9.494  18.280  0.00  0.00    +0.000 C 
BRANCH  17  18
ATOM     18  C   UNL     1       8.638  10.963  17.855  0.00  0.00    +0.000 C 
BRANCH  18  19
ATOM     19  C   UNL     1       9.795  11.725  18.442  0.00  0.00    +0.000 A 
ATOM     20  C   UNL     1      10.130  12.991  17.944  0.00  0.00    +0.000 A 
ATOM     21  C   UNL     1      11.211  13.696  18.473  0.00  0.00    +0.000 A 
ATOM     22  C   UNL     1      11.970  13.138  19.502  0.00  0.00    +0.000 A 
ATOM     23  C   UNL     1      11.648  11.878  20.002  0.00  0.00    +0.000 A 
ATOM     24  C   UNL     1      10.566  11.172  19.473  0.00  0.00    +0.000 A 
ENDBRANCH  18  19
ENDBRANCH  17  18
ENDBRANCH   3  17
TORSDOF 8
ENDMDL
MODEL 4
REMARK VINA RESULT:      -7.6      1.544      1.878
REMARK  Name = 
REMARK  8 active torsions:
REMARK  status: ('A' for Active; 'I' for Inactive)
REMARK    1  A    between atoms: C_2  and  C_3
REMARK    2  A    between atoms: C_3  and  C_4
REMARK    3  A    between atoms: C_4  and  S_5
REMARK    4  A    between atoms: S_5  and  C_8
REMARK    5  A    between atoms: C_8  and  C_9
REMARK    6  A    between atoms: N_15  and  C_16
REMARK    7  A    between atoms: C_16  and  C_17
REMARK    8  A    between atoms: C_17  and  C_18
REMARK                            x       y       z     vdW  Elec       q    Type
REMARK                         _______ _______ _______ _____ _____    ______ ____
ROOT
ATOM      1  O   UNL     1       8.364   6.635  18.952  0.00  0.00    +0.000 OA
ATOM      2  C   UNL     1       7.859   7.128  17.949  0.00  0.00    +0.000 C 
ATOM      3  N   UNL     1       7.963   8.466  17.643  0.00  0.00    +0.000 N 
ATOM      4  H   UNL     1       7.324   8.874  16.977  0.00  0.00    +0.000 HD
ENDROOT
BRANCH   2   5
ATOM      5  C   UNL     1       7.014   6.299  17.004  0.00  0.00    +0.000 C 
BRANCH   5   6
ATOM      6  C   UNL     1       5.536   6.279  17.352  0.00  0.00    +0.000 C 
BRANCH   6   7
ATOM      7  S   UNL     1       5.195   5.062  18.598  0.00  0.00    +0.000 S 
ATOM      8  O   UNL     1       6.313   4.140  18.606  0.00  0.00    +0.000 OA
ATOM      9  O   UNL     1       4.806   5.794  19.790  0.00  0.00    +0.000 OA
BRANCH   7  10
ATOM     10  C   UNL     1       3.752   4.229  17.930  0.00  0.00    +0.000 C 
BRANCH  10  11
ATOM     11  C   UNL     1       2.898   3.753  19.072  0.00  0.00    +0.000 A 
ATOM     12  C   UNL     1       1.581   4.212  19.217  0.00  0.00    +0.000 A 
ATOM     13  C   UNL     1       0.819   3.832  20.321  0.00  0.00    +0.000 A 
ATOM     14  C   UNL     1       1.361   2.988  21.286  0.00  0.00    +0.000 A 
ATOM     15  C   UNL     1       2.663   2.515  21.149  0.00  0.00    +0.000 A 
ATOM     16  C   UNL     1       3.429   2.894  20.047  0.00  0.00    +0.000 A 
ENDBRANCH  10  11
ENDBRANCH   7  10
ENDBRANCH   6   7
ENDBRANCH   5   6
ENDBRANCH   2   5
BRANCH   3  17
ATOM     17  C   UNL     1       8.655   9.375  18.544  0.00  0.00    +0.000 C 
BRANCH  17  18
ATOM     18  C   UNL     1       8.943  10.715  17.866  0.00  0.00    +0.000 C 
BRANCH  18  19
ATOM     19  C   UNL     1      10.136  11.412  18.463  0.00  0.00    +0.000 A 
ATOM     20  C   UNL     1      10.409  11.291  19.832  0.00  0.00    +0.000 A 
ATOM     21  C   UNL     1      11.504  11.947  20.395  0.00  0.00    +0.000 A 
ATOM     22  C   UNL     1      12.332  12.733  19.594  0.00  0.00    +0.000 A 
ATOM     23  C   UNL     1      12.068  12.863  18.233  0.00  0.00    +0.000 A 
ATOM     24  C   UNL     1      10.972  12.207  17.668  0.00  0.00    +0.000 A 
ENDBRANCH  18  19
ENDBRANCH  17  18
ENDBRANCH   3  17
TORSDOF 8
ENDMDL
MODEL 5
REMARK VINA RESULT:      -7.6      1.562      2.200
REMARK  Name = 
REMARK  8 active torsions:
REMARK  status: ('A' for Active; 'I' for Inactive)
REMARK    1  A    between atoms: C_2  and  C_3
REMARK    2  A    between atoms: C_3  and  C_4
REMARK    3  A    between atoms: C_4  and  S_5
REMARK    4  A    between atoms: S_5  and  C_8
REMARK    5  A    between atoms: C_8  and  C_9
REMARK    6  A    between atoms: N_15  and  C_16
REMARK    7  A    between atoms: C_16  and  C_17
REMARK    8  A    between atoms: C_17  and  C_18
REMARK                            x       y       z     vdW  Elec       q    Type
REMARK                         _______ _______ _______ _____ _____    ______ ____
ROOT
ATOM      1  O   UNL     1       7.661   6.359  18.844  0.00  0.00    +0.000 OA
ATOM      2  C   UNL     1       7.517   6.863  17.736  0.00  0.00    +0.000 C 
ATOM      3  N   UNL     1       7.937   8.140  17.438  0.00  0.00    +0.000 N 
ATOM      4  H   UNL     1       7.568   8.607  16.624  0.00  0.00    +0.000 HD
ENDROOT
BRANCH   2   5
ATOM      5  C   UNL     1       6.793   6.132  16.625  0.00  0.00    +0.000 C 
BRANCH   5   6
ATOM      6  C   UNL     1       6.436   4.694  16.962  0.00  0.00    +0.000 C 
BRANCH   6   7
ATOM      7  S   UNL     1       4.691   4.523  17.234  0.00  0.00    +0.000 S 
ATOM      8  O   UNL     1       4.157   5.859  17.411  0.00  0.00    +0.000 OA
ATOM      9  O   UNL     1       4.198   3.641  16.191  0.00  0.00    +0.000 OA
BRANCH   7  10
ATOM     10  C   UNL     1       4.635   3.655  18.805  0.00  0.00    +0.000 C 
BRANCH  10  11
ATOM     11  C   UNL     1       3.204   3.574  19.259  0.00  0.00    +0.000 A 
ATOM     12  C   UNL     1       2.722   4.437  20.254  0.00  0.00    +0.000 A 
ATOM     13  C   UNL     1       1.418   4.307  20.729  0.00  0.00    +0.000 A 
ATOM     14  C   UNL     1       0.582   3.319  20.215  0.00  0.00    +0.000 A 
ATOM     15  C   UNL     1       1.044   2.463  19.218  0.00  0.00    +0.000 A 
ATOM     16  C   UNL     1       2.349   2.590  18.741  0.00  0.00    +0.000 A 
ENDBRANCH  10  11
ENDBRANCH   7  10
ENDBRANCH   6   7
ENDBRANCH   5   6
ENDBRANCH   2   5
BRANCH   3  17
ATOM     17  C   UNL     1       8.541   8.974  18.466  0.00  0.00    +0.000 C 
BRANCH  17  18
ATOM     18  C   UNL     1       8.654  10.428  18.005  0.00  0.00    +0.000 C 
BRANCH  18  19
ATOM     19  C   UNL     1       9.788  11.153  18.677  0.00  0.00    +0.000 A 
ATOM     20  C   UNL     1      10.850  11.660  17.916  0.00  0.00    +0.000 A 
ATOM     21  C   UNL     1      11.912  12.319  18.533  0.00  0.00    +0.000 A 
ATOM     22  C   UNL     1      11.924  12.474  19.919  0.00  0.00    +0.000 A 
ATOM     23  C   UNL     1      10.876  11.971  20.687  0.00  0.00    +0.000 A 
ATOM     24  C   UNL     1       9.812  11.310  20.069  0.00  0.00    +0.000 A 
ENDBRANCH  18  19
ENDBRANCH  17  18
ENDBRANCH   3  17
TORSDOF 8
ENDMDL
MODEL 6
REMARK VINA RESULT:      -7.6      1.374      2.062
REMARK  Name = 
REMARK  8 active torsions:
REMARK  status: ('A' for Active; 'I' for Inactive)
REMARK    1  A    between atoms: C_2  and  C_3
REMARK    2  A    between atoms: C_3  and  C_4
REMARK    3  A    between atoms: C_4  and  S_5
REMARK    4  A    between atoms: S_5  and  C_8
REMARK    5  A    between atoms: C_8  and  C_9
REMARK    6  A    between atoms: N_15  and  C_16
REMARK    7  A    between atoms: C_16  and  C_17
REMARK    8  A    between atoms: C_17  and  C_18
REMARK                            x       y       z     vdW  Elec       q    Type
REMARK                         _______ _______ _______ _____ _____    ______ ____
ROOT
ATOM      1  O   UNL     1       7.991   6.403  16.957  0.00  0.00    +0.000 OA
ATOM      2  C   UNL     1       6.998   7.107  17.102  0.00  0.00    +0.000 C 
ATOM      3  N   UNL     1       7.074   8.460  17.347  0.00  0.00    +0.000 N 
ATOM      4  H   UNL     1       6.271   8.942  17.722  0.00  0.00    +0.000 HD
ENDROOT
BRANCH   2   5
ATOM      5  C   UNL     1       5.604   6.516  17.092  0.00  0.00    +0.000 C 
BRANCH   5   6
ATOM      6  C   UNL     1       5.560   5.031  17.407  0.00  0.00    +0.000 C 
BRANCH   6   7
ATOM      7  S   UNL     1       5.365   4.759  19.149  0.00  0.00    +0.000 S 
ATOM      8  O   UNL     1       5.109   3.344  19.331  0.00  0.00    +0.000 OA
ATOM      9  O   UNL     1       6.488   5.416  19.795  0.00  0.00    +0.000 OA
BRANCH   7  10
ATOM     10  C   UNL     1       3.866   5.678  19.512  0.00  0.00    +0.000 C 
BRANCH  10  11
ATOM     11  C   UNL     1       2.706   4.722  19.522  0.00  0.00    +0.000 A 
ATOM     12  C   UNL     1       2.193   4.236  20.733  0.00  0.00    +0.000 A 
ATOM     13  C   UNL     1       1.170   3.289  20.738  0.00  0.00    +0.000 A 
ATOM     14  C   UNL     1       0.646   2.822  19.535  0.00  0.00    +0.000 A 
ATOM     15  C   UNL     1       1.137   3.305  18.325  0.00  0.00    +0.000 A 
ATOM     16  C   UNL     1       2.162   4.251  18.317  0.00  0.00    +0.000 A 
ENDBRANCH  10  11
ENDBRANCH   7  10
ENDBRANCH   6   7
ENDBRANCH   5   6
ENDBRANCH   2   5
BRANCH   3  17
ATOM     17  C   UNL     1       8.367   9.110  17.492  0.00  0.00    +0.000 C 
BRANCH  17  18
ATOM     18  C   UNL     1       8.665   9.433  18.957  0.00  0.00    +0.000 C 
BRANCH  18  19
ATOM     19  C   UNL     1       9.589  10.612  19.105  0.00  0.00    +0.000 A 
ATOM     20  C   UNL     1      10.135  11.226  17.970  0.00  0.00    +0.000 A 
ATOM     21  C   UNL     1      11.004  12.308  18.100  0.00  0.00    +0.000 A 
ATOM     22  C   UNL     1      11.339  12.784  19.367  0.00  0.00    +0.000 A 
ATOM     23  C   UNL     1      10.806  12.179  20.503  0.00  0.00    +0.000 A 
ATOM     24  C   UNL     1       9.936  11.095  20.374  0.00  0.00    +0.000 A 
ENDBRANCH  18  19
ENDBRANCH  17  18
ENDBRANCH   3  17
TORSDOF 8
ENDMDL
MODEL 7
REMARK VINA RESULT:      -7.5      1.362      1.443
REMARK  Name = 
REMARK  8 active torsions:
REMARK  status: ('A' for Active; 'I' for Inactive)
REMARK    1  A    between atoms: C_2  and  C_3
REMARK    2  A    between atoms: C_3  and  C_4
REMARK    3  A    between atoms: C_4  and  S_5
REMARK    4  A    between atoms: S_5  and  C_8
REMARK    5  A    between atoms: C_8  and  C_9
REMARK    6  A    between atoms: N_15  and  C_16
REMARK    7  A    between atoms: C_16  and  C_17
REMARK    8  A    between atoms: C_17  and  C_18
REMARK                            x       y       z     vdW  Elec       q    Type
REMARK                         _______ _______ _______ _____ _____    ______ ____
ROOT
ATOM      1  O   UNL     1       7.354   8.505  17.187  0.00  0.00    +0.000 OA
ATOM      2  C   UNL     1       7.925   7.908  18.093  0.00  0.00    +0.000 C 
ATOM      3  N   UNL     1       8.816   8.521  18.945  0.00  0.00    +0.000 N 
ATOM      4  H   UNL     1       9.453   7.957  19.487  0.00  0.00    +0.000 HD
ENDROOT
BRANCH   2   5
ATOM      5  C   UNL     1       7.740   6.419  18.294  0.00  0.00    +0.000 C 
BRANCH   5   6
ATOM      6  C   UNL     1       7.106   5.709  17.110  0.00  0.00    +0.000 C 
BRANCH   6   7
ATOM      7  S   UNL     1       5.785   4.650  17.641  0.00  0.00    +0.000 S 
ATOM      8  O   UNL     1       5.587   3.663  16.597  0.00  0.00    +0.000 OA
ATOM      9  O   UNL     1       6.095   4.260  19.005  0.00  0.00    +0.000 OA
BRANCH   7  10
ATOM     10  C   UNL     1       4.383   5.772  17.660  0.00  0.00    +0.000 C 
BRANCH  10  11
ATOM     11  C   UNL     1       3.286   5.158  18.485  0.00  0.00    +0.000 A 
ATOM     12  C   UNL     1       2.456   4.167  17.942  0.00  0.00    +0.000 A 
ATOM     13  C   UNL     1       1.390   3.656  18.681  0.00  0.00    +0.000 A 
ATOM     14  C   UNL     1       1.145   4.125  19.969  0.00  0.00    +0.000 A 
ATOM     15  C   UNL     1       1.969   5.100  20.525  0.00  0.00    +0.000 A 
ATOM     16  C   UNL     1       3.035   5.615  19.787  0.00  0.00    +0.000 A 
ENDBRANCH  10  11
ENDBRANCH   7  10
ENDBRANCH   6   7
ENDBRANCH   5   6
ENDBRANCH   2   5
BRANCH   3  17
ATOM     17  C   UNL     1       9.155   9.925  18.769  0.00  0.00    +0.000 C 
BRANCH  17  18
ATOM     18  C   UNL     1       9.362  10.619  20.115  0.00  0.00    +0.000 C 
BRANCH  18  19
ATOM     19  C   UNL     1      10.270  11.814  20.008  0.00  0.00    +0.000 A 
ATOM     20  C   UNL     1      10.023  12.958  20.777  0.00  0.00    +0.000 A 
ATOM     21  C   UNL     1      10.851  14.075  20.671  0.00  0.00    +0.000 A 
ATOM     22  C   UNL     1      11.932  14.059  19.790  0.00  0.00    +0.000 A 
ATOM     23  C   UNL     1      12.186  12.929  19.017  0.00  0.00    +0.000 A 
ATOM     24  C   UNL     1      11.357  11.810  19.122  0.00  0.00    +0.000 A 
ENDBRANCH  18  19
ENDBRANCH  17  18
ENDBRANCH   3  17
TORSDOF 8
ENDMDL
MODEL 8
REMARK VINA RESULT:      -7.4      1.833      2.524
REMARK  Name = 
REMARK  8 active torsions:
REMARK  status: ('A' for Active; 'I' for Inactive)
REMARK    1  A    between atoms: C_2  and  C_3
REMARK    2  A    between atoms: C_3  and  C_4
REMARK    3  A    between atoms: C_4  and  S_5
REMARK    4  A    between atoms: S_5  and  C_8
REMARK    5  A    between atoms: C_8  and  C_9
REMARK    6  A    between atoms: N_15  and  C_16
REMARK    7  A    between atoms: C_16  and  C_17
REMARK    8  A    between atoms: C_17  and  C_18
REMARK                            x       y       z     vdW  Elec       q    Type
REMARK                         _______ _______ _______ _____ _____    ______ ____
ROOT
ATOM      1  O   UNL     1       8.312   5.462  19.655  0.00  0.00    +0.000 OA
ATOM      2  C   UNL     1       7.650   5.717  18.655  0.00  0.00    +0.000 C 
ATOM      3  N   UNL     1       7.666   6.951  18.045  0.00  0.00    +0.000 N 
ATOM      4  H   UNL     1       6.925   7.200  17.408  0.00  0.00    +0.000 HD
ENDROOT
BRANCH   2   5
ATOM      5  C   UNL     1       6.702   4.699  18.057  0.00  0.00    +0.000 C 
BRANCH   5   6
ATOM      6  C   UNL     1       5.291   4.763  18.619  0.00  0.00    +0.000 C 
BRANCH   6   7
ATOM      7  S   UNL     1       4.092   4.427  17.355  0.00  0.00    +0.000 S 
ATOM      8  O   UNL     1       3.008   5.372  17.539  0.00  0.00    +0.000 OA
ATOM      9  O   UNL     1       4.825   4.347  16.104  0.00  0.00    +0.000 OA
BRANCH   7  10
ATOM     10  C   UNL     1       3.520   2.785  17.801  0.00  0.00    +0.000 C 
BRANCH  10  11
ATOM     11  C   UNL     1       2.735   2.879  19.079  0.00  0.00    +0.000 A 
ATOM     12  C   UNL     1       3.344   2.605  20.312  0.00  0.00    +0.000 A 
ATOM     13  C   UNL     1       2.595   2.615  21.488  0.00  0.00    +0.000 A 
ATOM     14  C   UNL     1       1.234   2.903  21.446  0.00  0.00    +0.000 A 
ATOM     15  C   UNL     1       0.618   3.189  20.230  0.00  0.00    +0.000 A 
ATOM     16  C   UNL     1       1.364   3.178  19.052  0.00  0.00    +0.000 A 
ENDBRANCH  10  11
ENDBRANCH   7  10
ENDBRANCH   6   7
ENDBRANCH   5   6
ENDBRANCH   2   5
BRANCH   3  17
ATOM     17  C   UNL     1       8.455   8.038  18.605  0.00  0.00    +0.000 C 
BRANCH  17  18
ATOM     18  C   UNL     1       8.256   9.332  17.815  0.00  0.00    +0.000 C 
BRANCH  18  19
ATOM     19  C   UNL     1       8.901  10.515  18.485  0.00  0.00    +0.000 A 
ATOM     20  C   UNL     1       9.521  10.365  19.732  0.00  0.00    +0.000 A 
ATOM     21  C   UNL     1      10.107  11.461  20.366  0.00  0.00    +0.000 A 
ATOM     22  C   UNL     1      10.075  12.716  19.760  0.00  0.00    +0.000 A 
ATOM     23  C   UNL     1       9.457  12.877  18.522  0.00  0.00    +0.000 A 
ATOM     24  C   UNL     1       8.870  11.782  17.886  0.00  0.00    +0.000 A 
ENDBRANCH  18  19
ENDBRANCH  17  18
ENDBRANCH   3  17
TORSDOF 8
ENDMDL
MODEL 9
REMARK VINA RESULT:      -7.3      1.287      1.914
REMARK  Name = 
REMARK  8 active torsions:
REMARK  status: ('A' for Active; 'I' for Inactive)
REMARK    1  A    between atoms: C_2  and  C_3
REMARK    2  A    between atoms: C_3  and  C_4
REMARK    3  A    between atoms: C_4  and  S_5
REMARK    4  A    between atoms: S_5  and  C_8
REMARK    5  A    between atoms: C_8  and  C_9
REMARK    6  A    between atoms: N_15  and  C_16
REMARK    7  A    between atoms: C_16  and  C_17
REMARK    8  A    between atoms: C_17  and  C_18
REMARK                            x       y       z     vdW  Elec       q    Type
REMARK                         _______ _______ _______ _____ _____    ______ ____
ROOT
ATOM      1  O   UNL     1       8.384   6.820  18.829  0.00  0.00    +0.000 OA
ATOM      2  C   UNL     1       7.648   7.379  18.023  0.00  0.00    +0.000 C 
ATOM      3  N   UNL     1       7.759   8.716  17.715  0.00  0.00    +0.000 N 
ATOM      4  H   UNL     1       6.987   9.188  17.269  0.00  0.00    +0.000 HD
ENDROOT
BRANCH   2   5
ATOM      5  C   UNL     1       6.505   6.642  17.357  0.00  0.00    +0.000 C 
BRANCH   5   6
ATOM      6  C   UNL     1       5.740   5.716  18.287  0.00  0.00    +0.000 C 
BRANCH   6   7
ATOM      7  S   UNL     1       4.569   4.737  17.382  0.00  0.00    +0.000 S 
ATOM      8  O   UNL     1       4.836   4.952  15.974  0.00  0.00    +0.000 OA
ATOM      9  O   UNL     1       4.606   3.408  17.967  0.00  0.00    +0.000 OA
BRANCH   7  10
ATOM     10  C   UNL     1       3.010   5.518  17.810  0.00  0.00    +0.000 C 
BRANCH  10  11
ATOM     11  C   UNL     1       2.339   4.700  18.878  0.00  0.00    +0.000 A 
ATOM     12  C   UNL     1       2.689   4.862  20.226  0.00  0.00    +0.000 A 
ATOM     13  C   UNL     1       2.122   4.048  21.205  0.00  0.00    +0.000 A 
ATOM     14  C   UNL     1       1.199   3.068  20.850  0.00  0.00    +0.000 A 
ATOM     15  C   UNL     1       0.833   2.904  19.517  0.00  0.00    +0.000 A 
ATOM     16  C   UNL     1       1.399   3.717  18.534  0.00  0.00    +0.000 A 
ENDBRANCH  10  11
ENDBRANCH   7  10
ENDBRANCH   6   7
ENDBRANCH   5   6
ENDBRANCH   2   5
BRANCH   3  17
ATOM     17  C   UNL     1       8.749   9.545  18.385  0.00  0.00    +0.000 C 
BRANCH  17  18
ATOM     18  C   UNL     1       8.718  10.981  17.859  0.00  0.00    +0.000 C 
BRANCH  18  19
ATOM     19  C   UNL     1       9.766  11.848  18.502  0.00  0.00    +0.000 A 
ATOM     20  C   UNL     1      10.739  11.276  19.334  0.00  0.00    +0.000 A 
ATOM     21  C   UNL     1      11.704  12.075  19.946  0.00  0.00    +0.000 A 
ATOM     22  C   UNL     1      11.703  13.454  19.735  0.00  0.00    +0.000 A 
ATOM     23  C   UNL     1      10.739  14.033  18.913  0.00  0.00    +0.000 A 
ATOM     24  C   UNL     1       9.771  13.234  18.300  0.00  0.00    +0.000 A 
ENDBRANCH  18  19
ENDBRANCH  17  18
ENDBRANCH   3  17
TORSDOF 8
ENDMDL
