MODEL 1
REMARK VINA RESULT:      -8.9      0.000      0.000
REMARK  Name = 
REMARK  7 active torsions:
REMARK  status: ('A' for Active; 'I' for Inactive)
REMARK    1  A    between atoms: C_1  and  O_2
REMARK    2  A    between atoms: O_2  and  C_3
REMARK    3  A    between atoms: C_8  and  C_9
REMARK    4  A    between atoms: C_16  and  C_17
REMARK    5  A    between atoms: C_17  and  O_18
REMARK    6  A    between atoms: C_22  and  O_23
REMARK    7  A    between atoms: O_23  and  C_24
REMARK                            x       y       z     vdW  Elec       q    Type
REMARK                         _______ _______ _______ _____ _____    ______ ____
ROOT
ATOM      1  C   UNL     1       1.350  10.196  19.164  0.00  0.00    +0.000 A 
ATOM      2  C   UNL     1       1.859   9.450  18.122  0.00  0.00    +0.000 A 
ATOM      3  N   UNL     1       2.198   8.151  18.186  0.00  0.00    +0.000 NA
ATOM      4  C   UNL     1       2.051   7.520  19.353  0.00  0.00    +0.000 A 
ATOM      5  N   UNL     1       2.387   6.184  19.388  0.00  0.00    +0.000 N 
ATOM      6  C   UNL     1       2.596   5.454  18.138  0.00  0.00    +0.000 C 
ATOM      7  C   UNL     1       1.513   4.385  17.966  0.00  0.00    +0.000 C 
ATOM      8  C   UNL     1       1.392   3.485  19.208  0.00  0.00    +0.000 C 
ATOM      9  C   UNL     1       1.161   4.364  20.448  0.00  0.00    +0.000 C 
ATOM     10  C   UNL     1       2.254   5.421  20.616  0.00  0.00    +0.000 C 
ATOM     11  N   UNL     1       1.624   8.150  20.458  0.00  0.00    +0.000 NA
ATOM     12  C   UNL     1       1.279   9.456  20.349  0.00  0.00    +0.000 A 
ENDROOT
BRANCH   1  18
ATOM     13  C   UNL     1      -0.174  12.085  18.326  0.00  0.00    +0.000 A 
ATOM     14  N   UNL     1      -0.462  13.386  18.112  0.00  0.00    +0.000 NA
ATOM     15  C   UNL     1       0.423  14.305  18.541  0.00  0.00    +0.000 A 
ATOM     16  C   UNL     1       1.595  13.984  19.187  0.00  0.00    +0.000 A 
ATOM     17  C   UNL     1       1.881  12.637  19.394  0.00  0.00    +0.000 A 
ATOM     18  C   UNL     1       1.000  11.624  18.973  0.00  0.00    +0.000 A 
BRANCH  13  20
ATOM     19  C   UNL     1      -2.416  11.653  17.600  0.00  0.00    +0.000 C 
ATOM     20  O   UNL     1      -1.113  11.156  17.918  0.00  0.00    +0.000 OA
ENDBRANCH  13  20
ENDBRANCH   1  18
BRANCH   8  21
ATOM     21  C   UNL     1       2.613   2.572  19.384  0.00  0.00    +0.000 C 
BRANCH  21  22
ATOM     22  O   UNL     1       2.514   1.434  18.535  0.00  0.00    +0.000 OA
ATOM     23  H   UNL     1       2.857   1.689  17.662  0.00  0.00    +0.000 HD
ENDBRANCH  21  22
ENDBRANCH   8  21
BRANCH  12  24
ATOM     24  O   UNL     1       0.803  10.087  21.501  0.00  0.00    +0.000 OA
BRANCH  24  25
ATOM     25  C   UNL     1      -0.624  10.027  21.791  0.00  0.00    +0.000 C 
ATOM     26  C   UNL     1      -1.114  10.576  23.139  0.00  0.00    +0.000 C 
ATOM     27  N   UNL     1      -1.845  11.608  22.453  0.00  0.00    +0.000 N 
ATOM     28  C   UNL     1      -3.099  12.138  22.869  0.00  0.00    +0.000 A 
ATOM     29  C   UNL     1      -3.308  12.294  24.237  0.00  0.00    +0.000 A 
ATOM     30  C   UNL     1      -4.560  12.655  24.706  0.00  0.00    +0.000 A 
ATOM     31  C   UNL     1      -5.575  12.948  23.798  0.00  0.00    +0.000 A 
ATOM     32  C   UNL     1      -6.845  13.325  24.266  0.00  0.00    +0.000 A 
ATOM     33  C   UNL     1      -7.753  13.919  23.403  0.00  0.00    +0.000 A 
ATOM     34  C   UNL     1      -7.457  13.971  22.048  0.00  0.00    +0.000 A 
ATOM     35  C   UNL     1      -6.256  13.415  21.569  0.00  0.00    +0.000 A 
ATOM     36  C   UNL     1      -5.266  12.931  22.423  0.00  0.00    +0.000 A 
ATOM     37  N   UNL     1      -4.062  12.482  21.972  0.00  0.00    +0.000 NA
ATOM     38  C   UNL     1      -1.501  11.132  21.150  0.00  0.00    +0.000 C 
ENDBRANCH  24  25
ENDBRANCH  12  24
TORSDOF 6
ENDMDL
MODEL 2
REMARK VINA RESULT:      -8.5      2.644      9.382
REMARK  Name = 
REMARK  7 active torsions:
REMARK  status: ('A' for Active; 'I' for Inactive)
REMARK    1  A    between atoms: C_1  and  O_2
REMARK    2  A    between atoms: O_2  and  C_3
REMARK    3  A    between atoms: C_8  and  C_9
REMARK    4  A    between atoms: C_16  and  C_17
REMARK    5  A    between atoms: C_17  and  O_18
REMARK    6  A    between atoms: C_22  and  O_23
REMARK    7  A    between atoms: O_23  and  C_24
REMARK                            x       y       z     vdW  Elec       q    Type
REMARK                         _______ _______ _______ _____ _____    ______ ____
ROOT
ATOM      1  C   UNL     1       0.792  13.949  20.595  0.00  0.00    +0.000 A 
ATOM      2  C   UNL     1      -0.155  14.949  20.536  0.00  0.00    +0.000 A 
ATOM      3  N   UNL     1      -1.422  14.851  20.975  0.00  0.00    +0.000 NA
ATOM      4  C   UNL     1      -1.816  13.689  21.501  0.00  0.00    +0.000 A 
ATOM      5  N   UNL     1      -3.113  13.620  21.963  0.00  0.00    +0.000 N 
ATOM      6  C   UNL     1      -3.890  14.848  22.134  0.00  0.00    +0.000 C 
ATOM      7  C   UNL     1      -4.190  15.077  23.618  0.00  0.00    +0.000 C 
ATOM      8  C   UNL     1      -4.820  13.837  24.275  0.00  0.00    +0.000 C 
ATOM      9  C   UNL     1      -3.906  12.623  24.040  0.00  0.00    +0.000 C 
ATOM     10  C   UNL     1      -3.622  12.396  22.554  0.00  0.00    +0.000 C 
ATOM     11  N   UNL     1      -1.008  12.620  21.560  0.00  0.00    +0.000 NA
ATOM     12  C   UNL     1       0.265  12.763  21.120  0.00  0.00    +0.000 A 
ENDROOT
BRANCH   1  18
ATOM     13  C   UNL     1       3.273  14.537  20.896  0.00  0.00    +0.000 A 
ATOM     14  N   UNL     1       4.510  14.789  20.420  0.00  0.00    +0.000 NA
ATOM     15  C   UNL     1       4.705  14.692  19.091  0.00  0.00    +0.000 A 
ATOM     16  C   UNL     1       3.713  14.344  18.204  0.00  0.00    +0.000 A 
ATOM     17  C   UNL     1       2.440  14.093  18.710  0.00  0.00    +0.000 A 
ATOM     18  C   UNL     1       2.165  14.175  20.088  0.00  0.00    +0.000 A 
BRANCH  13  20
ATOM     19  C   UNL     1       3.371  15.856  22.893  0.00  0.00    +0.000 C 
ATOM     20  O   UNL     1       3.099  14.599  22.265  0.00  0.00    +0.000 OA
ENDBRANCH  13  20
ENDBRANCH   1  18
BRANCH   8  21
ATOM     21  C   UNL     1      -6.246  13.576  23.774  0.00  0.00    +0.000 C 
BRANCH  21  22
ATOM     22  O   UNL     1      -7.169  14.454  24.407  0.00  0.00    +0.000 OA
ATOM     23  H   UNL     1      -8.060  14.217  24.098  0.00  0.00    +0.000 HD
ENDBRANCH  21  22
ENDBRANCH   8  21
BRANCH  12  24
ATOM     24  O   UNL     1       1.103  11.650  21.222  0.00  0.00    +0.000 OA
BRANCH  24  25
ATOM     25  C   UNL     1       0.624  10.367  20.722  0.00  0.00    +0.000 C 
ATOM     26  C   UNL     1       1.338   9.748  19.512  0.00  0.00    +0.000 C 
ATOM     27  N   UNL     1       1.780   8.652  20.334  0.00  0.00    +0.000 N 
ATOM     28  C   UNL     1       1.922   7.305  19.896  0.00  0.00    +0.000 A 
ATOM     29  C   UNL     1       2.396   7.098  18.602  0.00  0.00    +0.000 A 
ATOM     30  C   UNL     1       2.405   5.820  18.070  0.00  0.00    +0.000 A 
ATOM     31  C   UNL     1       2.025   4.741  18.864  0.00  0.00    +0.000 A 
ATOM     32  C   UNL     1       2.042   3.440  18.334  0.00  0.00    +0.000 A 
ATOM     33  C   UNL     1       1.980   2.346  19.183  0.00  0.00    +0.000 A 
ATOM     34  C   UNL     1       1.725   2.553  20.530  0.00  0.00    +0.000 A 
ATOM     35  C   UNL     1       1.523   3.859  21.015  0.00  0.00    +0.000 A 
ATOM     36  C   UNL     1       1.708   4.987  20.216  0.00  0.00    +0.000 A 
ATOM     37  N   UNL     1       1.609   6.256  20.701  0.00  0.00    +0.000 NA
ATOM     38  C   UNL     1       1.091   9.111  21.499  0.00  0.00    +0.000 C 
ENDBRANCH  24  25
ENDBRANCH  12  24
TORSDOF 6
ENDMDL
MODEL 3
REMARK VINA RESULT:      -8.3      2.751      9.047
REMARK  Name = 
REMARK  7 active torsions:
REMARK  status: ('A' for Active; 'I' for Inactive)
REMARK    1  A    between atoms: C_1  and  O_2
REMARK    2  A    between atoms: O_2  and  C_3
REMARK    3  A    between atoms: C_8  and  C_9
REMARK    4  A    between atoms: C_16  and  C_17
REMARK    5  A    between atoms: C_17  and  O_18
REMARK    6  A    between atoms: C_22  and  O_23
REMARK    7  A    between atoms: O_23  and  C_24
REMARK                            x       y       z     vdW  Elec       q    Type
REMARK                         _______ _______ _______ _____ _____    ______ ____
ROOT
ATOM      1  C   UNL     1      -1.981  13.459  22.325  0.00  0.00    +0.000 A 
ATOM      2  C   UNL     1      -1.811  14.700  21.747  0.00  0.00    +0.000 A 
ATOM      3  N   UNL     1      -0.658  15.176  21.247  0.00  0.00    +0.000 NA
ATOM      4  C   UNL     1       0.428  14.403  21.324  0.00  0.00    +0.000 A 
ATOM      5  N   UNL     1       1.593  14.905  20.787  0.00  0.00    +0.000 N 
ATOM      6  C   UNL     1       1.546  16.085  19.922  0.00  0.00    +0.000 C 
ATOM      7  C   UNL     1       1.960  15.707  18.497  0.00  0.00    +0.000 C 
ATOM      8  C   UNL     1       3.303  14.959  18.468  0.00  0.00    +0.000 C 
ATOM      9  C   UNL     1       3.222  13.739  19.400  0.00  0.00    +0.000 C 
ATOM     10  C   UNL     1       2.818  14.128  20.824  0.00  0.00    +0.000 C 
ATOM     11  N   UNL     1       0.408  13.200  21.918  0.00  0.00    +0.000 NA
ATOM     12  C   UNL     1      -0.777  12.749  22.397  0.00  0.00    +0.000 A 
ENDROOT
BRANCH   1  18
ATOM     13  C   UNL     1      -4.419  12.718  22.014  0.00  0.00    +0.000 A 
ATOM     14  N   UNL     1      -5.638  12.380  22.485  0.00  0.00    +0.000 NA
ATOM     15  C   UNL     1      -5.808  12.343  23.820  0.00  0.00    +0.000 A 
ATOM     16  C   UNL     1      -4.805  12.624  24.719  0.00  0.00    +0.000 A 
ATOM     17  C   UNL     1      -3.555  12.978  24.217  0.00  0.00    +0.000 A 
ATOM     18  C   UNL     1      -3.306  13.035  22.833  0.00  0.00    +0.000 A 
BRANCH  13  20
ATOM     19  C   UNL     1      -5.436  12.657  19.846  0.00  0.00    +0.000 C 
ATOM     20  O   UNL     1      -4.249  12.710  20.642  0.00  0.00    +0.000 OA
ENDBRANCH  13  20
ENDBRANCH   1  18
BRANCH   8  21
ATOM     21  C   UNL     1       4.483  15.870  18.834  0.00  0.00    +0.000 C 
BRANCH  21  22
ATOM     22  O   UNL     1       4.276  17.184  18.329  0.00  0.00    +0.000 OA
ATOM     23  H   UNL     1       3.930  17.727  19.058  0.00  0.00    +0.000 HD
ENDBRANCH  21  22
ENDBRANCH   8  21
BRANCH  12  24
ATOM     24  O   UNL     1      -0.786  11.479  22.980  0.00  0.00    +0.000 OA
BRANCH  24  25
ATOM     25  C   UNL     1      -0.800  10.311  22.109  0.00  0.00    +0.000 C 
ATOM     26  C   UNL     1      -0.046  10.393  20.774  0.00  0.00    +0.000 C 
ATOM     27  N   UNL     1       0.865   9.374  21.226  0.00  0.00    +0.000 N 
ATOM     28  C   UNL     1       1.453   8.376  20.400  0.00  0.00    +0.000 A 
ATOM     29  C   UNL     1       1.822   8.747  19.110  0.00  0.00    +0.000 A 
ATOM     30  C   UNL     1       2.252   7.783  18.213  0.00  0.00    +0.000 A 
ATOM     31  C   UNL     1       2.397   6.465  18.638  0.00  0.00    +0.000 A 
ATOM     32  C   UNL     1       2.843   5.483  17.737  0.00  0.00    +0.000 A 
ATOM     33  C   UNL     1       3.293   4.261  18.210  0.00  0.00    +0.000 A 
ATOM     34  C   UNL     1       3.131   3.960  19.555  0.00  0.00    +0.000 A 
ATOM     35  C   UNL     1       2.508   4.886  20.412  0.00  0.00    +0.000 A 
ATOM     36  C   UNL     1       2.164   6.173  19.997  0.00  0.00    +0.000 A 
ATOM     37  N   UNL     1       1.650   7.106  20.845  0.00  0.00    +0.000 NA
ATOM     38  C   UNL     1       0.189   9.175  22.470  0.00  0.00    +0.000 C 
ENDBRANCH  24  25
ENDBRANCH  12  24
TORSDOF 6
ENDMDL
MODEL 4
REMARK VINA RESULT:      -8.2      0.917      1.614
REMARK  Name = 
REMARK  7 active torsions:
REMARK  status: ('A' for Active; 'I' for Inactive)
REMARK    1  A    between atoms: C_1  and  O_2
REMARK    2  A    between atoms: O_2  and  C_3
REMARK    3  A    between atoms: C_8  and  C_9
REMARK    4  A    between atoms: C_16  and  C_17
REMARK    5  A    between atoms: C_17  and  O_18
REMARK    6  A    between atoms: C_22  and  O_23
REMARK    7  A    between atoms: O_23  and  C_24
REMARK                            x       y       z     vdW  Elec       q    Type
REMARK                         _______ _______ _______ _____ _____    ______ ____
ROOT
ATOM      1  C   UNL     1       1.244  10.439  19.150  0.00  0.00    +0.000 A 
ATOM      2  C   UNL     1       1.774   9.723  18.099  0.00  0.00    +0.000 A 
ATOM      3  N   UNL     1       2.156   8.435  18.146  0.00  0.00    +0.000 NA
ATOM      4  C   UNL     1       2.032   7.785  19.306  0.00  0.00    +0.000 A 
ATOM      5  N   UNL     1       2.411   6.461  19.325  0.00  0.00    +0.000 N 
ATOM      6  C   UNL     1       2.641   5.752  18.065  0.00  0.00    +0.000 C 
ATOM      7  C   UNL     1       1.593   4.652  17.883  0.00  0.00    +0.000 C 
ATOM      8  C   UNL     1       1.503   3.733  19.113  0.00  0.00    +0.000 C 
ATOM      9  C   UNL     1       1.246   4.589  20.365  0.00  0.00    +0.000 C 
ATOM     10  C   UNL     1       2.305   5.679  20.543  0.00  0.00    +0.000 C 
ATOM     11  N   UNL     1       1.587   8.388  20.419  0.00  0.00    +0.000 NA
ATOM     12  C   UNL     1       1.199   9.683  20.327  0.00  0.00    +0.000 A 
ENDROOT
BRANCH   1  18
ATOM     13  C   UNL     1       1.531  12.959  19.550  0.00  0.00    +0.000 A 
ATOM     14  N   UNL     1       1.136  14.244  19.429  0.00  0.00    +0.000 NA
ATOM     15  C   UNL     1       0.019  14.495  18.721  0.00  0.00    +0.000 A 
ATOM     16  C   UNL     1      -0.729  13.512  18.113  0.00  0.00    +0.000 A 
ATOM     17  C   UNL     1      -0.311  12.190  18.252  0.00  0.00    +0.000 A 
ATOM     18  C   UNL     1       0.847  11.857  18.978  0.00  0.00    +0.000 A 
BRANCH  13  20
ATOM     19  C   UNL     1       3.180  13.779  21.082  0.00  0.00    +0.000 C 
ATOM     20  O   UNL     1       2.702  12.723  20.244  0.00  0.00    +0.000 OA
ENDBRANCH  13  20
ENDBRANCH   1  18
BRANCH   8  21
ATOM     21  C   UNL     1       2.753   2.857  19.277  0.00  0.00    +0.000 C 
BRANCH  21  22
ATOM     22  O   UNL     1       2.994   2.103  18.095  0.00  0.00    +0.000 OA
ATOM     23  H   UNL     1       2.138   1.760  17.786  0.00  0.00    +0.000 HD
ENDBRANCH  21  22
ENDBRANCH   8  21
BRANCH  12  24
ATOM     24  O   UNL     1       0.705  10.284  21.487  0.00  0.00    +0.000 OA
BRANCH  24  25
ATOM     25  C   UNL     1      -0.722  10.194  21.767  0.00  0.00    +0.000 C 
ATOM     26  C   UNL     1      -1.227  10.691  23.130  0.00  0.00    +0.000 C 
ATOM     27  N   UNL     1      -1.970  11.734  22.473  0.00  0.00    +0.000 N 
ATOM     28  C   UNL     1      -3.234  12.232  22.899  0.00  0.00    +0.000 A 
ATOM     29  C   UNL     1      -3.452  12.340  24.270  0.00  0.00    +0.000 A 
ATOM     30  C   UNL     1      -4.711  12.667  24.743  0.00  0.00    +0.000 A 
ATOM     31  C   UNL     1      -5.727  12.974  23.840  0.00  0.00    +0.000 A 
ATOM     32  C   UNL     1      -7.004  13.316  24.313  0.00  0.00    +0.000 A 
ATOM     33  C   UNL     1      -7.917  13.924  23.465  0.00  0.00    +0.000 A 
ATOM     34  C   UNL     1      -7.615  14.025  22.114  0.00  0.00    +0.000 A 
ATOM     35  C   UNL     1      -6.403  13.503  21.623  0.00  0.00    +0.000 A 
ATOM     36  C   UNL     1      -5.410  13.006  22.467  0.00  0.00    +0.000 A 
ATOM     37  N   UNL     1      -4.197  12.590  22.009  0.00  0.00    +0.000 NA
ATOM     38  C   UNL     1      -1.612  11.306  21.157  0.00  0.00    +0.000 C 
ENDBRANCH  24  25
ENDBRANCH  12  24
TORSDOF 6
ENDMDL
MODEL 5
REMARK VINA RESULT:      -8.2      3.013      9.776
REMARK  Name = 
REMARK  7 active torsions:
REMARK  status: ('A' for Active; 'I' for Inactive)
REMARK    1  A    between atoms: C_1  and  O_2
REMARK    2  A    between atoms: O_2  and  C_3
REMARK    3  A    between atoms: C_8  and  C_9
REMARK    4  A    between atoms: C_16  and  C_17
REMARK    5  A    between atoms: C_17  and  O_18
REMARK    6  A    between atoms: C_22  and  O_23
REMARK    7  A    between atoms: O_23  and  C_24
REMARK                            x       y       z     vdW  Elec       q    Type
REMARK                         _______ _______ _______ _____ _____    ______ ____
ROOT
ATOM      1  C   UNL     1      -0.860  12.685  18.881  0.00  0.00    +0.000 A 
ATOM      2  C   UNL     1      -0.750  14.018  18.546  0.00  0.00    +0.000 A 
ATOM      3  N   UNL     1       0.216  14.851  18.970  0.00  0.00    +0.000 NA
ATOM      4  C   UNL     1       1.146  14.366  19.796  0.00  0.00    +0.000 A 
ATOM      5  N   UNL     1       2.137  15.235  20.200  0.00  0.00    +0.000 N 
ATOM      6  C   UNL     1       2.309  16.514  19.510  0.00  0.00    +0.000 C 
ATOM      7  C   UNL     1       3.653  16.538  18.778  0.00  0.00    +0.000 C 
ATOM      8  C   UNL     1       4.821  16.162  19.706  0.00  0.00    +0.000 C 
ATOM      9  C   UNL     1       4.529  14.799  20.357  0.00  0.00    +0.000 C 
ATOM     10  C   UNL     1       3.189  14.789  21.095  0.00  0.00    +0.000 C 
ATOM     11  N   UNL     1       1.116  13.103  20.245  0.00  0.00    +0.000 NA
ATOM     12  C   UNL     1       0.133  12.290  19.784  0.00  0.00    +0.000 A 
ENDROOT
BRANCH   1  18
ATOM     13  C   UNL     1      -3.279  11.824  18.877  0.00  0.00    +0.000 A 
ATOM     14  N   UNL     1      -4.267  11.031  18.413  0.00  0.00    +0.000 NA
ATOM     15  C   UNL     1      -3.988  10.217  17.378  0.00  0.00    +0.000 A 
ATOM     16  C   UNL     1      -2.754  10.162  16.770  0.00  0.00    +0.000 A 
ATOM     17  C   UNL     1      -1.742  10.981  17.265  0.00  0.00    +0.000 A 
ATOM     18  C   UNL     1      -1.966  11.857  18.344  0.00  0.00    +0.000 A 
BRANCH  13  20
ATOM     19  C   UNL     1      -4.959  12.707  20.339  0.00  0.00    +0.000 C 
ATOM     20  O   UNL     1      -3.594  12.684  19.912  0.00  0.00    +0.000 OA
ENDBRANCH  13  20
ENDBRANCH   1  18
BRANCH   8  21
ATOM     21  C   UNL     1       5.095  17.243  20.760  0.00  0.00    +0.000 C 
BRANCH  21  22
ATOM     22  O   UNL     1       5.377  18.490  20.137  0.00  0.00    +0.000 OA
ATOM     23  H   UNL     1       5.359  19.175  20.828  0.00  0.00    +0.000 HD
ENDBRANCH  21  22
ENDBRANCH   8  21
BRANCH  12  24
ATOM     24  O   UNL     1       0.138  10.967  20.234  0.00  0.00    +0.000 OA
BRANCH  24  25
ATOM     25  C   UNL     1       1.373  10.200  20.132  0.00  0.00    +0.000 C 
ATOM     26  C   UNL     1       1.307   8.685  20.379  0.00  0.00    +0.000 C 
ATOM     27  N   UNL     1       1.681   8.447  19.010  0.00  0.00    +0.000 N 
ATOM     28  C   UNL     1       2.496   7.370  18.559  0.00  0.00    +0.000 A 
ATOM     29  C   UNL     1       2.335   6.138  19.187  0.00  0.00    +0.000 A 
ATOM     30  C   UNL     1       3.206   5.100  18.900  0.00  0.00    +0.000 A 
ATOM     31  C   UNL     1       4.179   5.271  17.918  0.00  0.00    +0.000 A 
ATOM     32  C   UNL     1       5.059   4.220  17.613  0.00  0.00    +0.000 A 
ATOM     33  C   UNL     1       5.805   4.257  16.445  0.00  0.00    +0.000 A 
ATOM     34  C   UNL     1       5.801   5.415  15.681  0.00  0.00    +0.000 A 
ATOM     35  C   UNL     1       5.056   6.533  16.103  0.00  0.00    +0.000 A 
ATOM     36  C   UNL     1       4.195   6.484  17.199  0.00  0.00    +0.000 A 
ATOM     37  N   UNL     1       3.398   7.530  17.555  0.00  0.00    +0.000 NA
ATOM     38  C   UNL     1       1.837   9.834  18.701  0.00  0.00    +0.000 C 
ENDBRANCH  24  25
ENDBRANCH  12  24
TORSDOF 6
ENDMDL
MODEL 6
REMARK VINA RESULT:      -8.2      3.156      9.784
REMARK  Name = 
REMARK  7 active torsions:
REMARK  status: ('A' for Active; 'I' for Inactive)
REMARK    1  A    between atoms: C_1  and  O_2
REMARK    2  A    between atoms: O_2  and  C_3
REMARK    3  A    between atoms: C_8  and  C_9
REMARK    4  A    between atoms: C_16  and  C_17
REMARK    5  A    between atoms: C_17  and  O_18
REMARK    6  A    between atoms: C_22  and  O_23
REMARK    7  A    between atoms: O_23  and  C_24
REMARK                            x       y       z     vdW  Elec       q    Type
REMARK                         _______ _______ _______ _____ _____    ______ ____
ROOT
ATOM      1  C   UNL     1      -1.431  13.043  19.363  0.00  0.00    +0.000 A 
ATOM      2  C   UNL     1      -1.320  14.418  19.365  0.00  0.00    +0.000 A 
ATOM      3  N   UNL     1      -0.174  15.108  19.490  0.00  0.00    +0.000 NA
ATOM      4  C   UNL     1       0.960  14.420  19.642  0.00  0.00    +0.000 A 
ATOM      5  N   UNL     1       2.125  15.149  19.748  0.00  0.00    +0.000 N 
ATOM      6  C   UNL     1       2.125  16.572  19.405  0.00  0.00    +0.000 C 
ATOM      7  C   UNL     1       2.995  16.814  18.169  0.00  0.00    +0.000 C 
ATOM      8  C   UNL     1       4.398  16.204  18.324  0.00  0.00    +0.000 C 
ATOM      9  C   UNL     1       4.264  14.710  18.667  0.00  0.00    +0.000 C 
ATOM     10  C   UNL     1       3.402  14.481  19.910  0.00  0.00    +0.000 C 
ATOM     11  N   UNL     1       0.980  13.081  19.717  0.00  0.00    +0.000 NA
ATOM     12  C   UNL     1      -0.195  12.421  19.573  0.00  0.00    +0.000 A 
ENDROOT
BRANCH   1  18
ATOM     13  C   UNL     1      -3.116  11.563  18.113  0.00  0.00    +0.000 A 
ATOM     14  N   UNL     1      -4.337  11.012  17.952  0.00  0.00    +0.000 NA
ATOM     15  C   UNL     1      -5.269  11.262  18.891  0.00  0.00    +0.000 A 
ATOM     16  C   UNL     1      -5.036  12.043  20.000  0.00  0.00    +0.000 A 
ATOM     17  C   UNL     1      -3.773  12.611  20.148  0.00  0.00    +0.000 A 
ATOM     18  C   UNL     1      -2.751  12.389  19.206  0.00  0.00    +0.000 A 
BRANCH  13  20
ATOM     19  C   UNL     1      -2.342  10.051  16.424  0.00  0.00    +0.000 C 
ATOM     20  O   UNL     1      -2.158  11.262  17.164  0.00  0.00    +0.000 OA
ENDBRANCH  13  20
ENDBRANCH   1  18
BRANCH   8  21
ATOM     21  C   UNL     1       5.242  16.948  19.368  0.00  0.00    +0.000 C 
BRANCH  21  22
ATOM     22  O   UNL     1       6.276  17.693  18.736  0.00  0.00    +0.000 OA
ATOM     23  H   UNL     1       5.930  18.585  18.560  0.00  0.00    +0.000 HD
ENDBRANCH  21  22
ENDBRANCH   8  21
BRANCH  12  24
ATOM     24  O   UNL     1      -0.151  11.025  19.618  0.00  0.00    +0.000 OA
BRANCH  24  25
ATOM     25  C   UNL     1       1.149  10.367  19.617  0.00  0.00    +0.000 C 
ATOM     26  C   UNL     1       1.223   8.908  20.092  0.00  0.00    +0.000 C 
ATOM     27  N   UNL     1       1.618   8.499  18.769  0.00  0.00    +0.000 N 
ATOM     28  C   UNL     1       2.529   7.445  18.476  0.00  0.00    +0.000 A 
ATOM     29  C   UNL     1       2.483   6.313  19.286  0.00  0.00    +0.000 A 
ATOM     30  C   UNL     1       3.446   5.328  19.147  0.00  0.00    +0.000 A 
ATOM     31  C   UNL     1       4.399   5.436  18.137  0.00  0.00    +0.000 A 
ATOM     32  C   UNL     1       5.373   4.435  17.984  0.00  0.00    +0.000 A 
ATOM     33  C   UNL     1       6.112   4.362  16.813  0.00  0.00    +0.000 A 
ATOM     34  C   UNL     1       6.001   5.385  15.883  0.00  0.00    +0.000 A 
ATOM     35  C   UNL     1       5.156   6.481  16.140  0.00  0.00    +0.000 A 
ATOM     36  C   UNL     1       4.303   6.521  17.243  0.00  0.00    +0.000 A 
ATOM     37  N   UNL     1       3.414   7.532  17.447  0.00  0.00    +0.000 NA
ATOM     38  C   UNL     1       1.646   9.831  18.251  0.00  0.00    +0.000 C 
ENDBRANCH  24  25
ENDBRANCH  12  24
TORSDOF 6
ENDMDL
MODEL 7
REMARK VINA RESULT:      -8.0      2.897      9.406
REMARK  Name = 
REMARK  7 active torsions:
REMARK  status: ('A' for Active; 'I' for Inactive)
REMARK    1  A    between atoms: C_1  and  O_2
REMARK    2  A    between atoms: O_2  and  C_3
REMARK    3  A    between atoms: C_8  and  C_9
REMARK    4  A    between atoms: C_16  and  C_17
REMARK    5  A    between atoms: C_17  and  O_18
REMARK    6  A    between atoms: C_22  and  O_23
REMARK    7  A    between atoms: O_23  and  C_24
REMARK                            x       y       z     vdW  Elec       q    Type
REMARK                         _______ _______ _______ _____ _____    ______ ____
ROOT
ATOM      1  C   UNL     1      -0.682  13.016  19.307  0.00  0.00    +0.000 A 
ATOM      2  C   UNL     1      -0.440  14.262  18.769  0.00  0.00    +0.000 A 
ATOM      3  N   UNL     1       0.548  15.094  19.142  0.00  0.00    +0.000 NA
ATOM      4  C   UNL     1       1.360  14.703  20.127  0.00  0.00    +0.000 A 
ATOM      5  N   UNL     1       2.376  15.565  20.479  0.00  0.00    +0.000 N 
ATOM      6  C   UNL     1       2.708  16.692  19.607  0.00  0.00    +0.000 C 
ATOM      7  C   UNL     1       4.110  16.506  19.019  0.00  0.00    +0.000 C 
ATOM      8  C   UNL     1       5.158  16.225  20.109  0.00  0.00    +0.000 C 
ATOM      9  C   UNL     1       4.705  15.015  20.944  0.00  0.00    +0.000 C 
ATOM     10  C   UNL     1       3.308  15.216  21.535  0.00  0.00    +0.000 C 
ATOM     11  N   UNL     1       1.192  13.540  20.773  0.00  0.00    +0.000 NA
ATOM     12  C   UNL     1       0.193  12.723  20.358  0.00  0.00    +0.000 A 
ENDROOT
BRANCH   1  18
ATOM     13  C   UNL     1      -3.132  12.248  19.281  0.00  0.00    +0.000 A 
ATOM     14  N   UNL     1      -4.132  11.448  18.855  0.00  0.00    +0.000 NA
ATOM     15  C   UNL     1      -3.843  10.523  17.920  0.00  0.00    +0.000 A 
ATOM     16  C   UNL     1      -2.589  10.361  17.377  0.00  0.00    +0.000 A 
ATOM     17  C   UNL     1      -1.566  11.190  17.832  0.00  0.00    +0.000 A 
ATOM     18  C   UNL     1      -1.798  12.179  18.806  0.00  0.00    +0.000 A 
BRANCH  13  20
ATOM     19  C   UNL     1      -3.608  12.790  21.565  0.00  0.00    +0.000 C 
ATOM     20  O   UNL     1      -3.454  13.220  20.209  0.00  0.00    +0.000 OA
ENDBRANCH  13  20
ENDBRANCH   1  18
BRANCH   8  21
ATOM     21  C   UNL     1       5.422  17.452  20.991  0.00  0.00    +0.000 C 
BRANCH  21  22
ATOM     22  O   UNL     1       5.549  18.624  20.195  0.00  0.00    +0.000 OA
ATOM     23  H   UNL     1       4.712  18.744  19.714  0.00  0.00    +0.000 HD
ENDBRANCH  21  22
ENDBRANCH   8  21
BRANCH  12  24
ATOM     24  O   UNL     1       0.055  11.500  21.019  0.00  0.00    +0.000 OA
BRANCH  24  25
ATOM     25  C   UNL     1       1.167  10.558  20.985  0.00  0.00    +0.000 C 
ATOM     26  C   UNL     1       0.928   9.136  21.514  0.00  0.00    +0.000 C 
ATOM     27  N   UNL     1       1.146   8.608  20.193  0.00  0.00    +0.000 N 
ATOM     28  C   UNL     1       1.773   7.364  19.901  0.00  0.00    +0.000 A 
ATOM     29  C   UNL     1       1.511   6.298  20.757  0.00  0.00    +0.000 A 
ATOM     30  C   UNL     1       2.212   5.112  20.614  0.00  0.00    +0.000 A 
ATOM     31  C   UNL     1       3.109   4.966  19.558  0.00  0.00    +0.000 A 
ATOM     32  C   UNL     1       3.816   3.763  19.400  0.00  0.00    +0.000 A 
ATOM     33  C   UNL     1       4.454   3.487  18.201  0.00  0.00    +0.000 A 
ATOM     34  C   UNL     1       4.532   4.481  17.237  0.00  0.00    +0.000 A 
ATOM     35  C   UNL     1       3.978   5.750  17.488  0.00  0.00    +0.000 A 
ATOM     36  C   UNL     1       3.217   6.018  18.626  0.00  0.00    +0.000 A 
ATOM     37  N   UNL     1       2.597   7.214  18.830  0.00  0.00    +0.000 NA
ATOM     38  C   UNL     1       1.452   9.882  19.621  0.00  0.00    +0.000 C 
ENDBRANCH  24  25
ENDBRANCH  12  24
TORSDOF 6
ENDMDL
MODEL 8
REMARK VINA RESULT:      -8.0      2.727      9.192
REMARK  Name = 
REMARK  7 active torsions:
REMARK  status: ('A' for Active; 'I' for Inactive)
REMARK    1  A    between atoms: C_1  and  O_2
REMARK    2  A    between atoms: O_2  and  C_3
REMARK    3  A    between atoms: C_8  and  C_9
REMARK    4  A    between atoms: C_16  and  C_17
REMARK    5  A    between atoms: C_17  and  O_18
REMARK    6  A    between atoms: C_22  and  O_23
REMARK    7  A    between atoms: O_23  and  C_24
REMARK                            x       y       z     vdW  Elec       q    Type
REMARK                         _______ _______ _______ _____ _____    ______ ____
ROOT
ATOM      1  C   UNL     1      -1.443  13.502  21.994  0.00  0.00    +0.000 A 
ATOM      2  C   UNL     1      -1.161  14.832  21.765  0.00  0.00    +0.000 A 
ATOM      3  N   UNL     1      -0.016  15.308  21.246  0.00  0.00    +0.000 NA
ATOM      4  C   UNL     1       0.945  14.434  20.937  0.00  0.00    +0.000 A 
ATOM      5  N   UNL     1       2.102  14.945  20.389  0.00  0.00    +0.000 N 
ATOM      6  C   UNL     1       2.129  16.325  19.903  0.00  0.00    +0.000 C 
ATOM      7  C   UNL     1       2.315  16.343  18.384  0.00  0.00    +0.000 C 
ATOM      8  C   UNL     1       3.521  15.497  17.942  0.00  0.00    +0.000 C 
ATOM      9  C   UNL     1       3.369  14.072  18.500  0.00  0.00    +0.000 C 
ATOM     10  C   UNL     1       3.195  14.064  20.019  0.00  0.00    +0.000 C 
ATOM     11  N   UNL     1       0.817  13.119  21.169  0.00  0.00    +0.000 NA
ATOM     12  C   UNL     1      -0.358  12.677  21.680  0.00  0.00    +0.000 A 
ENDROOT
BRANCH   1  18
ATOM     13  C   UNL     1      -3.901  12.788  21.793  0.00  0.00    +0.000 A 
ATOM     14  N   UNL     1      -5.101  12.463  22.319  0.00  0.00    +0.000 NA
ATOM     15  C   UNL     1      -5.211  12.424  23.660  0.00  0.00    +0.000 A 
ATOM     16  C   UNL     1      -4.164  12.693  24.513  0.00  0.00    +0.000 A 
ATOM     17  C   UNL     1      -2.935  13.033  23.955  0.00  0.00    +0.000 A 
ATOM     18  C   UNL     1      -2.749  13.091  22.562  0.00  0.00    +0.000 A 
BRANCH  13  20
ATOM     19  C   UNL     1      -5.012  12.661  19.674  0.00  0.00    +0.000 C 
ATOM     20  O   UNL     1      -3.794  12.781  20.415  0.00  0.00    +0.000 OA
ENDBRANCH  13  20
ENDBRANCH   1  18
BRANCH   8  21
ATOM     21  C   UNL     1       4.857  16.127  18.361  0.00  0.00    +0.000 C 
BRANCH  21  22
ATOM     22  O   UNL     1       5.941  15.268  18.033  0.00  0.00    +0.000 OA
ATOM     23  H   UNL     1       5.856  14.467  18.578  0.00  0.00    +0.000 HD
ENDBRANCH  21  22
ENDBRANCH   8  21
BRANCH  12  24
ATOM     24  O   UNL     1      -0.486  11.300  21.881  0.00  0.00    +0.000 OA
BRANCH  24  25
ATOM     25  C   UNL     1       0.694  10.458  21.729  0.00  0.00    +0.000 C 
ATOM     26  C   UNL     1       0.569   8.966  22.068  0.00  0.00    +0.000 C 
ATOM     27  N   UNL     1       0.817   8.632  20.690  0.00  0.00    +0.000 N 
ATOM     28  C   UNL     1       1.535   7.488  20.241  0.00  0.00    +0.000 A 
ATOM     29  C   UNL     1       1.361   6.303  20.951  0.00  0.00    +0.000 A 
ATOM     30  C   UNL     1       2.150   5.203  20.658  0.00  0.00    +0.000 A 
ATOM     31  C   UNL     1       3.047   5.265  19.594  0.00  0.00    +0.000 A 
ATOM     32  C   UNL     1       3.844   4.150  19.284  0.00  0.00    +0.000 A 
ATOM     33  C   UNL     1       4.492   4.081  18.061  0.00  0.00    +0.000 A 
ATOM     34  C   UNL     1       4.487   5.194  17.233  0.00  0.00    +0.000 A 
ATOM     35  C   UNL     1       3.839   6.374  17.646  0.00  0.00    +0.000 A 
ATOM     36  C   UNL     1       3.069   6.434  18.807  0.00  0.00    +0.000 A 
ATOM     37  N   UNL     1       2.360   7.541  19.162  0.00  0.00    +0.000 NA
ATOM     38  C   UNL     1       1.020   9.989  20.289  0.00  0.00    +0.000 C 
ENDBRANCH  24  25
ENDBRANCH  12  24
TORSDOF 6
ENDMDL
MODEL 9
REMARK VINA RESULT:      -7.9      2.777      9.322
REMARK  Name = 
REMARK  7 active torsions:
REMARK  status: ('A' for Active; 'I' for Inactive)
REMARK    1  A    between atoms: C_1  and  O_2
REMARK    2  A    between atoms: O_2  and  C_3
REMARK    3  A    between atoms: C_8  and  C_9
REMARK    4  A    between atoms: C_16  and  C_17
REMARK    5  A    between atoms: C_17  and  O_18
REMARK    6  A    between atoms: C_22  and  O_23
REMARK    7  A    between atoms: O_23  and  C_24
REMARK                            x       y       z     vdW  Elec       q    Type
REMARK                         _______ _______ _______ _____ _____    ______ ____
ROOT
ATOM      1  C   UNL     1      -1.528  13.574  20.180  0.00  0.00    +0.000 A 
ATOM      2  C   UNL     1      -1.319  14.904  19.880  0.00  0.00    +0.000 A 
ATOM      3  N   UNL     1      -0.119  15.496  19.753  0.00  0.00    +0.000 NA
ATOM      4  C   UNL     1       0.972  14.751  19.947  0.00  0.00    +0.000 A 
ATOM      5  N   UNL     1       2.191  15.376  19.792  0.00  0.00    +0.000 N 
ATOM      6  C   UNL     1       2.258  16.692  19.156  0.00  0.00    +0.000 C 
ATOM      7  C   UNL     1       3.007  16.594  17.824  0.00  0.00    +0.000 C 
ATOM      8  C   UNL     1       4.371  15.901  17.982  0.00  0.00    +0.000 C 
ATOM      9  C   UNL     1       4.167  14.529  18.645  0.00  0.00    +0.000 C 
ATOM     10  C   UNL     1       3.427  14.639  19.979  0.00  0.00    +0.000 C 
ATOM     11  N   UNL     1       0.903  13.460  20.303  0.00  0.00    +0.000 NA
ATOM     12  C   UNL     1      -0.325  12.896  20.407  0.00  0.00    +0.000 A 
ENDROOT
BRANCH   1  18
ATOM     13  C   UNL     1      -3.541  12.263  19.275  0.00  0.00    +0.000 A 
ATOM     14  N   UNL     1      -4.810  11.811  19.356  0.00  0.00    +0.000 NA
ATOM     15  C   UNL     1      -5.514  12.104  20.465  0.00  0.00    +0.000 A 
ATOM     16  C   UNL     1      -5.002  12.833  21.515  0.00  0.00    +0.000 A 
ATOM     17  C   UNL     1      -3.694  13.299  21.414  0.00  0.00    +0.000 A 
ATOM     18  C   UNL     1      -2.901  13.027  20.283  0.00  0.00    +0.000 A 
BRANCH  13  20
ATOM     19  C   UNL     1      -2.371  10.561  18.061  0.00  0.00    +0.000 C 
ATOM     20  O   UNL     1      -2.819  11.917  18.149  0.00  0.00    +0.000 OA
ENDBRANCH  13  20
ENDBRANCH   1  18
BRANCH   8  21
ATOM     21  C   UNL     1       5.372  16.762  18.764  0.00  0.00    +0.000 C 
BRANCH  21  22
ATOM     22  O   UNL     1       6.586  16.052  18.976  0.00  0.00    +0.000 OA
ATOM     23  H   UNL     1       6.579  15.276  18.389  0.00  0.00    +0.000 HD
ENDBRANCH  21  22
ENDBRANCH   8  21
BRANCH  12  24
ATOM     24  O   UNL     1      -0.377  11.542  20.744  0.00  0.00    +0.000 OA
BRANCH  24  25
ATOM     25  C   UNL     1       0.852  10.760  20.690  0.00  0.00    +0.000 C 
ATOM     26  C   UNL     1       0.820   9.320  21.223  0.00  0.00    +0.000 C 
ATOM     27  N   UNL     1       1.084   8.825  19.898  0.00  0.00    +0.000 N 
ATOM     28  C   UNL     1       1.869   7.677  19.594  0.00  0.00    +0.000 A 
ATOM     29  C   UNL     1       1.772   6.587  20.455  0.00  0.00    +0.000 A 
ATOM     30  C   UNL     1       2.626   5.508  20.299  0.00  0.00    +0.000 A 
ATOM     31  C   UNL     1       3.514   5.484  19.227  0.00  0.00    +0.000 A 
ATOM     32  C   UNL     1       4.377   4.389  19.056  0.00  0.00    +0.000 A 
ATOM     33  C   UNL     1       5.024   4.199  17.845  0.00  0.00    +0.000 A 
ATOM     34  C   UNL     1       4.948   5.192  16.879  0.00  0.00    +0.000 A 
ATOM     35  C   UNL     1       4.230   6.374  17.141  0.00  0.00    +0.000 A 
ATOM     36  C   UNL     1       3.461   6.539  18.293  0.00  0.00    +0.000 A 
ATOM     37  N   UNL     1       2.687   7.638  18.508  0.00  0.00    +0.000 NA
ATOM     38  C   UNL     1       1.202  10.127  19.320  0.00  0.00    +0.000 C 
ENDBRANCH  24  25
ENDBRANCH  12  24
TORSDOF 6
ENDMDL
