MODEL 1
REMARK VINA RESULT:      -8.0      0.000      0.000
REMARK  Name = 
REMARK  7 active torsions:
REMARK  status: ('A' for Active; 'I' for Inactive)
REMARK    1  A    between atoms: C_1  and  C_2
REMARK    2  A    between atoms: N_4  and  C_5
REMARK    3  A    between atoms: C_5  and  C_6
REMARK    4  A    between atoms: C_5  and  C_7
REMARK    5  A    between atoms: C_10  and  C_11
REMARK    6  A    between atoms: C_11  and  N_12
REMARK    7  A    between atoms: C_20  and  C_21
REMARK                            x       y       z     vdW  Elec       q    Type
REMARK                         _______ _______ _______ _____ _____    ______ ____
ROOT
ATOM      1  C   UNL     1       3.907   4.107  19.614  0.00  0.00    +0.000 C 
ENDROOT
BRANCH   1   2
ATOM      2  N   UNL     1       3.276   5.369  19.972  0.00  0.00    +0.000 NA
ATOM      3  C   UNL     1       1.865   5.315  20.336  0.00  0.00    +0.000 C 
ATOM      4  C   UNL     1       1.508   6.623  21.086  0.00  0.00    +0.000 C 
ATOM      5  C   UNL     1       1.703   7.792  20.145  0.00  0.00    +0.000 A 
ATOM      6  C   UNL     1       2.516   7.556  19.025  0.00  0.00    +0.000 A 
ATOM      7  C   UNL     1       2.280   8.283  17.860  0.00  0.00    +0.000 A 
ATOM      8  C   UNL     1       1.327   9.301  17.865  0.00  0.00    +0.000 A 
ATOM      9  C   UNL     1       0.745   9.705  19.069  0.00  0.00    +0.000 A 
ATOM     10  C   UNL     1       0.978   8.986  20.247  0.00  0.00    +0.000 A 
ATOM     11  C   UNL     1       3.628   6.530  19.152  0.00  0.00    +0.000 C 
BRANCH  10  12
ATOM     12  C   UNL     1       0.581   9.541  21.591  0.00  0.00    +0.000 C 
ATOM     13  F   UNL     1       0.505  10.902  21.622  0.00  0.00    +0.000 F 
ATOM     14  F   UNL     1      -0.615   9.089  22.051  0.00  0.00    +0.000 F 
ENDBRANCH  10  12
ENDBRANCH   1   2
BRANCH   1  18
ATOM     15  C   UNL     1       5.777   3.982  15.690  0.00  0.00    +0.000 A 
ATOM     16  C   UNL     1       4.427   3.651  15.862  0.00  0.00    +0.000 A 
ATOM     17  C   UNL     1       3.838   3.677  17.127  0.00  0.00    +0.000 A 
ATOM     18  C   UNL     1       4.583   4.026  18.260  0.00  0.00    +0.000 A 
ATOM     19  C   UNL     1       5.933   4.350  18.096  0.00  0.00    +0.000 A 
ATOM     20  C   UNL     1       6.528   4.328  16.825  0.00  0.00    +0.000 A 
BRANCH  15  21
ATOM     21  C   UNL     1       6.365   3.972  14.290  0.00  0.00    +0.000 C 
ATOM     22  C   UNL     1       7.271   5.177  14.038  0.00  0.00    +0.000 C 
BRANCH  21  26
ATOM     23  C   UNL     1       4.285   3.245  11.214  0.00  0.00    +0.000 C 
ATOM     24  C   UNL     1       5.483   3.190  12.117  0.00  0.00    +0.000 C 
ATOM     25  O   UNL     1       6.497   2.564  11.832  0.00  0.00    +0.000 OA
ATOM     26  N   UNL     1       5.312   3.888  13.293  0.00  0.00    +0.000 N 
ATOM     27  H   UNL     1       4.480   4.443  13.422  0.00  0.00    +0.000 HD
ENDBRANCH  21  26
ENDBRANCH  15  21
ENDBRANCH   1  18
TORSDOF 5
ENDMDL
MODEL 2
REMARK VINA RESULT:      -7.8      1.571      2.447
REMARK  Name = 
REMARK  7 active torsions:
REMARK  status: ('A' for Active; 'I' for Inactive)
REMARK    1  A    between atoms: C_1  and  C_2
REMARK    2  A    between atoms: N_4  and  C_5
REMARK    3  A    between atoms: C_5  and  C_6
REMARK    4  A    between atoms: C_5  and  C_7
REMARK    5  A    between atoms: C_10  and  C_11
REMARK    6  A    between atoms: C_11  and  N_12
REMARK    7  A    between atoms: C_20  and  C_21
REMARK                            x       y       z     vdW  Elec       q    Type
REMARK                         _______ _______ _______ _____ _____    ______ ____
ROOT
ATOM      1  C   UNL     1       3.890   5.907  19.124  0.00  0.00    +0.000 C 
ENDROOT
BRANCH   1   2
ATOM      2  N   UNL     1       2.771   6.830  19.003  0.00  0.00    +0.000 NA
ATOM      3  C   UNL     1       3.001   8.038  18.219  0.00  0.00    +0.000 C 
ATOM      4  C   UNL     1       1.623   8.642  17.846  0.00  0.00    +0.000 C 
ATOM      5  C   UNL     1       0.906   9.039  19.118  0.00  0.00    +0.000 A 
ATOM      6  C   UNL     1       1.369   8.443  20.301  0.00  0.00    +0.000 A 
ATOM      7  C   UNL     1       1.232   9.139  21.501  0.00  0.00    +0.000 A 
ATOM      8  C   UNL     1       0.542  10.350  21.520  0.00  0.00    +0.000 A 
ATOM      9  C   UNL     1      -0.156  10.772  20.385  0.00  0.00    +0.000 A 
ATOM     10  C   UNL     1      -0.031  10.079  19.176  0.00  0.00    +0.000 A 
ATOM     11  C   UNL     1       1.977   7.055  20.213  0.00  0.00    +0.000 C 
BRANCH  10  12
ATOM     12  C   UNL     1      -0.962  10.350  18.021  0.00  0.00    +0.000 C 
ATOM     13  F   UNL     1      -2.144   9.675  18.098  0.00  0.00    +0.000 F 
ATOM     14  F   UNL     1      -1.289  11.659  17.864  0.00  0.00    +0.000 F 
ENDBRANCH  10  12
ENDBRANCH   1   2
BRANCH   1  18
ATOM     15  C   UNL     1       5.628   4.541  15.379  0.00  0.00    +0.000 A 
ATOM     16  C   UNL     1       4.664   3.780  16.053  0.00  0.00    +0.000 A 
ATOM     17  C   UNL     1       4.123   4.216  17.263  0.00  0.00    +0.000 A 
ATOM     18  C   UNL     1       4.536   5.423  17.841  0.00  0.00    +0.000 A 
ATOM     19  C   UNL     1       5.503   6.184  17.177  0.00  0.00    +0.000 A 
ATOM     20  C   UNL     1       6.046   5.750  15.958  0.00  0.00    +0.000 A 
BRANCH  15  21
ATOM     21  C   UNL     1       6.162   4.042  14.048  0.00  0.00    +0.000 C 
ATOM     22  C   UNL     1       7.331   4.887  13.543  0.00  0.00    +0.000 C 
BRANCH  21  26
ATOM     23  C   UNL     1       3.974   3.215  11.074  0.00  0.00    +0.000 C 
ATOM     24  C   UNL     1       5.162   3.115  11.986  0.00  0.00    +0.000 C 
ATOM     25  O   UNL     1       6.080   2.329  11.790  0.00  0.00    +0.000 OA
ATOM     26  N   UNL     1       5.098   3.974  13.062  0.00  0.00    +0.000 N 
ATOM     27  H   UNL     1       4.348   4.647  13.113  0.00  0.00    +0.000 HD
ENDBRANCH  21  26
ENDBRANCH  15  21
ENDBRANCH   1  18
TORSDOF 5
ENDMDL
MODEL 3
REMARK VINA RESULT:      -7.7      1.644      2.714
REMARK  Name = 
REMARK  7 active torsions:
REMARK  status: ('A' for Active; 'I' for Inactive)
REMARK    1  A    between atoms: C_1  and  C_2
REMARK    2  A    between atoms: N_4  and  C_5
REMARK    3  A    between atoms: C_5  and  C_6
REMARK    4  A    between atoms: C_5  and  C_7
REMARK    5  A    between atoms: C_10  and  C_11
REMARK    6  A    between atoms: C_11  and  N_12
REMARK    7  A    between atoms: C_20  and  C_21
REMARK                            x       y       z     vdW  Elec       q    Type
REMARK                         _______ _______ _______ _____ _____    ______ ____
ROOT
ATOM      1  C   UNL     1       3.731   6.299  19.131  0.00  0.00    +0.000 C 
ENDROOT
BRANCH   1   2
ATOM      2  N   UNL     1       2.566   7.166  19.041  0.00  0.00    +0.000 NA
ATOM      3  C   UNL     1       2.706   8.369  18.228  0.00  0.00    +0.000 C 
ATOM      4  C   UNL     1       1.287   8.901  17.902  0.00  0.00    +0.000 C 
ATOM      5  C   UNL     1       0.604   9.287  19.195  0.00  0.00    +0.000 A 
ATOM      6  C   UNL     1       1.142   8.735  20.369  0.00  0.00    +0.000 A 
ATOM      7  C   UNL     1       1.020   9.446  21.562  0.00  0.00    +0.000 A 
ATOM      8  C   UNL     1       0.274  10.624  21.588  0.00  0.00    +0.000 A 
ATOM      9  C   UNL     1      -0.488  10.991  20.476  0.00  0.00    +0.000 A 
ATOM     10  C   UNL     1      -0.379  10.282  19.274  0.00  0.00    +0.000 A 
ATOM     11  C   UNL     1       1.812   7.376  20.278  0.00  0.00    +0.000 C 
BRANCH  10  12
ATOM     12  C   UNL     1      -1.366  10.489  18.154  0.00  0.00    +0.000 C 
ATOM     13  F   UNL     1      -2.619  10.029  18.436  0.00  0.00    +0.000 F 
ATOM     14  F   UNL     1      -1.519  11.785  17.777  0.00  0.00    +0.000 F 
ENDBRANCH  10  12
ENDBRANCH   1   2
BRANCH   1  18
ATOM     15  C   UNL     1       5.392   4.605  15.486  0.00  0.00    +0.000 A 
ATOM     16  C   UNL     1       5.852   5.826  15.994  0.00  0.00    +0.000 A 
ATOM     17  C   UNL     1       5.302   6.373  17.156  0.00  0.00    +0.000 A 
ATOM     18  C   UNL     1       4.270   5.718  17.839  0.00  0.00    +0.000 A 
ATOM     19  C   UNL     1       3.801   4.502  17.332  0.00  0.00    +0.000 A 
ATOM     20  C   UNL     1       4.354   3.949  16.167  0.00  0.00    +0.000 A 
BRANCH  15  21
ATOM     21  C   UNL     1       6.044   4.034  14.239  0.00  0.00    +0.000 C 
ATOM     22  C   UNL     1       7.230   4.877  13.773  0.00  0.00    +0.000 C 
BRANCH  21  26
ATOM     23  C   UNL     1       4.200   3.086  11.075  0.00  0.00    +0.000 C 
ATOM     24  C   UNL     1       5.332   3.108  12.061  0.00  0.00    +0.000 C 
ATOM     25  O   UNL     1       6.374   2.490  11.884  0.00  0.00    +0.000 OA
ATOM     26  N   UNL     1       5.066   3.870  13.179  0.00  0.00    +0.000 N 
ATOM     27  H   UNL     1       4.217   4.412  13.216  0.00  0.00    +0.000 HD
ENDBRANCH  21  26
ENDBRANCH  15  21
ENDBRANCH   1  18
TORSDOF 5
ENDMDL
MODEL 4
REMARK VINA RESULT:      -7.7      5.749      9.876
REMARK  Name = 
REMARK  7 active torsions:
REMARK  status: ('A' for Active; 'I' for Inactive)
REMARK    1  A    between atoms: C_1  and  C_2
REMARK    2  A    between atoms: N_4  and  C_5
REMARK    3  A    between atoms: C_5  and  C_6
REMARK    4  A    between atoms: C_5  and  C_7
REMARK    5  A    between atoms: C_10  and  C_11
REMARK    6  A    between atoms: C_11  and  N_12
REMARK    7  A    between atoms: C_20  and  C_21
REMARK                            x       y       z     vdW  Elec       q    Type
REMARK                         _______ _______ _______ _____ _____    ______ ____
ROOT
ATOM      1  C   UNL     1       0.151  10.654  18.779  0.00  0.00    +0.000 C 
ENDROOT
BRANCH   1   2
ATOM      2  N   UNL     1       0.667   9.320  19.051  0.00  0.00    +0.000 NA
ATOM      3  C   UNL     1       1.340   9.127  20.329  0.00  0.00    +0.000 C 
ATOM      4  C   UNL     1       1.412   7.604  20.613  0.00  0.00    +0.000 C 
ATOM      5  C   UNL     1       2.252   6.949  19.538  0.00  0.00    +0.000 A 
ATOM      6  C   UNL     1       2.423   7.683  18.353  0.00  0.00    +0.000 A 
ATOM      7  C   UNL     1       3.587   7.494  17.609  0.00  0.00    +0.000 A 
ATOM      8  C   UNL     1       4.495   6.507  17.991  0.00  0.00    +0.000 A 
ATOM      9  C   UNL     1       4.157   5.601  19.000  0.00  0.00    +0.000 A 
ATOM     10  C   UNL     1       2.989   5.777  19.751  0.00  0.00    +0.000 A 
ATOM     11  C   UNL     1       1.315   8.632  17.933  0.00  0.00    +0.000 C 
BRANCH  10  12
ATOM     12  C   UNL     1       2.472   4.688  20.656  0.00  0.00    +0.000 C 
ATOM     13  F   UNL     1       1.159   4.382  20.450  0.00  0.00    +0.000 F 
ATOM     14  F   UNL     1       3.149   3.514  20.560  0.00  0.00    +0.000 F 
ENDBRANCH  10  12
ENDBRANCH   1   2
BRANCH   1  18
ATOM     15  C   UNL     1      -4.115  11.176  18.111  0.00  0.00    +0.000 A 
ATOM     16  C   UNL     1      -3.444  11.889  19.113  0.00  0.00    +0.000 A 
ATOM     17  C   UNL     1      -2.077  11.704  19.333  0.00  0.00    +0.000 A 
ATOM     18  C   UNL     1      -1.343  10.793  18.564  0.00  0.00    +0.000 A 
ATOM     19  C   UNL     1      -2.009  10.073  17.568  0.00  0.00    +0.000 A 
ATOM     20  C   UNL     1      -3.381  10.259  17.342  0.00  0.00    +0.000 A 
BRANCH  15  21
ATOM     21  C   UNL     1      -5.593  11.437  17.887  0.00  0.00    +0.000 C 
ATOM     22  C   UNL     1      -5.834  12.632  16.965  0.00  0.00    +0.000 C 
BRANCH  21  26
ATOM     23  C   UNL     1      -7.677  10.969  21.010  0.00  0.00    +0.000 C 
ATOM     24  C   UNL     1      -7.028  10.587  19.711  0.00  0.00    +0.000 C 
ATOM     25  O   UNL     1      -7.144   9.471  19.218  0.00  0.00    +0.000 OA
ATOM     26  N   UNL     1      -6.282  11.603  19.154  0.00  0.00    +0.000 N 
ATOM     27  H   UNL     1      -6.300  12.518  19.578  0.00  0.00    +0.000 HD
ENDBRANCH  21  26
ENDBRANCH  15  21
ENDBRANCH   1  18
TORSDOF 5
ENDMDL
MODEL 5
REMARK VINA RESULT:      -7.6      5.439      9.546
REMARK  Name = 
REMARK  7 active torsions:
REMARK  status: ('A' for Active; 'I' for Inactive)
REMARK    1  A    between atoms: C_1  and  C_2
REMARK    2  A    between atoms: N_4  and  C_5
REMARK    3  A    between atoms: C_5  and  C_6
REMARK    4  A    between atoms: C_5  and  C_7
REMARK    5  A    between atoms: C_10  and  C_11
REMARK    6  A    between atoms: C_11  and  N_12
REMARK    7  A    between atoms: C_20  and  C_21
REMARK                            x       y       z     vdW  Elec       q    Type
REMARK                         _______ _______ _______ _____ _____    ______ ____
ROOT
ATOM      1  C   UNL     1       1.423   9.670  18.598  0.00  0.00    +0.000 C 
ENDROOT
BRANCH   1   2
ATOM      2  N   UNL     1       1.592   8.266  18.941  0.00  0.00    +0.000 NA
ATOM      3  C   UNL     1       1.861   7.962  20.342  0.00  0.00    +0.000 C 
ATOM      4  C   UNL     1       1.572   6.457  20.575  0.00  0.00    +0.000 C 
ATOM      5  C   UNL     1       2.526   5.643  19.729  0.00  0.00    +0.000 A 
ATOM      6  C   UNL     1       3.134   6.317  18.658  0.00  0.00    +0.000 A 
ATOM      7  C   UNL     1       4.395   5.902  18.233  0.00  0.00    +0.000 A 
ATOM      8  C   UNL     1       4.972   4.765  18.798  0.00  0.00    +0.000 A 
ATOM      9  C   UNL     1       4.220   3.952  19.649  0.00  0.00    +0.000 A 
ATOM     10  C   UNL     1       2.951   4.355  20.079  0.00  0.00    +0.000 A 
ATOM     11  C   UNL     1       2.370   7.454  18.003  0.00  0.00    +0.000 C 
BRANCH  10  12
ATOM     12  C   UNL     1       2.022   3.394  20.777  0.00  0.00    +0.000 C 
ATOM     13  F   UNL     1       1.924   2.181  20.162  0.00  0.00    +0.000 F 
ATOM     14  F   UNL     1       2.356   3.133  22.067  0.00  0.00    +0.000 F 
ENDBRANCH  10  12
ENDBRANCH   1   2
BRANCH   1  18
ATOM     15  C   UNL     1      -2.690  11.066  18.369  0.00  0.00    +0.000 A 
ATOM     16  C   UNL     1      -2.191  10.124  17.460  0.00  0.00    +0.000 A 
ATOM     17  C   UNL     1      -0.865   9.693  17.529  0.00  0.00    +0.000 A 
ATOM     18  C   UNL     1       0.005  10.198  18.503  0.00  0.00    +0.000 A 
ATOM     19  C   UNL     1      -0.485  11.144  19.409  0.00  0.00    +0.000 A 
ATOM     20  C   UNL     1      -1.818  11.576  19.344  0.00  0.00    +0.000 A 
BRANCH  15  21
ATOM     21  C   UNL     1      -4.148  11.478  18.276  0.00  0.00    +0.000 C 
ATOM     22  C   UNL     1      -4.596  11.689  16.830  0.00  0.00    +0.000 C 
BRANCH  21  26
ATOM     23  C   UNL     1      -5.506  14.008  20.739  0.00  0.00    +0.000 C 
ATOM     24  C   UNL     1      -5.396  12.688  20.034  0.00  0.00    +0.000 C 
ATOM     25  O   UNL     1      -6.114  11.733  20.303  0.00  0.00    +0.000 OA
ATOM     26  N   UNL     1      -4.399  12.659  19.082  0.00  0.00    +0.000 N 
ATOM     27  H   UNL     1      -3.902  13.509  18.862  0.00  0.00    +0.000 HD
ENDBRANCH  21  26
ENDBRANCH  15  21
ENDBRANCH   1  18
TORSDOF 5
ENDMDL
MODEL 6
REMARK VINA RESULT:      -7.5      4.596      8.514
REMARK  Name = 
REMARK  7 active torsions:
REMARK  status: ('A' for Active; 'I' for Inactive)
REMARK    1  A    between atoms: C_1  and  C_2
REMARK    2  A    between atoms: N_4  and  C_5
REMARK    3  A    between atoms: C_5  and  C_6
REMARK    4  A    between atoms: C_5  and  C_7
REMARK    5  A    between atoms: C_10  and  C_11
REMARK    6  A    between atoms: C_11  and  N_12
REMARK    7  A    between atoms: C_20  and  C_21
REMARK                            x       y       z     vdW  Elec       q    Type
REMARK                         _______ _______ _______ _____ _____    ______ ____
ROOT
ATOM      1  C   UNL     1       1.524   7.967  21.041  0.00  0.00    +0.000 C 
ENDROOT
BRANCH   1   2
ATOM      2  N   UNL     1       2.142   6.881  20.294  0.00  0.00    +0.000 NA
ATOM      3  C   UNL     1       2.159   7.013  18.842  0.00  0.00    +0.000 C 
ATOM      4  C   UNL     1       3.211   6.025  18.278  0.00  0.00    +0.000 C 
ATOM      5  C   UNL     1       2.782   4.613  18.615  0.00  0.00    +0.000 A 
ATOM      6  C   UNL     1       1.847   4.482  19.654  0.00  0.00    +0.000 A 
ATOM      7  C   UNL     1       0.971   3.398  19.636  0.00  0.00    +0.000 A 
ATOM      8  C   UNL     1       1.116   2.412  18.659  0.00  0.00    +0.000 A 
ATOM      9  C   UNL     1       2.233   2.422  17.820  0.00  0.00    +0.000 A 
ATOM     10  C   UNL     1       3.122   3.502  17.833  0.00  0.00    +0.000 A 
ATOM     11  C   UNL     1       1.854   5.523  20.759  0.00  0.00    +0.000 C 
BRANCH  10  12
ATOM     12  C   UNL     1       4.458   3.422  17.138  0.00  0.00    +0.000 C 
ATOM     13  F   UNL     1       4.518   4.137  15.979  0.00  0.00    +0.000 F 
ATOM     14  F   UNL     1       5.505   3.844  17.893  0.00  0.00    +0.000 F 
ENDBRANCH  10  12
ENDBRANCH   1   2
BRANCH   1  18
ATOM     15  C   UNL     1      -0.375  11.206  18.847  0.00  0.00    +0.000 A 
ATOM     16  C   UNL     1      -0.885  10.763  20.074  0.00  0.00    +0.000 A 
ATOM     17  C   UNL     1      -0.280   9.711  20.765  0.00  0.00    +0.000 A 
ATOM     18  C   UNL     1       0.848   9.065  20.245  0.00  0.00    +0.000 A 
ATOM     19  C   UNL     1       1.357   9.497  19.017  0.00  0.00    +0.000 A 
ATOM     20  C   UNL     1       0.754  10.557  18.322  0.00  0.00    +0.000 A 
BRANCH  15  21
ATOM     21  C   UNL     1      -1.046  12.376  18.150  0.00  0.00    +0.000 C 
ATOM     22  C   UNL     1      -0.746  13.707  18.841  0.00  0.00    +0.000 C 
BRANCH  21  26
ATOM     23  C   UNL     1      -4.516  11.356  17.039  0.00  0.00    +0.000 C 
ATOM     24  C   UNL     1      -3.019  11.455  16.980  0.00  0.00    +0.000 C 
ATOM     25  O   UNL     1      -2.358  10.943  16.085  0.00  0.00    +0.000 OA
ATOM     26  N   UNL     1      -2.476  12.153  18.038  0.00  0.00    +0.000 N 
ATOM     27  H   UNL     1      -3.090  12.612  18.693  0.00  0.00    +0.000 HD
ENDBRANCH  21  26
ENDBRANCH  15  21
ENDBRANCH   1  18
TORSDOF 5
ENDMDL
MODEL 7
REMARK VINA RESULT:      -7.5      5.616      9.651
REMARK  Name = 
REMARK  7 active torsions:
REMARK  status: ('A' for Active; 'I' for Inactive)
REMARK    1  A    between atoms: C_1  and  C_2
REMARK    2  A    between atoms: N_4  and  C_5
REMARK    3  A    between atoms: C_5  and  C_6
REMARK    4  A    between atoms: C_5  and  C_7
REMARK    5  A    between atoms: C_10  and  C_11
REMARK    6  A    between atoms: C_11  and  N_12
REMARK    7  A    between atoms: C_20  and  C_21
REMARK                            x       y       z     vdW  Elec       q    Type
REMARK                         _______ _______ _______ _____ _____    ______ ____
ROOT
ATOM      1  C   UNL     1       1.395   9.888  19.199  0.00  0.00    +0.000 C 
ENDROOT
BRANCH   1   2
ATOM      2  N   UNL     1       1.714   8.511  18.855  0.00  0.00    +0.000 NA
ATOM      3  C   UNL     1       2.058   7.623  19.960  0.00  0.00    +0.000 C 
ATOM      4  C   UNL     1       1.927   6.160  19.464  0.00  0.00    +0.000 C 
ATOM      5  C   UNL     1       2.928   5.933  18.352  0.00  0.00    +0.000 A 
ATOM      6  C   UNL     1       3.430   7.085  17.725  0.00  0.00    +0.000 A 
ATOM      7  C   UNL     1       4.710   7.046  17.176  0.00  0.00    +0.000 A 
ATOM      8  C   UNL     1       5.416   5.843  17.159  0.00  0.00    +0.000 A 
ATOM      9  C   UNL     1       4.777   4.656  17.524  0.00  0.00    +0.000 A 
ATOM     10  C   UNL     1       3.490   4.680  18.071  0.00  0.00    +0.000 A 
ATOM     11  C   UNL     1       2.536   8.310  17.660  0.00  0.00    +0.000 C 
BRANCH  10  12
ATOM     12  C   UNL     1       2.684   3.416  18.229  0.00  0.00    +0.000 C 
ATOM     13  F   UNL     1       1.433   3.492  17.694  0.00  0.00    +0.000 F 
ATOM     14  F   UNL     1       3.260   2.315  17.679  0.00  0.00    +0.000 F 
ENDBRANCH  10  12
ENDBRANCH   1   2
BRANCH   1  18
ATOM     15  C   UNL     1      -2.695  11.150  18.427  0.00  0.00    +0.000 A 
ATOM     16  C   UNL     1      -2.072  10.179  17.632  0.00  0.00    +0.000 A 
ATOM     17  C   UNL     1      -0.753   9.791  17.875  0.00  0.00    +0.000 A 
ATOM     18  C   UNL     1      -0.014  10.369  18.915  0.00  0.00    +0.000 A 
ATOM     19  C   UNL     1      -0.628  11.344  19.707  0.00  0.00    +0.000 A 
ATOM     20  C   UNL     1      -1.955  11.734  19.468  0.00  0.00    +0.000 A 
BRANCH  15  21
ATOM     21  C   UNL     1      -4.142  11.514  18.146  0.00  0.00    +0.000 C 
ATOM     22  C   UNL     1      -4.445  11.554  16.648  0.00  0.00    +0.000 C 
BRANCH  21  26
ATOM     23  C   UNL     1      -5.665  14.230  20.295  0.00  0.00    +0.000 C 
ATOM     24  C   UNL     1      -5.439  12.837  19.782  0.00  0.00    +0.000 C 
ATOM     25  O   UNL     1      -6.035  11.864  20.228  0.00  0.00    +0.000 OA
ATOM     26  N   UNL     1      -4.488  12.770  18.786  0.00  0.00    +0.000 N 
ATOM     27  H   UNL     1      -4.098  13.624  18.418  0.00  0.00    +0.000 HD
ENDBRANCH  21  26
ENDBRANCH  15  21
ENDBRANCH   1  18
TORSDOF 5
ENDMDL
MODEL 8
REMARK VINA RESULT:      -7.5      4.920      7.585
REMARK  Name = 
REMARK  7 active torsions:
REMARK  status: ('A' for Active; 'I' for Inactive)
REMARK    1  A    between atoms: C_1  and  C_2
REMARK    2  A    between atoms: N_4  and  C_5
REMARK    3  A    between atoms: C_5  and  C_6
REMARK    4  A    between atoms: C_5  and  C_7
REMARK    5  A    between atoms: C_10  and  C_11
REMARK    6  A    between atoms: C_11  and  N_12
REMARK    7  A    between atoms: C_20  and  C_21
REMARK                            x       y       z     vdW  Elec       q    Type
REMARK                         _______ _______ _______ _____ _____    ______ ____
ROOT
ATOM      1  C   UNL     1       0.324  11.277  18.701  0.00  0.00    +0.000 C 
ENDROOT
BRANCH   1   2
ATOM      2  N   UNL     1      -1.130  11.236  18.752  0.00  0.00    +0.000 NA
ATOM      3  C   UNL     1      -1.838  11.672  17.554  0.00  0.00    +0.000 C 
ATOM      4  C   UNL     1      -3.296  11.151  17.637  0.00  0.00    +0.000 C 
ATOM      5  C   UNL     1      -3.970  11.783  18.835  0.00  0.00    +0.000 A 
ATOM      6  C   UNL     1      -3.118  12.320  19.813  0.00  0.00    +0.000 A 
ATOM      7  C   UNL     1      -3.568  13.394  20.579  0.00  0.00    +0.000 A 
ATOM      8  C   UNL     1      -4.884  13.835  20.440  0.00  0.00    +0.000 A 
ATOM      9  C   UNL     1      -5.789  13.096  19.673  0.00  0.00    +0.000 A 
ATOM     10  C   UNL     1      -5.350  12.013  18.904  0.00  0.00    +0.000 A 
ATOM     11  C   UNL     1      -1.752  11.684  19.999  0.00  0.00    +0.000 C 
BRANCH  10  12
ATOM     12  C   UNL     1      -6.329  11.050  18.282  0.00  0.00    +0.000 C 
ATOM     13  F   UNL     1      -6.875  10.172  19.172  0.00  0.00    +0.000 F 
ATOM     14  F   UNL     1      -7.376  11.646  17.655  0.00  0.00    +0.000 F 
ENDBRANCH  10  12
ENDBRANCH   1   2
BRANCH   1  18
ATOM     15  C   UNL     1       2.330   7.455  19.237  0.00  0.00    +0.000 A 
ATOM     16  C   UNL     1       1.656   8.077  20.296  0.00  0.00    +0.000 A 
ATOM     17  C   UNL     1       1.029   9.312  20.122  0.00  0.00    +0.000 A 
ATOM     18  C   UNL     1       1.065   9.967  18.885  0.00  0.00    +0.000 A 
ATOM     19  C   UNL     1       1.742   9.355  17.825  0.00  0.00    +0.000 A 
ATOM     20  C   UNL     1       2.370   8.112  17.997  0.00  0.00    +0.000 A 
BRANCH  15  21
ATOM     21  C   UNL     1       2.967   6.096  19.466  0.00  0.00    +0.000 C 
ATOM     22  C   UNL     1       4.161   5.856  18.542  0.00  0.00    +0.000 C 
BRANCH  21  26
ATOM     23  C   UNL     1       0.691   3.124  20.014  0.00  0.00    +0.000 C 
ATOM     24  C   UNL     1       1.728   4.152  20.359  0.00  0.00    +0.000 C 
ATOM     25  O   UNL     1       2.274   4.198  21.455  0.00  0.00    +0.000 OA
ATOM     26  N   UNL     1       1.980   5.039  19.335  0.00  0.00    +0.000 N 
ATOM     27  H   UNL     1       1.549   4.889  18.435  0.00  0.00    +0.000 HD
ENDBRANCH  21  26
ENDBRANCH  15  21
ENDBRANCH   1  18
TORSDOF 5
ENDMDL
MODEL 9
REMARK VINA RESULT:      -7.4      5.533      9.707
REMARK  Name = 
REMARK  7 active torsions:
REMARK  status: ('A' for Active; 'I' for Inactive)
REMARK    1  A    between atoms: C_1  and  C_2
REMARK    2  A    between atoms: N_4  and  C_5
REMARK    3  A    between atoms: C_5  and  C_6
REMARK    4  A    between atoms: C_5  and  C_7
REMARK    5  A    between atoms: C_10  and  C_11
REMARK    6  A    between atoms: C_11  and  N_12
REMARK    7  A    between atoms: C_20  and  C_21
REMARK                            x       y       z     vdW  Elec       q    Type
REMARK                         _______ _______ _______ _____ _____    ______ ____
ROOT
ATOM      1  C   UNL     1       1.226   9.860  18.531  0.00  0.00    +0.000 C 
ENDROOT
BRANCH   1   2
ATOM      2  N   UNL     1       1.547   8.463  18.785  0.00  0.00    +0.000 NA
ATOM      3  C   UNL     1       1.901   8.112  20.156  0.00  0.00    +0.000 C 
ATOM      4  C   UNL     1       1.771   6.575  20.311  0.00  0.00    +0.000 C 
ATOM      5  C   UNL     1       2.765   5.907  19.385  0.00  0.00    +0.000 A 
ATOM      6  C   UNL     1       3.259   6.697  18.334  0.00  0.00    +0.000 A 
ATOM      7  C   UNL     1       4.536   6.434  17.841  0.00  0.00    +0.000 A 
ATOM      8  C   UNL     1       5.245   5.332  18.317  0.00  0.00    +0.000 A 
ATOM      9  C   UNL     1       4.612   4.402  19.146  0.00  0.00    +0.000 A 
ATOM     10  C   UNL     1       3.328   4.651  19.644  0.00  0.00    +0.000 A 
ATOM     11  C   UNL     1       2.361   7.786  17.774  0.00  0.00    +0.000 C 
BRANCH  10  12
ATOM     12  C   UNL     1       2.528   3.566  20.317  0.00  0.00    +0.000 C 
ATOM     13  F   UNL     1       1.841   2.771  19.447  0.00  0.00    +0.000 F 
ATOM     14  F   UNL     1       3.265   2.725  21.088  0.00  0.00    +0.000 F 
ENDBRANCH  10  12
ENDBRANCH   1   2
BRANCH   1  18
ATOM     15  C   UNL     1      -2.944  11.092  18.437  0.00  0.00    +0.000 A 
ATOM     16  C   UNL     1      -2.061  11.588  19.405  0.00  0.00    +0.000 A 
ATOM     17  C   UNL     1      -0.728  11.175  19.440  0.00  0.00    +0.000 A 
ATOM     18  C   UNL     1      -0.239  10.246  18.513  0.00  0.00    +0.000 A 
ATOM     19  C   UNL     1      -1.117   9.742  17.548  0.00  0.00    +0.000 A 
ATOM     20  C   UNL     1      -2.457  10.158  17.509  0.00  0.00    +0.000 A 
BRANCH  15  21
ATOM     21  C   UNL     1      -4.375  11.597  18.418  0.00  0.00    +0.000 C 
ATOM     22  C   UNL     1      -4.884  11.832  16.996  0.00  0.00    +0.000 C 
BRANCH  21  26
ATOM     23  C   UNL     1      -5.292  14.151  21.055  0.00  0.00    +0.000 C 
ATOM     24  C   UNL     1      -5.268  12.811  20.377  0.00  0.00    +0.000 C 
ATOM     25  O   UNL     1      -5.856  11.834  20.825  0.00  0.00    +0.000 OA
ATOM     26  N   UNL     1      -4.506  12.795  19.228  0.00  0.00    +0.000 N 
ATOM     27  H   UNL     1      -4.117  13.658  18.881  0.00  0.00    +0.000 HD
ENDBRANCH  21  26
ENDBRANCH  15  21
ENDBRANCH   1  18
TORSDOF 5
ENDMDL
