MODEL 1
REMARK VINA RESULT:      -9.4      0.000      0.000
REMARK  Name = 
REMARK  8 active torsions:
REMARK  status: ('A' for Active; 'I' for Inactive)
REMARK    1  A    between atoms: C_1  and  O_2
REMARK    2  A    between atoms: O_2  and  C_3
REMARK    3  A    between atoms: C_8  and  C_9
REMARK    4  A    between atoms: C_9  and  O_10
REMARK    5  A    between atoms: N_17  and  C_18
REMARK    6  A    between atoms: C_18  and  C_19
REMARK    7  A    between atoms: C_26  and  O_27
REMARK    8  A    between atoms: O_27  and  C_28
REMARK                            x       y       z     vdW  Elec       q    Type
REMARK                         _______ _______ _______ _____ _____    ______ ____
ROOT
ATOM      1  C   UNL     1       3.908   3.099  18.101  0.00  0.00    +0.000 C 
ATOM      2  C   UNL     1       4.095   3.340  19.649  0.00  0.00    +0.000 C 
ATOM      3  C   UNL     1       2.991   4.160  20.356  0.00  0.00    +0.000 C 
ATOM      4  C   UNL     1       1.757   3.319  20.720  0.00  0.00    +0.000 C 
ATOM      5  C   UNL     1       0.785   3.562  19.562  0.00  0.00    +0.000 C 
ATOM      6  C   UNL     1       1.636   4.322  18.518  0.00  0.00    +0.000 C 
ATOM      7  C   UNL     1       2.428   3.256  17.719  0.00  0.00    +0.000 C 
ATOM      8  N   UNL     1       2.374   5.150  19.474  0.00  0.00    +0.000 NA
ENDROOT
BRANCH   1  14
ATOM      9  C   UNL     1       6.184   4.413  17.728  0.00  0.00    +0.000 A 
ATOM     10  C   UNL     1       7.163   4.846  16.810  0.00  0.00    +0.000 A 
ATOM     11  C   UNL     1       6.904   4.885  15.446  0.00  0.00    +0.000 A 
ATOM     12  C   UNL     1       5.665   4.483  14.979  0.00  0.00    +0.000 A 
ATOM     13  C   UNL     1       4.722   3.974  15.874  0.00  0.00    +0.000 A 
ATOM     14  C   UNL     1       4.971   3.859  17.265  0.00  0.00    +0.000 A 
BRANCH   9  16
ATOM     15  C   UNL     1       7.294   5.541  19.496  0.00  0.00    +0.000 C 
ATOM     16  O   UNL     1       6.460   4.460  19.068  0.00  0.00    +0.000 OA
ENDBRANCH   9  16
ENDBRANCH   1  14
BRANCH   1  17
ATOM     17  O   UNL     1       4.247   1.708  17.856  0.00  0.00    +0.000 OA
ATOM     18  H   UNL     1       4.281   1.574  16.895  0.00  0.00    +0.000 HD
ENDBRANCH   1  17
BRANCH   8  19
ATOM     19  C   UNL     1       3.297   6.192  19.052  0.00  0.00    +0.000 C 
BRANCH  19  20
ATOM     20  C   UNL     1       2.821   7.644  18.905  0.00  0.00    +0.000 C 
ATOM     21  C   UNL     1       2.152   7.940  17.569  0.00  0.00    +0.000 C 
ATOM     22  O   UNL     1       1.696   9.304  17.521  0.00  0.00    +0.000 OA
ATOM     23  C   UNL     1       1.093   9.704  18.689  0.00  0.00    +0.000 A 
ATOM     24  C   UNL     1       0.435  10.933  18.658  0.00  0.00    +0.000 A 
ATOM     25  C   UNL     1      -0.182  11.423  19.809  0.00  0.00    +0.000 A 
ATOM     26  C   UNL     1      -0.151  10.676  20.988  0.00  0.00    +0.000 A 
ATOM     27  C   UNL     1       0.492   9.437  21.028  0.00  0.00    +0.000 A 
ATOM     28  C   UNL     1       1.147   8.968  19.879  0.00  0.00    +0.000 A 
ATOM     29  O   UNL     1       1.851   7.804  19.959  0.00  0.00    +0.000 OA
BRANCH  27  30
ATOM     30  O   UNL     1       0.490   8.836  22.263  0.00  0.00    +0.000 OA
ATOM     31  C   UNL     1      -0.127   9.574  23.314  0.00  0.00    +0.000 C 
ENDBRANCH  27  30
ENDBRANCH  19  20
ENDBRANCH   8  19
TORSDOF 6
ENDMDL
MODEL 2
REMARK VINA RESULT:      -9.0      0.907      1.721
REMARK  Name = 
REMARK  8 active torsions:
REMARK  status: ('A' for Active; 'I' for Inactive)
REMARK    1  A    between atoms: C_1  and  O_2
REMARK    2  A    between atoms: O_2  and  C_3
REMARK    3  A    between atoms: C_8  and  C_9
REMARK    4  A    between atoms: C_9  and  O_10
REMARK    5  A    between atoms: N_17  and  C_18
REMARK    6  A    between atoms: C_18  and  C_19
REMARK    7  A    between atoms: C_26  and  O_27
REMARK    8  A    between atoms: O_27  and  C_28
REMARK                            x       y       z     vdW  Elec       q    Type
REMARK                         _______ _______ _______ _____ _____    ______ ____
ROOT
ATOM      1  C   UNL     1       4.028   3.217  18.127  0.00  0.00    +0.000 C 
ATOM      2  C   UNL     1       3.732   3.028  19.664  0.00  0.00    +0.000 C 
ATOM      3  C   UNL     1       2.445   3.696  20.203  0.00  0.00    +0.000 C 
ATOM      4  C   UNL     1       1.181   2.863  19.942  0.00  0.00    +0.000 C 
ATOM      5  C   UNL     1       0.599   3.460  18.658  0.00  0.00    +0.000 C 
ATOM      6  C   UNL     1       1.707   4.417  18.161  0.00  0.00    +0.000 C 
ATOM      7  C   UNL     1       2.730   3.556  17.378  0.00  0.00    +0.000 C 
ATOM      8  N   UNL     1       2.100   4.918  19.479  0.00  0.00    +0.000 NA
ENDROOT
BRANCH   1  14
ATOM      9  C   UNL     1       5.874   4.413  16.641  0.00  0.00    +0.000 A 
ATOM     10  C   UNL     1       6.843   5.434  16.553  0.00  0.00    +0.000 A 
ATOM     11  C   UNL     1       7.343   6.052  17.692  0.00  0.00    +0.000 A 
ATOM     12  C   UNL     1       6.875   5.664  18.935  0.00  0.00    +0.000 A 
ATOM     13  C   UNL     1       5.857   4.713  19.024  0.00  0.00    +0.000 A 
ATOM     14  C   UNL     1       5.276   4.106  17.882  0.00  0.00    +0.000 A 
BRANCH   9  16
ATOM     15  C   UNL     1       6.257   4.028  14.332  0.00  0.00    +0.000 C 
ATOM     16  O   UNL     1       5.465   3.783  15.497  0.00  0.00    +0.000 OA
ENDBRANCH   9  16
ENDBRANCH   1  14
BRANCH   1  17
ATOM     17  O   UNL     1       4.460   1.922  17.628  0.00  0.00    +0.000 OA
ATOM     18  H   UNL     1       5.425   1.950  17.518  0.00  0.00    +0.000 HD
ENDBRANCH   1  17
BRANCH   8  19
ATOM     19  C   UNL     1       3.081   5.979  19.648  0.00  0.00    +0.000 C 
BRANCH  19  20
ATOM     20  C   UNL     1       2.717   7.437  19.338  0.00  0.00    +0.000 C 
ATOM     21  C   UNL     1       2.211   7.656  17.918  0.00  0.00    +0.000 C 
ATOM     22  O   UNL     1       1.850   9.034  17.714  0.00  0.00    +0.000 OA
ATOM     23  C   UNL     1       1.156   9.564  18.775  0.00  0.00    +0.000 A 
ATOM     24  C   UNL     1       0.583  10.819  18.577  0.00  0.00    +0.000 A 
ATOM     25  C   UNL     1      -0.117  11.438  19.612  0.00  0.00    +0.000 A 
ATOM     26  C   UNL     1      -0.256  10.793  20.842  0.00  0.00    +0.000 A 
ATOM     27  C   UNL     1       0.299   9.528  21.048  0.00  0.00    +0.000 A 
ATOM     28  C   UNL     1       1.039   8.928  20.017  0.00  0.00    +0.000 A 
ATOM     29  O   UNL     1       1.655   7.739  20.264  0.00  0.00    +0.000 OA
BRANCH  27  30
ATOM     30  O   UNL     1       0.130   9.035  22.319  0.00  0.00    +0.000 OA
ATOM     31  C   UNL     1      -0.575   9.877  23.226  0.00  0.00    +0.000 C 
ENDBRANCH  27  30
ENDBRANCH  19  20
ENDBRANCH   8  19
TORSDOF 6
ENDMDL
MODEL 3
REMARK VINA RESULT:      -8.6      1.212      2.017
REMARK  Name = 
REMARK  8 active torsions:
REMARK  status: ('A' for Active; 'I' for Inactive)
REMARK    1  A    between atoms: C_1  and  O_2
REMARK    2  A    between atoms: O_2  and  C_3
REMARK    3  A    between atoms: C_8  and  C_9
REMARK    4  A    between atoms: C_9  and  O_10
REMARK    5  A    between atoms: N_17  and  C_18
REMARK    6  A    between atoms: C_18  and  C_19
REMARK    7  A    between atoms: C_26  and  O_27
REMARK    8  A    between atoms: O_27  and  C_28
REMARK                            x       y       z     vdW  Elec       q    Type
REMARK                         _______ _______ _______ _____ _____    ______ ____
ROOT
ATOM      1  C   UNL     1       4.555   4.082  18.807  0.00  0.00    +0.000 C 
ATOM      2  C   UNL     1       3.922   4.511  20.186  0.00  0.00    +0.000 C 
ATOM      3  C   UNL     1       2.480   5.068  20.137  0.00  0.00    +0.000 C 
ATOM      4  C   UNL     1       1.411   3.965  20.084  0.00  0.00    +0.000 C 
ATOM      5  C   UNL     1       1.092   3.826  18.594  0.00  0.00    +0.000 C 
ATOM      6  C   UNL     1       2.178   4.683  17.902  0.00  0.00    +0.000 C 
ATOM      7  C   UNL     1       3.445   3.798  17.783  0.00  0.00    +0.000 C 
ATOM      8  N   UNL     1       2.189   5.767  18.886  0.00  0.00    +0.000 NA
ENDROOT
BRANCH   1  14
ATOM      9  C   UNL     1       5.875   5.693  17.161  0.00  0.00    +0.000 A 
ATOM     10  C   UNL     1       6.851   6.701  17.023  0.00  0.00    +0.000 A 
ATOM     11  C   UNL     1       7.781   6.945  18.026  0.00  0.00    +0.000 A 
ATOM     12  C   UNL     1       7.742   6.190  19.185  0.00  0.00    +0.000 A 
ATOM     13  C   UNL     1       6.727   5.248  19.363  0.00  0.00    +0.000 A 
ATOM     14  C   UNL     1       5.722   5.015  18.390  0.00  0.00    +0.000 A 
BRANCH   9  16
ATOM     15  C   UNL     1       5.637   4.952  14.920  0.00  0.00    +0.000 C 
ATOM     16  O   UNL     1       5.026   5.441  16.118  0.00  0.00    +0.000 OA
ENDBRANCH   9  16
ENDBRANCH   1  14
BRANCH   1  17
ATOM     17  O   UNL     1       5.229   2.816  19.038  0.00  0.00    +0.000 OA
ATOM     18  H   UNL     1       5.251   2.660  19.997  0.00  0.00    +0.000 HD
ENDBRANCH   1  17
BRANCH   8  19
ATOM     19  C   UNL     1       2.982   6.973  18.708  0.00  0.00    +0.000 C 
BRANCH  19  20
ATOM     20  C   UNL     1       2.306   8.350  18.642  0.00  0.00    +0.000 C 
ATOM     21  C   UNL     1       1.211   8.447  17.588  0.00  0.00    +0.000 C 
ATOM     22  O   UNL     1       0.597   9.749  17.614  0.00  0.00    +0.000 OA
ATOM     23  C   UNL     1       0.357  10.198  18.890  0.00  0.00    +0.000 A 
ATOM     24  C   UNL     1      -0.425  11.346  19.007  0.00  0.00    +0.000 A 
ATOM     25  C   UNL     1      -0.695  11.880  20.267  0.00  0.00    +0.000 A 
ATOM     26  C   UNL     1      -0.193  11.258  21.410  0.00  0.00    +0.000 A 
ATOM     27  C   UNL     1       0.580  10.098  21.308  0.00  0.00    +0.000 A 
ATOM     28  C   UNL     1       0.883   9.588  20.036  0.00  0.00    +0.000 A 
ATOM     29  O   UNL     1       1.715   8.513  19.946  0.00  0.00    +0.000 OA
BRANCH  27  30
ATOM     30  O   UNL     1       1.050   9.622  22.507  0.00  0.00    +0.000 OA
ATOM     31  C   UNL     1       0.073   9.416  23.523  0.00  0.00    +0.000 C 
ENDBRANCH  27  30
ENDBRANCH  19  20
ENDBRANCH   8  19
TORSDOF 6
ENDMDL
MODEL 4
REMARK VINA RESULT:      -7.8      1.431      1.632
REMARK  Name = 
REMARK  8 active torsions:
REMARK  status: ('A' for Active; 'I' for Inactive)
REMARK    1  A    between atoms: C_1  and  O_2
REMARK    2  A    between atoms: O_2  and  C_3
REMARK    3  A    between atoms: C_8  and  C_9
REMARK    4  A    between atoms: C_9  and  O_10
REMARK    5  A    between atoms: N_17  and  C_18
REMARK    6  A    between atoms: C_18  and  C_19
REMARK    7  A    between atoms: C_26  and  O_27
REMARK    8  A    between atoms: O_27  and  C_28
REMARK                            x       y       z     vdW  Elec       q    Type
REMARK                         _______ _______ _______ _____ _____    ______ ____
ROOT
ATOM      1  C   UNL     1       4.503   4.503  18.793  0.00  0.00    +0.000 C 
ATOM      2  C   UNL     1       3.836   4.968  20.145  0.00  0.00    +0.000 C 
ATOM      3  C   UNL     1       2.355   5.408  20.064  0.00  0.00    +0.000 C 
ATOM      4  C   UNL     1       1.375   4.224  20.084  0.00  0.00    +0.000 C 
ATOM      5  C   UNL     1       1.070   3.967  18.606  0.00  0.00    +0.000 C 
ATOM      6  C   UNL     1       2.089   4.860  17.859  0.00  0.00    +0.000 C 
ATOM      7  C   UNL     1       3.420   4.070  17.793  0.00  0.00    +0.000 C 
ATOM      8  N   UNL     1       2.013   6.001  18.773  0.00  0.00    +0.000 NA
ENDROOT
BRANCH   1  14
ATOM      9  C   UNL     1       6.839   5.756  18.931  0.00  0.00    +0.000 A 
ATOM     10  C   UNL     1       7.829   6.489  18.246  0.00  0.00    +0.000 A 
ATOM     11  C   UNL     1       7.560   7.102  17.029  0.00  0.00    +0.000 A 
ATOM     12  C   UNL     1       6.298   6.982  16.474  0.00  0.00    +0.000 A 
ATOM     13  C   UNL     1       5.339   6.188  17.105  0.00  0.00    +0.000 A 
ATOM     14  C   UNL     1       5.595   5.495  18.316  0.00  0.00    +0.000 A 
BRANCH   9  16
ATOM     15  C   UNL     1       8.513   5.216  20.522  0.00  0.00    +0.000 C 
ATOM     16  O   UNL     1       7.129   5.231  20.161  0.00  0.00    +0.000 OA
ENDBRANCH   9  16
ENDBRANCH   1  14
BRANCH   1  17
ATOM     17  O   UNL     1       5.272   3.310  19.102  0.00  0.00    +0.000 OA
ATOM     18  H   UNL     1       6.193   3.472  18.840  0.00  0.00    +0.000 HD
ENDBRANCH   1  17
BRANCH   8  19
ATOM     19  C   UNL     1       2.711   7.252  18.516  0.00  0.00    +0.000 C 
BRANCH  19  20
ATOM     20  C   UNL     1       1.955   8.587  18.541  0.00  0.00    +0.000 C 
ATOM     21  C   UNL     1       0.778   8.646  17.575  0.00  0.00    +0.000 C 
ATOM     22  O   UNL     1       0.095   9.907  17.684  0.00  0.00    +0.000 OA
ATOM     23  C   UNL     1      -0.071  10.311  18.987  0.00  0.00    +0.000 A 
ATOM     24  C   UNL     1      -0.906  11.408  19.195  0.00  0.00    +0.000 A 
ATOM     25  C   UNL     1      -1.108  11.896  20.486  0.00  0.00    +0.000 A 
ATOM     26  C   UNL     1      -0.484  11.277  21.570  0.00  0.00    +0.000 A 
ATOM     27  C   UNL     1       0.342  10.167  21.377  0.00  0.00    +0.000 A 
ATOM     28  C   UNL     1       0.575   9.706  20.072  0.00  0.00    +0.000 A 
ATOM     29  O   UNL     1       1.458   8.685  19.889  0.00  0.00    +0.000 OA
BRANCH  27  30
ATOM     30  O   UNL     1       0.930   9.691  22.524  0.00  0.00    +0.000 OA
ATOM     31  C   UNL     1       0.055   9.462  23.624  0.00  0.00    +0.000 C 
ENDBRANCH  27  30
ENDBRANCH  19  20
ENDBRANCH   8  19
TORSDOF 6
ENDMDL
MODEL 5
REMARK VINA RESULT:      -7.8      1.631      2.530
REMARK  Name = 
REMARK  8 active torsions:
REMARK  status: ('A' for Active; 'I' for Inactive)
REMARK    1  A    between atoms: C_1  and  O_2
REMARK    2  A    between atoms: O_2  and  C_3
REMARK    3  A    between atoms: C_8  and  C_9
REMARK    4  A    between atoms: C_9  and  O_10
REMARK    5  A    between atoms: N_17  and  C_18
REMARK    6  A    between atoms: C_18  and  C_19
REMARK    7  A    between atoms: C_26  and  O_27
REMARK    8  A    between atoms: O_27  and  C_28
REMARK                            x       y       z     vdW  Elec       q    Type
REMARK                         _______ _______ _______ _____ _____    ______ ____
ROOT
ATOM      1  C   UNL     1       3.826   3.961  19.046  0.00  0.00    +0.000 C 
ATOM      2  C   UNL     1       3.803   4.022  20.622  0.00  0.00    +0.000 C 
ATOM      3  C   UNL     1       2.424   4.265  21.280  0.00  0.00    +0.000 C 
ATOM      4  C   UNL     1       1.582   2.985  21.400  0.00  0.00    +0.000 C 
ATOM      5  C   UNL     1       0.671   3.022  20.171  0.00  0.00    +0.000 C 
ATOM      6  C   UNL     1       1.238   4.186  19.325  0.00  0.00    +0.000 C 
ATOM      7  C   UNL     1       2.427   3.617  18.512  0.00  0.00    +0.000 C 
ATOM      8  N   UNL     1       1.539   5.077  20.447  0.00  0.00    +0.000 NA
ENDROOT
BRANCH   1  14
ATOM      9  C   UNL     1       5.899   5.581  18.697  0.00  0.00    +0.000 A 
ATOM     10  C   UNL     1       6.524   6.543  17.877  0.00  0.00    +0.000 A 
ATOM     11  C   UNL     1       5.815   7.220  16.892  0.00  0.00    +0.000 A 
ATOM     12  C   UNL     1       4.472   6.938  16.709  0.00  0.00    +0.000 A 
ATOM     13  C   UNL     1       3.869   5.929  17.462  0.00  0.00    +0.000 A 
ATOM     14  C   UNL     1       4.575   5.172  18.431  0.00  0.00    +0.000 A 
BRANCH   9  16
ATOM     15  C   UNL     1       7.963   5.457  19.860  0.00  0.00    +0.000 C 
ATOM     16  O   UNL     1       6.620   4.992  19.701  0.00  0.00    +0.000 OA
ENDBRANCH   9  16
ENDBRANCH   1  14
BRANCH   1  17
ATOM     17  O   UNL     1       4.684   2.844  18.690  0.00  0.00    +0.000 OA
ATOM     18  H   UNL     1       5.313   2.705  19.418  0.00  0.00    +0.000 HD
ENDBRANCH   1  17
BRANCH   8  19
ATOM     19  C   UNL     1       2.022   6.435  20.256  0.00  0.00    +0.000 C 
BRANCH  19  20
ATOM     20  C   UNL     1       1.236   7.630  20.814  0.00  0.00    +0.000 C 
ATOM     21  C   UNL     1       2.011   8.451  21.837  0.00  0.00    +0.000 C 
ATOM     22  O   UNL     1       1.229   9.574  22.283  0.00  0.00    +0.000 OA
ATOM     23  C   UNL     1       0.574  10.208  21.254  0.00  0.00    +0.000 A 
ATOM     24  C   UNL     1      -0.030  11.426  21.561  0.00  0.00    +0.000 A 
ATOM     25  C   UNL     1      -0.736  12.121  20.579  0.00  0.00    +0.000 A 
ATOM     26  C   UNL     1      -0.825  11.602  19.286  0.00  0.00    +0.000 A 
ATOM     27  C   UNL     1      -0.211  10.390  18.962  0.00  0.00    +0.000 A 
ATOM     28  C   UNL     1       0.463   9.674  19.964  0.00  0.00    +0.000 A 
ATOM     29  O   UNL     1       0.974   8.449  19.659  0.00  0.00    +0.000 OA
BRANCH  27  30
ATOM     30  O   UNL     1      -0.422   9.974  17.670  0.00  0.00    +0.000 OA
ATOM     31  C   UNL     1      -1.778   9.966  17.232  0.00  0.00    +0.000 C 
ENDBRANCH  27  30
ENDBRANCH  19  20
ENDBRANCH   8  19
TORSDOF 6
ENDMDL
MODEL 6
REMARK VINA RESULT:      -7.7      1.241      3.665
REMARK  Name = 
REMARK  8 active torsions:
REMARK  status: ('A' for Active; 'I' for Inactive)
REMARK    1  A    between atoms: C_1  and  O_2
REMARK    2  A    between atoms: O_2  and  C_3
REMARK    3  A    between atoms: C_8  and  C_9
REMARK    4  A    between atoms: C_9  and  O_10
REMARK    5  A    between atoms: N_17  and  C_18
REMARK    6  A    between atoms: C_18  and  C_19
REMARK    7  A    between atoms: C_26  and  O_27
REMARK    8  A    between atoms: O_27  and  C_28
REMARK                            x       y       z     vdW  Elec       q    Type
REMARK                         _______ _______ _______ _____ _____    ______ ____
ROOT
ATOM      1  C   UNL     1       4.327   3.522  18.098  0.00  0.00    +0.000 C 
ATOM      2  C   UNL     1       3.781   4.319  16.852  0.00  0.00    +0.000 C 
ATOM      3  C   UNL     1       4.354   5.740  16.640  0.00  0.00    +0.000 C 
ATOM      4  C   UNL     1       5.720   5.738  15.936  0.00  0.00    +0.000 C 
ATOM      5  C   UNL     1       6.731   5.823  17.082  0.00  0.00    +0.000 C 
ATOM      6  C   UNL     1       5.869   5.617  18.350  0.00  0.00    +0.000 C 
ATOM      7  C   UNL     1       5.689   4.088  18.531  0.00  0.00    +0.000 C 
ATOM      8  N   UNL     1       4.715   6.395  17.896  0.00  0.00    +0.000 NA
ENDROOT
BRANCH   1  14
ATOM      9  C   UNL     1       3.423   2.902  20.516  0.00  0.00    +0.000 A 
ATOM     10  C   UNL     1       2.371   3.010  21.448  0.00  0.00    +0.000 A 
ATOM     11  C   UNL     1       1.091   3.377  21.052  0.00  0.00    +0.000 A 
ATOM     12  C   UNL     1       0.848   3.651  19.717  0.00  0.00    +0.000 A 
ATOM     13  C   UNL     1       1.902   3.628  18.803  0.00  0.00    +0.000 A 
ATOM     14  C   UNL     1       3.234   3.320  19.180  0.00  0.00    +0.000 A 
BRANCH   9  16
ATOM     15  C   UNL     1       4.901   1.067  20.793  0.00  0.00    +0.000 C 
ATOM     16  O   UNL     1       4.649   2.467  20.941  0.00  0.00    +0.000 OA
ENDBRANCH   9  16
ENDBRANCH   1  14
BRANCH   1  17
ATOM     17  O   UNL     1       4.577   2.165  17.643  0.00  0.00    +0.000 OA
ATOM     18  H   UNL     1       4.545   2.165  16.672  0.00  0.00    +0.000 HD
ENDBRANCH   1  17
BRANCH   8  19
ATOM     19  C   UNL     1       3.568   6.659  18.752  0.00  0.00    +0.000 C 
BRANCH  19  20
ATOM     20  C   UNL     1       2.854   8.017  18.704  0.00  0.00    +0.000 C 
ATOM     21  C   UNL     1       2.064   8.250  17.422  0.00  0.00    +0.000 C 
ATOM     22  O   UNL     1       1.390   9.521  17.467  0.00  0.00    +0.000 OA
ATOM     23  C   UNL     1       0.803   9.769  18.685  0.00  0.00    +0.000 A 
ATOM     24  C   UNL     1      -0.048  10.871  18.751  0.00  0.00    +0.000 A 
ATOM     25  C   UNL     1      -0.664  11.205  19.957  0.00  0.00    +0.000 A 
ATOM     26  C   UNL     1      -0.438  10.428  21.094  0.00  0.00    +0.000 A 
ATOM     27  C   UNL     1       0.401   9.312  21.037  0.00  0.00    +0.000 A 
ATOM     28  C   UNL     1       1.050   9.004  19.832  0.00  0.00    +0.000 A 
ATOM     29  O   UNL     1       1.939   7.971  19.815  0.00  0.00    +0.000 OA
BRANCH  27  30
ATOM     30  O   UNL     1       0.573   8.670  22.239  0.00  0.00    +0.000 OA
ATOM     31  C   UNL     1       0.154   9.389  23.396  0.00  0.00    +0.000 C 
ENDBRANCH  27  30
ENDBRANCH  19  20
ENDBRANCH   8  19
TORSDOF 6
ENDMDL
MODEL 7
REMARK VINA RESULT:      -7.7      1.711      1.903
REMARK  Name = 
REMARK  8 active torsions:
REMARK  status: ('A' for Active; 'I' for Inactive)
REMARK    1  A    between atoms: C_1  and  O_2
REMARK    2  A    between atoms: O_2  and  C_3
REMARK    3  A    between atoms: C_8  and  C_9
REMARK    4  A    between atoms: C_9  and  O_10
REMARK    5  A    between atoms: N_17  and  C_18
REMARK    6  A    between atoms: C_18  and  C_19
REMARK    7  A    between atoms: C_26  and  O_27
REMARK    8  A    between atoms: O_27  and  C_28
REMARK                            x       y       z     vdW  Elec       q    Type
REMARK                         _______ _______ _______ _____ _____    ______ ____
ROOT
ATOM      1  C   UNL     1       4.107   3.509  18.883  0.00  0.00    +0.000 C 
ATOM      2  C   UNL     1       3.736   4.543  20.015  0.00  0.00    +0.000 C 
ATOM      3  C   UNL     1       2.257   4.991  20.080  0.00  0.00    +0.000 C 
ATOM      4  C   UNL     1       1.357   3.987  20.817  0.00  0.00    +0.000 C 
ATOM      5  C   UNL     1       0.744   3.143  19.697  0.00  0.00    +0.000 C 
ATOM      6  C   UNL     1       1.533   3.572  18.437  0.00  0.00    +0.000 C 
ATOM      7  C   UNL     1       2.849   2.754  18.427  0.00  0.00    +0.000 C 
ATOM      8  N   UNL     1       1.613   4.996  18.767  0.00  0.00    +0.000 NA
ENDROOT
BRANCH   1  14
ATOM      9  C   UNL     1       6.268   4.772  18.002  0.00  0.00    +0.000 A 
ATOM     10  C   UNL     1       7.100   5.066  16.902  0.00  0.00    +0.000 A 
ATOM     11  C   UNL     1       6.659   4.888  15.597  0.00  0.00    +0.000 A 
ATOM     12  C   UNL     1       5.383   4.403  15.374  0.00  0.00    +0.000 A 
ATOM     13  C   UNL     1       4.585   4.031  16.457  0.00  0.00    +0.000 A 
ATOM     14  C   UNL     1       5.023   4.139  17.802  0.00  0.00    +0.000 A 
BRANCH   9  16
ATOM     15  C   UNL     1       7.937   5.779  19.355  0.00  0.00    +0.000 C 
ATOM     16  O   UNL     1       6.720   5.032  19.267  0.00  0.00    +0.000 OA
ENDBRANCH   9  16
ENDBRANCH   1  14
BRANCH   1  17
ATOM     17  O   UNL     1       4.975   2.519  19.497  0.00  0.00    +0.000 OA
ATOM     18  H   UNL     1       5.886   2.704  19.214  0.00  0.00    +0.000 HD
ENDBRANCH   1  17
BRANCH   8  19
ATOM     19  C   UNL     1       2.183   5.976  17.856  0.00  0.00    +0.000 C 
BRANCH  19  20
ATOM     20  C   UNL     1       2.325   7.445  18.277  0.00  0.00    +0.000 C 
ATOM     21  C   UNL     1       3.368   8.216  17.478  0.00  0.00    +0.000 C 
ATOM     22  O   UNL     1       3.415   9.591  17.899  0.00  0.00    +0.000 OA
ATOM     23  C   UNL     1       2.166  10.131  18.091  0.00  0.00    +0.000 A 
ATOM     24  C   UNL     1       2.110  11.510  18.290  0.00  0.00    +0.000 A 
ATOM     25  C   UNL     1       0.883  12.133  18.516  0.00  0.00    +0.000 A 
ATOM     26  C   UNL     1      -0.290  11.377  18.530  0.00  0.00    +0.000 A 
ATOM     27  C   UNL     1      -0.249   9.997  18.316  0.00  0.00    +0.000 A 
ATOM     28  C   UNL     1       0.992   9.369  18.130  0.00  0.00    +0.000 A 
ATOM     29  O   UNL     1       1.026   8.012  18.019  0.00  0.00    +0.000 OA
BRANCH  27  30
ATOM     30  O   UNL     1      -1.469   9.372  18.407  0.00  0.00    +0.000 OA
ATOM     31  C   UNL     1      -2.545  10.001  17.716  0.00  0.00    +0.000 C 
ENDBRANCH  27  30
ENDBRANCH  19  20
ENDBRANCH   8  19
TORSDOF 6
ENDMDL
MODEL 8
REMARK VINA RESULT:      -7.6      1.377      3.565
REMARK  Name = 
REMARK  8 active torsions:
REMARK  status: ('A' for Active; 'I' for Inactive)
REMARK    1  A    between atoms: C_1  and  O_2
REMARK    2  A    between atoms: O_2  and  C_3
REMARK    3  A    between atoms: C_8  and  C_9
REMARK    4  A    between atoms: C_9  and  O_10
REMARK    5  A    between atoms: N_17  and  C_18
REMARK    6  A    between atoms: C_18  and  C_19
REMARK    7  A    between atoms: C_26  and  O_27
REMARK    8  A    between atoms: O_27  and  C_28
REMARK                            x       y       z     vdW  Elec       q    Type
REMARK                         _______ _______ _______ _____ _____    ______ ____
ROOT
ATOM      1  C   UNL     1       4.763   3.937  17.441  0.00  0.00    +0.000 C 
ATOM      2  C   UNL     1       4.645   5.138  16.425  0.00  0.00    +0.000 C 
ATOM      3  C   UNL     1       5.154   6.511  16.922  0.00  0.00    +0.000 C 
ATOM      4  C   UNL     1       6.679   6.666  16.801  0.00  0.00    +0.000 C 
ATOM      5  C   UNL     1       7.202   6.301  18.192  0.00  0.00    +0.000 C 
ATOM      6  C   UNL     1       5.960   5.731  18.917  0.00  0.00    +0.000 C 
ATOM      7  C   UNL     1       5.835   4.244  18.498  0.00  0.00    +0.000 C 
ATOM      8  N   UNL     1       4.994   6.682  18.365  0.00  0.00    +0.000 NA
ENDROOT
BRANCH   1  14
ATOM      9  C   UNL     1       3.102   2.377  18.802  0.00  0.00    +0.000 A 
ATOM     10  C   UNL     1       1.811   2.213  19.345  0.00  0.00    +0.000 A 
ATOM     11  C   UNL     1       0.744   2.992  18.915  0.00  0.00    +0.000 A 
ATOM     12  C   UNL     1       0.956   3.954  17.943  0.00  0.00    +0.000 A 
ATOM     13  C   UNL     1       2.247   4.178  17.462  0.00  0.00    +0.000 A 
ATOM     14  C   UNL     1       3.372   3.447  17.922  0.00  0.00    +0.000 A 
BRANCH   9  16
ATOM     15  C   UNL     1       4.570   1.718  20.545  0.00  0.00    +0.000 C 
ATOM     16  O   UNL     1       4.105   1.538  19.205  0.00  0.00    +0.000 OA
ENDBRANCH   9  16
ENDBRANCH   1  14
BRANCH   1  17
ATOM     17  O   UNL     1       5.254   2.800  16.682  0.00  0.00    +0.000 OA
ATOM     18  H   UNL     1       4.678   2.687  15.908  0.00  0.00    +0.000 HD
ENDBRANCH   1  17
BRANCH   8  19
ATOM     19  C   UNL     1       3.601   6.710  18.785  0.00  0.00    +0.000 C 
BRANCH  19  20
ATOM     20  C   UNL     1       2.771   7.995  18.656  0.00  0.00    +0.000 C 
ATOM     21  C   UNL     1       1.771   7.968  17.508  0.00  0.00    +0.000 C 
ATOM     22  O   UNL     1       1.003   9.185  17.475  0.00  0.00    +0.000 OA
ATOM     23  C   UNL     1       0.598   9.591  18.724  0.00  0.00    +0.000 A 
ATOM     24  C   UNL     1      -0.325  10.634  18.768  0.00  0.00    +0.000 A 
ATOM     25  C   UNL     1      -0.769  11.122  19.997  0.00  0.00    +0.000 A 
ATOM     26  C   UNL     1      -0.298  10.556  21.182  0.00  0.00    +0.000 A 
ATOM     27  C   UNL     1       0.615   9.499  21.152  0.00  0.00    +0.000 A 
ATOM     28  C   UNL     1       1.090   9.040  19.914  0.00  0.00    +0.000 A 
ATOM     29  O   UNL     1       2.052   8.075  19.901  0.00  0.00    +0.000 OA
BRANCH  27  30
ATOM     30  O   UNL     1       1.032   9.073  22.390  0.00  0.00    +0.000 OA
ATOM     31  C   UNL     1       0.173   9.393  23.480  0.00  0.00    +0.000 C 
ENDBRANCH  27  30
ENDBRANCH  19  20
ENDBRANCH   8  19
TORSDOF 6
ENDMDL
MODEL 9
REMARK VINA RESULT:      -7.4      1.547      2.528
REMARK  Name = 
REMARK  8 active torsions:
REMARK  status: ('A' for Active; 'I' for Inactive)
REMARK    1  A    between atoms: C_1  and  O_2
REMARK    2  A    between atoms: O_2  and  C_3
REMARK    3  A    between atoms: C_8  and  C_9
REMARK    4  A    between atoms: C_9  and  O_10
REMARK    5  A    between atoms: N_17  and  C_18
REMARK    6  A    between atoms: C_18  and  C_19
REMARK    7  A    between atoms: C_26  and  O_27
REMARK    8  A    between atoms: O_27  and  C_28
REMARK                            x       y       z     vdW  Elec       q    Type
REMARK                         _______ _______ _______ _____ _____    ______ ____
ROOT
ATOM      1  C   UNL     1       4.057   3.899  19.014  0.00  0.00    +0.000 C 
ATOM      2  C   UNL     1       3.857   4.069  20.569  0.00  0.00    +0.000 C 
ATOM      3  C   UNL     1       2.402   4.251  21.060  0.00  0.00    +0.000 C 
ATOM      4  C   UNL     1       1.641   2.922  21.191  0.00  0.00    +0.000 C 
ATOM      5  C   UNL     1       0.870   2.802  19.875  0.00  0.00    +0.000 C 
ATOM      6  C   UNL     1       1.444   3.944  19.004  0.00  0.00    +0.000 C 
ATOM      7  C   UNL     1       2.752   3.412  18.366  0.00  0.00    +0.000 C 
ATOM      8  N   UNL     1       1.558   4.932  20.079  0.00  0.00    +0.000 NA
ENDROOT
BRANCH   1  14
ATOM      9  C   UNL     1       6.063   5.611  18.717  0.00  0.00    +0.000 A 
ATOM     10  C   UNL     1       6.693   6.564  17.890  0.00  0.00    +0.000 A 
ATOM     11  C   UNL     1       6.018   7.154  16.829  0.00  0.00    +0.000 A 
ATOM     12  C   UNL     1       4.707   6.792  16.574  0.00  0.00    +0.000 A 
ATOM     13  C   UNL     1       4.106   5.789  17.336  0.00  0.00    +0.000 A 
ATOM     14  C   UNL     1       4.782   5.118  18.387  0.00  0.00    +0.000 A 
BRANCH   9  16
ATOM     15  C   UNL     1       8.111   5.516  19.912  0.00  0.00    +0.000 C 
ATOM     16  O   UNL     1       6.744   5.111  19.794  0.00  0.00    +0.000 OA
ENDBRANCH   9  16
ENDBRANCH   1  14
BRANCH   1  17
ATOM     17  O   UNL     1       5.023   2.829  18.837  0.00  0.00    +0.000 OA
ATOM     18  H   UNL     1       4.580   2.100  18.371  0.00  0.00    +0.000 HD
ENDBRANCH   1  17
BRANCH   8  19
ATOM     19  C   UNL     1       1.964   6.307  19.832  0.00  0.00    +0.000 C 
BRANCH  19  20
ATOM     20  C   UNL     1       1.022   7.472  20.166  0.00  0.00    +0.000 C 
ATOM     21  C   UNL     1       0.823   7.693  21.660  0.00  0.00    +0.000 C 
ATOM     22  O   UNL     1      -0.036   8.824  21.895  0.00  0.00    +0.000 OA
ATOM     23  C   UNL     1       0.256   9.891  21.080  0.00  0.00    +0.000 A 
ATOM     24  C   UNL     1      -0.378  11.095  21.383  0.00  0.00    +0.000 A 
ATOM     25  C   UNL     1      -0.155  12.220  20.590  0.00  0.00    +0.000 A 
ATOM     26  C   UNL     1       0.714  12.143  19.501  0.00  0.00    +0.000 A 
ATOM     27  C   UNL     1       1.369  10.947  19.196  0.00  0.00    +0.000 A 
ATOM     28  C   UNL     1       1.109   9.807  19.972  0.00  0.00    +0.000 A 
ATOM     29  O   UNL     1       1.678   8.625  19.606  0.00  0.00    +0.000 OA
BRANCH  27  30
ATOM     30  O   UNL     1       2.153  11.001  18.070  0.00  0.00    +0.000 OA
ATOM     31  C   UNL     1       2.770  12.256  17.799  0.00  0.00    +0.000 C 
ENDBRANCH  27  30
ENDBRANCH  19  20
ENDBRANCH   8  19
TORSDOF 6
ENDMDL
