MODEL 1
REMARK VINA RESULT:      -7.9      0.000      0.000
REMARK  Name = 
REMARK  2 active torsions:
REMARK  status: ('A' for Active; 'I' for Inactive)
REMARK    1  A    between atoms: C_6  and  N_7
REMARK    2  A    between atoms: C_13  and  N_14
REMARK                            x       y       z     vdW  Elec       q    Type
REMARK                         _______ _______ _______ _____ _____    ______ ____
ROOT
ATOM      1  N   UNL     1       4.123   6.308  17.833  0.00  0.00    +0.000 N 
ATOM      2  C   UNL     1       3.553   7.556  17.629  0.00  0.00    +0.000 A 
ATOM      3  C   UNL     1       2.488   7.721  18.480  0.00  0.00    +0.000 A 
ATOM      4  C   UNL     1       2.390   6.555  19.271  0.00  0.00    +0.000 A 
ATOM      5  C   UNL     1       1.511   6.182  20.308  0.00  0.00    +0.000 A 
ATOM      6  C   UNL     1       1.670   4.950  20.946  0.00  0.00    +0.000 A 
ATOM      7  C   UNL     1       2.692   4.089  20.544  0.00  0.00    +0.000 A 
ATOM      8  C   UNL     1       3.571   4.427  19.499  0.00  0.00    +0.000 A 
ATOM      9  C   UNL     1       3.408   5.679  18.866  0.00  0.00    +0.000 A 
ENDROOT
BRANCH   1  15
ATOM     10  N   UNL     1       8.327   4.163  17.787  0.00  0.00    +0.000 N 
ATOM     11  C   UNL     1       7.288   4.734  17.087  0.00  0.00    +0.000 A 
ATOM     12  N   UNL     1       7.348   4.686  15.757  0.00  0.00    +0.000 NA
ATOM     13  C   UNL     1       6.296   5.189  15.094  0.00  0.00    +0.000 A 
ATOM     14  C   UNL     1       5.198   5.736  15.714  0.00  0.00    +0.000 A 
ATOM     15  C   UNL     1       5.236   5.770  17.095  0.00  0.00    +0.000 A 
ATOM     16  N   UNL     1       6.294   5.287  17.785  0.00  0.00    +0.000 NA
ATOM     17  H   UNL     1       9.154   4.096  17.214  0.00  0.00    +0.000 HD
ATOM     18  H   UNL     1       8.416   4.557  18.712  0.00  0.00    +0.000 HD
ENDBRANCH   1  15
BRANCH   7  19
ATOM     19  N   UNL     1       2.863   2.805  21.242  0.00  0.00    +0.000 N 
ATOM     20  O   UNL     1       2.001   2.477  22.072  0.00  0.00    +0.000 OA
ATOM     21  O   UNL     1       3.862   2.123  20.967  0.00  0.00    +0.000 OA
ENDBRANCH   7  19
TORSDOF 2
ENDMDL
MODEL 2
REMARK VINA RESULT:      -7.8      0.783      1.459
REMARK  Name = 
REMARK  2 active torsions:
REMARK  status: ('A' for Active; 'I' for Inactive)
REMARK    1  A    between atoms: C_6  and  N_7
REMARK    2  A    between atoms: C_13  and  N_14
REMARK                            x       y       z     vdW  Elec       q    Type
REMARK                         _______ _______ _______ _____ _____    ______ ____
ROOT
ATOM      1  N   UNL     1       4.322   6.086  17.985  0.00  0.00    +0.000 N 
ATOM      2  C   UNL     1       3.762   7.307  17.640  0.00  0.00    +0.000 A 
ATOM      3  C   UNL     1       2.602   7.498  18.348  0.00  0.00    +0.000 A 
ATOM      4  C   UNL     1       2.428   6.380  19.193  0.00  0.00    +0.000 A 
ATOM      5  C   UNL     1       1.438   6.050  20.141  0.00  0.00    +0.000 A 
ATOM      6  C   UNL     1       1.539   4.862  20.868  0.00  0.00    +0.000 A 
ATOM      7  C   UNL     1       2.614   4.002  20.642  0.00  0.00    +0.000 A 
ATOM      8  C   UNL     1       3.605   4.296  19.689  0.00  0.00    +0.000 A 
ATOM      9  C   UNL     1       3.500   5.504  18.965  0.00  0.00    +0.000 A 
ENDROOT
BRANCH   1  15
ATOM     10  N   UNL     1       6.961   5.092  14.200  0.00  0.00    +0.000 N 
ATOM     11  C   UNL     1       6.794   5.042  15.565  0.00  0.00    +0.000 A 
ATOM     12  N   UNL     1       7.797   4.544  16.286  0.00  0.00    +0.000 NA
ATOM     13  C   UNL     1       7.642   4.564  17.619  0.00  0.00    +0.000 A 
ATOM     14  C   UNL     1       6.525   5.060  18.246  0.00  0.00    +0.000 A 
ATOM     15  C   UNL     1       5.523   5.530  17.418  0.00  0.00    +0.000 A 
ATOM     16  N   UNL     1       5.647   5.502  16.072  0.00  0.00    +0.000 NA
ATOM     17  H   UNL     1       7.663   4.433  13.898  0.00  0.00    +0.000 HD
ATOM     18  H   UNL     1       6.077   5.104  13.715  0.00  0.00    +0.000 HD
ENDBRANCH   1  15
BRANCH   7  19
ATOM     19  N   UNL     1       2.720   2.765  21.434  0.00  0.00    +0.000 N 
ATOM     20  O   UNL     1       1.740   2.426  22.113  0.00  0.00    +0.000 OA
ATOM     21  O   UNL     1       3.786   2.133  21.382  0.00  0.00    +0.000 OA
ENDBRANCH   7  19
TORSDOF 2
ENDMDL
MODEL 3
REMARK VINA RESULT:      -7.5      2.553      3.330
REMARK  Name = 
REMARK  2 active torsions:
REMARK  status: ('A' for Active; 'I' for Inactive)
REMARK    1  A    between atoms: C_6  and  N_7
REMARK    2  A    between atoms: C_13  and  N_14
REMARK                            x       y       z     vdW  Elec       q    Type
REMARK                         _______ _______ _______ _____ _____    ______ ____
ROOT
ATOM      1  N   UNL     1       4.285   3.727  17.784  0.00  0.00    +0.000 N 
ATOM      2  C   UNL     1       4.039   2.370  17.930  0.00  0.00    +0.000 A 
ATOM      3  C   UNL     1       3.056   2.178  18.868  0.00  0.00    +0.000 A 
ATOM      4  C   UNL     1       2.639   3.452  19.316  0.00  0.00    +0.000 A 
ATOM      5  C   UNL     1       1.661   3.859  20.246  0.00  0.00    +0.000 A 
ATOM      6  C   UNL     1       1.441   5.218  20.475  0.00  0.00    +0.000 A 
ATOM      7  C   UNL     1       2.201   6.167  19.790  0.00  0.00    +0.000 A 
ATOM      8  C   UNL     1       3.197   5.789  18.872  0.00  0.00    +0.000 A 
ATOM      9  C   UNL     1       3.406   4.412  18.639  0.00  0.00    +0.000 A 
ENDROOT
BRANCH   1  15
ATOM     10  N   UNL     1       7.629   6.966  17.005  0.00  0.00    +0.000 N 
ATOM     11  C   UNL     1       6.898   5.895  16.546  0.00  0.00    +0.000 A 
ATOM     12  N   UNL     1       7.210   5.411  15.343  0.00  0.00    +0.000 NA
ATOM     13  C   UNL     1       6.529   4.327  14.941  0.00  0.00    +0.000 A 
ATOM     14  C   UNL     1       5.555   3.718  15.695  0.00  0.00    +0.000 A 
ATOM     15  C   UNL     1       5.278   4.305  16.916  0.00  0.00    +0.000 A 
ATOM     16  N   UNL     1       5.936   5.410  17.335  0.00  0.00    +0.000 NA
ATOM     17  H   UNL     1       8.063   7.461  16.240  0.00  0.00    +0.000 HD
ATOM     18  H   UNL     1       7.120   7.500  17.692  0.00  0.00    +0.000 HD
ENDBRANCH   1  15
BRANCH   7  19
ATOM     19  N   UNL     1       1.941   7.597  20.023  0.00  0.00    +0.000 N 
ATOM     20  O   UNL     1       1.535   7.937  21.145  0.00  0.00    +0.000 OA
ATOM     21  O   UNL     1       2.136   8.383  19.084  0.00  0.00    +0.000 OA
ENDBRANCH   7  19
TORSDOF 2
ENDMDL
MODEL 4
REMARK VINA RESULT:      -7.5      2.594      3.570
REMARK  Name = 
REMARK  2 active torsions:
REMARK  status: ('A' for Active; 'I' for Inactive)
REMARK    1  A    between atoms: C_6  and  N_7
REMARK    2  A    between atoms: C_13  and  N_14
REMARK                            x       y       z     vdW  Elec       q    Type
REMARK                         _______ _______ _______ _____ _____    ______ ____
ROOT
ATOM      1  N   UNL     1       4.098   3.364  18.133  0.00  0.00    +0.000 N 
ATOM      2  C   UNL     1       3.700   2.038  18.216  0.00  0.00    +0.000 A 
ATOM      3  C   UNL     1       2.591   1.939  19.018  0.00  0.00    +0.000 A 
ATOM      4  C   UNL     1       2.251   3.244  19.439  0.00  0.00    +0.000 A 
ATOM      5  C   UNL     1       1.207   3.741  20.246  0.00  0.00    +0.000 A 
ATOM      6  C   UNL     1       1.097   5.114  20.476  0.00  0.00    +0.000 A 
ATOM      7  C   UNL     1       2.030   5.986  19.913  0.00  0.00    +0.000 A 
ATOM      8  C   UNL     1       3.092   5.516  19.120  0.00  0.00    +0.000 A 
ATOM      9  C   UNL     1       3.190   4.128  18.886  0.00  0.00    +0.000 A 
ENDROOT
BRANCH   1  15
ATOM     10  N   UNL     1       6.318   4.112  14.035  0.00  0.00    +0.000 N 
ATOM     11  C   UNL     1       6.322   4.195  15.408  0.00  0.00    +0.000 A 
ATOM     12  N   UNL     1       7.368   4.789  15.982  0.00  0.00    +0.000 NA
ATOM     13  C   UNL     1       7.322   4.919  17.317  0.00  0.00    +0.000 A 
ATOM     14  C   UNL     1       6.275   4.476  18.088  0.00  0.00    +0.000 A 
ATOM     15  C   UNL     1       5.247   3.846  17.411  0.00  0.00    +0.000 A 
ATOM     16  N   UNL     1       5.279   3.685  16.069  0.00  0.00    +0.000 NA
ATOM     17  H   UNL     1       7.253   4.194  13.666  0.00  0.00    +0.000 HD
ATOM     18  H   UNL     1       5.739   3.353  13.708  0.00  0.00    +0.000 HD
ENDBRANCH   1  15
BRANCH   7  19
ATOM     19  N   UNL     1       1.887   7.433  20.144  0.00  0.00    +0.000 N 
ATOM     20  O   UNL     1       1.456   7.804  21.246  0.00  0.00    +0.000 OA
ATOM     21  O   UNL     1       2.200   8.201  19.222  0.00  0.00    +0.000 OA
ENDBRANCH   7  19
TORSDOF 2
ENDMDL
MODEL 5
REMARK VINA RESULT:      -7.5      2.570      3.352
REMARK  Name = 
REMARK  2 active torsions:
REMARK  status: ('A' for Active; 'I' for Inactive)
REMARK    1  A    between atoms: C_6  and  N_7
REMARK    2  A    between atoms: C_13  and  N_14
REMARK                            x       y       z     vdW  Elec       q    Type
REMARK                         _______ _______ _______ _____ _____    ______ ____
ROOT
ATOM      1  N   UNL     1       3.993   3.386  18.243  0.00  0.00    +0.000 N 
ATOM      2  C   UNL     1       3.544   2.076  18.183  0.00  0.00    +0.000 A 
ATOM      3  C   UNL     1       2.360   1.962  18.868  0.00  0.00    +0.000 A 
ATOM      4  C   UNL     1       2.025   3.244  19.358  0.00  0.00    +0.000 A 
ATOM      5  C   UNL     1       0.927   3.720  20.102  0.00  0.00    +0.000 A 
ATOM      6  C   UNL     1       0.842   5.075  20.429  0.00  0.00    +0.000 A 
ATOM      7  C   UNL     1       1.853   5.948  20.027  0.00  0.00    +0.000 A 
ATOM      8  C   UNL     1       2.970   5.497  19.301  0.00  0.00    +0.000 A 
ATOM      9  C   UNL     1       3.043   4.127  18.967  0.00  0.00    +0.000 A 
ENDROOT
BRANCH   1  15
ATOM     10  N   UNL     1       8.391   5.004  18.806  0.00  0.00    +0.000 N 
ATOM     11  C   UNL     1       7.358   4.670  17.960  0.00  0.00    +0.000 A 
ATOM     12  N   UNL     1       7.590   4.751  16.650  0.00  0.00    +0.000 NA
ATOM     13  C   UNL     1       6.593   4.359  15.842  0.00  0.00    +0.000 A 
ATOM     14  C   UNL     1       5.383   3.895  16.298  0.00  0.00    +0.000 A 
ATOM     15  C   UNL     1       5.221   3.874  17.671  0.00  0.00    +0.000 A 
ATOM     16  N   UNL     1       6.203   4.282  18.506  0.00  0.00    +0.000 NA
ATOM     17  H   UNL     1       9.063   5.594  18.338  0.00  0.00    +0.000 HD
ATOM     18  H   UNL     1       8.054   5.289  19.713  0.00  0.00    +0.000 HD
ENDBRANCH   1  15
BRANCH   7  19
ATOM     19  N   UNL     1       1.738   7.378  20.357  0.00  0.00    +0.000 N 
ATOM     20  O   UNL     1       2.091   8.201  19.499  0.00  0.00    +0.000 OA
ATOM     21  O   UNL     1       1.300   7.681  21.477  0.00  0.00    +0.000 OA
ENDBRANCH   7  19
TORSDOF 2
ENDMDL
MODEL 6
REMARK VINA RESULT:      -7.4      2.672      4.973
REMARK  Name = 
REMARK  2 active torsions:
REMARK  status: ('A' for Active; 'I' for Inactive)
REMARK    1  A    between atoms: C_6  and  N_7
REMARK    2  A    between atoms: C_13  and  N_14
REMARK                            x       y       z     vdW  Elec       q    Type
REMARK                         _______ _______ _______ _____ _____    ______ ____
ROOT
ATOM      1  N   UNL     1       3.156   6.877  17.940  0.00  0.00    +0.000 N 
ATOM      2  C   UNL     1       4.248   7.164  17.135  0.00  0.00    +0.000 A 
ATOM      3  C   UNL     1       4.822   5.994  16.704  0.00  0.00    +0.000 A 
ATOM      4  C   UNL     1       4.058   4.926  17.225  0.00  0.00    +0.000 A 
ATOM      5  C   UNL     1       4.169   3.527  17.096  0.00  0.00    +0.000 A 
ATOM      6  C   UNL     1       3.234   2.694  17.714  0.00  0.00    +0.000 A 
ATOM      7  C   UNL     1       2.200   3.254  18.467  0.00  0.00    +0.000 A 
ATOM      8  C   UNL     1       2.078   4.645  18.629  0.00  0.00    +0.000 A 
ATOM      9  C   UNL     1       3.023   5.480  17.993  0.00  0.00    +0.000 A 
ENDROOT
BRANCH   1  15
ATOM     10  N   UNL     1       1.309   8.629  21.916  0.00  0.00    +0.000 N 
ATOM     11  C   UNL     1       1.430   8.691  20.546  0.00  0.00    +0.000 A 
ATOM     12  N   UNL     1       0.827   9.704  19.924  0.00  0.00    +0.000 NA
ATOM     13  C   UNL     1       1.011   9.783  18.597  0.00  0.00    +0.000 A 
ATOM     14  C   UNL     1       1.768   8.889  17.880  0.00  0.00    +0.000 A 
ATOM     15  C   UNL     1       2.331   7.853  18.603  0.00  0.00    +0.000 A 
ATOM     16  N   UNL     1       2.144   7.740  19.938  0.00  0.00    +0.000 NA
ATOM     17  H   UNL     1       0.503   9.148  22.230  0.00  0.00    +0.000 HD
ATOM     18  H   UNL     1       1.437   7.690  22.261  0.00  0.00    +0.000 HD
ENDBRANCH   1  15
BRANCH   7  19
ATOM     19  N   UNL     1       1.207   2.365  19.092  0.00  0.00    +0.000 N 
ATOM     20  O   UNL     1       0.244   1.998  18.403  0.00  0.00    +0.000 OA
ATOM     21  O   UNL     1       1.386   2.036  20.275  0.00  0.00    +0.000 OA
ENDBRANCH   7  19
TORSDOF 2
ENDMDL
MODEL 7
REMARK VINA RESULT:      -7.4      2.418      3.508
REMARK  Name = 
REMARK  2 active torsions:
REMARK  status: ('A' for Active; 'I' for Inactive)
REMARK    1  A    between atoms: C_6  and  N_7
REMARK    2  A    between atoms: C_13  and  N_14
REMARK                            x       y       z     vdW  Elec       q    Type
REMARK                         _______ _______ _______ _____ _____    ______ ____
ROOT
ATOM      1  N   UNL     1       6.431   4.927  16.820  0.00  0.00    +0.000 N 
ATOM      2  C   UNL     1       7.394   5.360  17.718  0.00  0.00    +0.000 A 
ATOM      3  C   UNL     1       6.847   5.453  18.973  0.00  0.00    +0.000 A 
ATOM      4  C   UNL     1       5.499   5.040  18.882  0.00  0.00    +0.000 A 
ATOM      5  C   UNL     1       4.476   4.914  19.845  0.00  0.00    +0.000 A 
ATOM      6  C   UNL     1       3.218   4.443  19.466  0.00  0.00    +0.000 A 
ATOM      7  C   UNL     1       2.976   4.110  18.132  0.00  0.00    +0.000 A 
ATOM      8  C   UNL     1       3.972   4.244  17.148  0.00  0.00    +0.000 A 
ATOM      9  C   UNL     1       5.244   4.713  17.542  0.00  0.00    +0.000 A 
ENDROOT
BRANCH   1  15
ATOM     10  N   UNL     1       8.788   5.987  12.871  0.00  0.00    +0.000 N 
ATOM     11  C   UNL     1       7.780   5.282  13.487  0.00  0.00    +0.000 A 
ATOM     12  N   UNL     1       7.093   4.417  12.740  0.00  0.00    +0.000 NA
ATOM     13  C   UNL     1       6.158   3.693  13.374  0.00  0.00    +0.000 A 
ATOM     14  C   UNL     1       5.889   3.807  14.716  0.00  0.00    +0.000 A 
ATOM     15  C   UNL     1       6.630   4.749  15.406  0.00  0.00    +0.000 A 
ATOM     16  N   UNL     1       7.563   5.505  14.786  0.00  0.00    +0.000 NA
ATOM     17  H   UNL     1       8.649   6.017  11.872  0.00  0.00    +0.000 HD
ATOM     18  H   UNL     1       8.989   6.851  13.352  0.00  0.00    +0.000 HD
ENDBRANCH   1  15
BRANCH   7  19
ATOM     19  N   UNL     1       1.652   3.592  17.752  0.00  0.00    +0.000 N 
ATOM     20  O   UNL     1       1.350   2.447  18.123  0.00  0.00    +0.000 OA
ATOM     21  O   UNL     1       0.913   4.324  17.077  0.00  0.00    +0.000 OA
ENDBRANCH   7  19
TORSDOF 2
ENDMDL
MODEL 8
REMARK VINA RESULT:      -7.4      2.550      5.332
REMARK  Name = 
REMARK  2 active torsions:
REMARK  status: ('A' for Active; 'I' for Inactive)
REMARK    1  A    between atoms: C_6  and  N_7
REMARK    2  A    between atoms: C_13  and  N_14
REMARK                            x       y       z     vdW  Elec       q    Type
REMARK                         _______ _______ _______ _____ _____    ______ ____
ROOT
ATOM      1  N   UNL     1       2.760   5.681  18.464  0.00  0.00    +0.000 N 
ATOM      2  C   UNL     1       2.070   6.869  18.278  0.00  0.00    +0.000 A 
ATOM      3  C   UNL     1       2.921   7.824  17.781  0.00  0.00    +0.000 A 
ATOM      4  C   UNL     1       4.188   7.221  17.616  0.00  0.00    +0.000 A 
ATOM      5  C   UNL     1       5.418   7.711  17.130  0.00  0.00    +0.000 A 
ATOM      6  C   UNL     1       6.524   6.863  17.052  0.00  0.00    +0.000 A 
ATOM      7  C   UNL     1       6.408   5.535  17.467  0.00  0.00    +0.000 A 
ATOM      8  C   UNL     1       5.199   5.026  17.974  0.00  0.00    +0.000 A 
ATOM      9  C   UNL     1       4.084   5.888  18.041  0.00  0.00    +0.000 A 
ENDROOT
BRANCH   1  15
ATOM     10  N   UNL     1       1.989   2.846  22.159  0.00  0.00    +0.000 N 
ATOM     11  C   UNL     1       1.842   3.093  20.813  0.00  0.00    +0.000 A 
ATOM     12  N   UNL     1       1.123   2.221  20.106  0.00  0.00    +0.000 NA
ATOM     13  C   UNL     1       0.938   2.513  18.810  0.00  0.00    +0.000 A 
ATOM     14  C   UNL     1       1.445   3.637  18.204  0.00  0.00    +0.000 A 
ATOM     15  C   UNL     1       2.202   4.469  19.006  0.00  0.00    +0.000 A 
ATOM     16  N   UNL     1       2.421   4.187  20.311  0.00  0.00    +0.000 NA
ATOM     17  H   UNL     1       1.833   1.871  22.366  0.00  0.00    +0.000 HD
ATOM     18  H   UNL     1       2.814   3.289  22.532  0.00  0.00    +0.000 HD
ENDBRANCH   1  15
BRANCH   7  19
ATOM     19  N   UNL     1       7.575   4.646  17.356  0.00  0.00    +0.000 N 
ATOM     20  O   UNL     1       7.917   4.278  16.222  0.00  0.00    +0.000 OA
ATOM     21  O   UNL     1       8.150   4.308  18.402  0.00  0.00    +0.000 OA
ENDBRANCH   7  19
TORSDOF 2
ENDMDL
MODEL 9
REMARK VINA RESULT:      -7.3      2.570      5.404
REMARK  Name = 
REMARK  2 active torsions:
REMARK  status: ('A' for Active; 'I' for Inactive)
REMARK    1  A    between atoms: C_6  and  N_7
REMARK    2  A    between atoms: C_13  and  N_14
REMARK                            x       y       z     vdW  Elec       q    Type
REMARK                         _______ _______ _______ _____ _____    ______ ____
ROOT
ATOM      1  N   UNL     1       2.893   5.784  18.697  0.00  0.00    +0.000 N 
ATOM      2  C   UNL     1       2.170   6.886  18.264  0.00  0.00    +0.000 A 
ATOM      3  C   UNL     1       3.008   7.764  17.624  0.00  0.00    +0.000 A 
ATOM      4  C   UNL     1       4.301   7.195  17.621  0.00  0.00    +0.000 A 
ATOM      5  C   UNL     1       5.532   7.636  17.094  0.00  0.00    +0.000 A 
ATOM      6  C   UNL     1       6.670   6.835  17.218  0.00  0.00    +0.000 A 
ATOM      7  C   UNL     1       6.583   5.607  17.875  0.00  0.00    +0.000 A 
ATOM      8  C   UNL     1       5.372   5.152  18.427  0.00  0.00    +0.000 A 
ATOM      9  C   UNL     1       4.225   5.964  18.289  0.00  0.00    +0.000 A 
ENDROOT
BRANCH   1  15
ATOM     10  N   UNL     1       1.016   1.454  18.773  0.00  0.00    +0.000 N 
ATOM     11  C   UNL     1       1.433   2.569  19.463  0.00  0.00    +0.000 A 
ATOM     12  N   UNL     1       1.379   2.520  20.794  0.00  0.00    +0.000 NA
ATOM     13  C   UNL     1       1.850   3.591  21.450  0.00  0.00    +0.000 A 
ATOM     14  C   UNL     1       2.366   4.700  20.824  0.00  0.00    +0.000 A 
ATOM     15  C   UNL     1       2.355   4.675  19.441  0.00  0.00    +0.000 A 
ATOM     16  N   UNL     1       1.867   3.616  18.757  0.00  0.00    +0.000 NA
ATOM     17  H   UNL     1       0.404   0.887  19.340  0.00  0.00    +0.000 HD
ATOM     18  H   UNL     1       0.723   1.682  17.835  0.00  0.00    +0.000 HD
ENDBRANCH   1  15
BRANCH   7  19
ATOM     19  N   UNL     1       7.784   4.762  17.976  0.00  0.00    +0.000 N 
ATOM     20  O   UNL     1       8.384   4.735  19.061  0.00  0.00    +0.000 OA
ATOM     21  O   UNL     1       8.134   4.129  16.969  0.00  0.00    +0.000 OA
ENDBRANCH   7  19
TORSDOF 2
ENDMDL
