MODEL 1
REMARK VINA RESULT:      -8.0      0.000      0.000
REMARK  Name = 
REMARK  9 active torsions:
REMARK  status: ('A' for Active; 'I' for Inactive)
REMARK    1  A    between atoms: C_1  and  C_2
REMARK    2  A    between atoms: C_2  and  C_4
REMARK    3  A    between atoms: C_8  and  C_10
REMARK    4  A    between atoms: C_10  and  C_11
REMARK    5  A    between atoms: C_11  and  C_12
REMARK    6  A    between atoms: C_12  and  O_13
REMARK    7  A    between atoms: O_13  and  C_14
REMARK    8  A    between atoms: C_19  and  C_20
REMARK    9  A    between atoms: C_22  and  C_23
REMARK                            x       y       z     vdW  Elec       q    Type
REMARK                         _______ _______ _______ _____ _____    ______ ____
ROOT
ATOM      1  C   UNL     1       6.088   4.485  16.600  0.00  0.00    +0.000 A 
ATOM      2  S   UNL     1       4.454   4.009  16.721  0.00  0.00    +0.000 S 
ATOM      3  C   UNL     1       4.594   3.871  18.405  0.00  0.00    +0.000 A 
ATOM      4  N   UNL     1       3.539   3.468  19.190  0.00  0.00    +0.000 N 
ATOM      5  C   UNL     1       2.362   2.914  18.726  0.00  0.00    +0.000 C 
ATOM      6  O   UNL     1       2.062   2.693  17.557  0.00  0.00    +0.000 OA
ATOM      7  N   UNL     1       5.760   4.202  18.906  0.00  0.00    +0.000 NA
ATOM      8  C   UNL     1       6.643   4.529  17.873  0.00  0.00    +0.000 A 
ATOM      9  C   UNL     1       8.050   4.876  18.222  0.00  0.00    +0.000 C 
ATOM     10  H   UNL     1       3.738   3.510  20.179  0.00  0.00    +0.000 HD
ENDROOT
BRANCH   1  12
ATOM     11  C   UNL     1       6.283   3.932  14.120  0.00  0.00    +0.000 C 
ATOM     12  C   UNL     1       6.704   4.766  15.314  0.00  0.00    +0.000 C 
ATOM     13  O   UNL     1       7.549   5.650  15.162  0.00  0.00    +0.000 OA
ENDBRANCH   1  12
BRANCH   5  14
ATOM     14  C   UNL     1       1.400   2.505  19.825  0.00  0.00    +0.000 C 
BRANCH  14  15
ATOM     15  C   UNL     1       1.390   3.547  20.950  0.00  0.00    +0.000 C 
BRANCH  15  16
ATOM     16  C   UNL     1       1.022   4.927  20.408  0.00  0.00    +0.000 C 
BRANCH  16  17
ATOM     17  O   UNL     1       2.061   5.880  20.663  0.00  0.00    +0.000 OA
BRANCH  17  18
ATOM     18  C   UNL     1       2.065   6.945  19.788  0.00  0.00    +0.000 A 
ATOM     19  C   UNL     1       2.566   6.854  18.479  0.00  0.00    +0.000 A 
ATOM     20  C   UNL     1       2.547   7.952  17.623  0.00  0.00    +0.000 A 
ATOM     21  C   UNL     1       2.004   9.156  18.050  0.00  0.00    +0.000 A 
ATOM     22  C   UNL     1       1.474   9.253  19.337  0.00  0.00    +0.000 A 
ATOM     23  C   UNL     1       1.502   8.159  20.221  0.00  0.00    +0.000 A 
ATOM     24  C   UNL     1       0.908   8.322  21.591  0.00  0.00    +0.000 C 
ENDBRANCH  17  18
ENDBRANCH  16  17
ENDBRANCH  15  16
ENDBRANCH  14  15
ENDBRANCH   5  14
TORSDOF 6
ENDMDL
MODEL 2
REMARK VINA RESULT:      -7.4      3.684      5.615
REMARK  Name = 
REMARK  9 active torsions:
REMARK  status: ('A' for Active; 'I' for Inactive)
REMARK    1  A    between atoms: C_1  and  C_2
REMARK    2  A    between atoms: C_2  and  C_4
REMARK    3  A    between atoms: C_8  and  C_10
REMARK    4  A    between atoms: C_10  and  C_11
REMARK    5  A    between atoms: C_11  and  C_12
REMARK    6  A    between atoms: C_12  and  O_13
REMARK    7  A    between atoms: O_13  and  C_14
REMARK    8  A    between atoms: C_19  and  C_20
REMARK    9  A    between atoms: C_22  and  C_23
REMARK                            x       y       z     vdW  Elec       q    Type
REMARK                         _______ _______ _______ _____ _____    ______ ____
ROOT
ATOM      1  C   UNL     1       3.244   3.744  19.678  0.00  0.00    +0.000 A 
ATOM      2  S   UNL     1       3.550   5.152  18.764  0.00  0.00    +0.000 S 
ATOM      3  C   UNL     1       2.317   5.980  19.581  0.00  0.00    +0.000 A 
ATOM      4  N   UNL     1       1.997   7.284  19.284  0.00  0.00    +0.000 N 
ATOM      5  C   UNL     1       2.438   7.983  18.178  0.00  0.00    +0.000 C 
ATOM      6  O   UNL     1       3.178   7.570  17.291  0.00  0.00    +0.000 OA
ATOM      7  N   UNL     1       1.714   5.305  20.531  0.00  0.00    +0.000 NA
ATOM      8  C   UNL     1       2.217   4.002  20.578  0.00  0.00    +0.000 A 
ATOM      9  C   UNL     1       1.621   3.042  21.550  0.00  0.00    +0.000 C 
ATOM     10  H   UNL     1       1.302   7.676  19.903  0.00  0.00    +0.000 HD
ENDROOT
BRANCH   1  12
ATOM     11  C   UNL     1       3.562   1.607  18.326  0.00  0.00    +0.000 C 
ATOM     12  C   UNL     1       3.994   2.519  19.458  0.00  0.00    +0.000 C 
ATOM     13  O   UNL     1       4.959   2.198  20.153  0.00  0.00    +0.000 OA
ENDBRANCH   1  12
BRANCH   5  14
ATOM     14  C   UNL     1       1.872   9.387  18.073  0.00  0.00    +0.000 C 
BRANCH  14  15
ATOM     15  C   UNL     1       1.124   9.766  19.357  0.00  0.00    +0.000 C 
BRANCH  15  16
ATOM     16  C   UNL     1       0.094  10.859  19.083  0.00  0.00    +0.000 C 
BRANCH  16  17
ATOM     17  O   UNL     1      -1.241  10.374  19.271  0.00  0.00    +0.000 OA
BRANCH  17  18
ATOM     18  C   UNL     1      -2.047  10.524  18.161  0.00  0.00    +0.000 A 
ATOM     19  C   UNL     1      -1.864   9.787  16.981  0.00  0.00    +0.000 A 
ATOM     20  C   UNL     1      -2.703   9.964  15.884  0.00  0.00    +0.000 A 
ATOM     21  C   UNL     1      -3.757  10.865  15.955  0.00  0.00    +0.000 A 
ATOM     22  C   UNL     1      -3.970  11.583  17.132  0.00  0.00    +0.000 A 
ATOM     23  C   UNL     1      -3.120  11.429  18.243  0.00  0.00    +0.000 A 
ATOM     24  C   UNL     1      -3.406  12.223  19.486  0.00  0.00    +0.000 C 
ENDBRANCH  17  18
ENDBRANCH  16  17
ENDBRANCH  15  16
ENDBRANCH  14  15
ENDBRANCH   5  14
TORSDOF 6
ENDMDL
MODEL 3
REMARK VINA RESULT:      -7.3      1.483      2.339
REMARK  Name = 
REMARK  9 active torsions:
REMARK  status: ('A' for Active; 'I' for Inactive)
REMARK    1  A    between atoms: C_1  and  C_2
REMARK    2  A    between atoms: C_2  and  C_4
REMARK    3  A    between atoms: C_8  and  C_10
REMARK    4  A    between atoms: C_10  and  C_11
REMARK    5  A    between atoms: C_11  and  C_12
REMARK    6  A    between atoms: C_12  and  O_13
REMARK    7  A    between atoms: O_13  and  C_14
REMARK    8  A    between atoms: C_19  and  C_20
REMARK    9  A    between atoms: C_22  and  C_23
REMARK                            x       y       z     vdW  Elec       q    Type
REMARK                         _______ _______ _______ _____ _____    ______ ____
ROOT
ATOM      1  C   UNL     1       6.230   4.962  16.676  0.00  0.00    +0.000 A 
ATOM      2  S   UNL     1       5.224   3.727  17.287  0.00  0.00    +0.000 S 
ATOM      3  C   UNL     1       5.403   4.328  18.862  0.00  0.00    +0.000 A 
ATOM      4  N   UNL     1       4.805   3.722  19.943  0.00  0.00    +0.000 N 
ATOM      5  C   UNL     1       4.214   2.474  19.934  0.00  0.00    +0.000 C 
ATOM      6  O   UNL     1       4.122   1.709  18.980  0.00  0.00    +0.000 OA
ATOM      7  N   UNL     1       6.121   5.420  18.974  0.00  0.00    +0.000 NA
ATOM      8  C   UNL     1       6.631   5.781  17.724  0.00  0.00    +0.000 A 
ATOM      9  C   UNL     1       7.532   6.966  17.637  0.00  0.00    +0.000 C 
ATOM     10  H   UNL     1       4.927   4.233  20.805  0.00  0.00    +0.000 HD
ENDROOT
BRANCH   1  12
ATOM     11  C   UNL     1       5.557   4.503  14.261  0.00  0.00    +0.000 C 
ATOM     12  C   UNL     1       6.559   5.043  15.263  0.00  0.00    +0.000 C 
ATOM     13  O   UNL     1       7.614   5.530  14.854  0.00  0.00    +0.000 OA
ENDBRANCH   1  12
BRANCH   5  14
ATOM     14  C   UNL     1       3.691   2.033  21.288  0.00  0.00    +0.000 C 
BRANCH  14  15
ATOM     15  C   UNL     1       2.160   2.117  21.329  0.00  0.00    +0.000 C 
BRANCH  15  16
ATOM     16  C   UNL     1       1.702   3.549  21.601  0.00  0.00    +0.000 C 
BRANCH  16  17
ATOM     17  O   UNL     1       0.883   4.043  20.535  0.00  0.00    +0.000 OA
BRANCH  17  18
ATOM     18  C   UNL     1       1.425   5.125  19.874  0.00  0.00    +0.000 A 
ATOM     19  C   UNL     1       1.707   6.344  20.512  0.00  0.00    +0.000 A 
ATOM     20  C   UNL     1       2.260   7.413  19.810  0.00  0.00    +0.000 A 
ATOM     21  C   UNL     1       2.565   7.274  18.463  0.00  0.00    +0.000 A 
ATOM     22  C   UNL     1       2.319   6.059  17.823  0.00  0.00    +0.000 A 
ATOM     23  C   UNL     1       1.744   4.977  18.513  0.00  0.00    +0.000 A 
ATOM     24  C   UNL     1       1.511   3.690  17.772  0.00  0.00    +0.000 C 
ENDBRANCH  17  18
ENDBRANCH  16  17
ENDBRANCH  15  16
ENDBRANCH  14  15
ENDBRANCH   5  14
TORSDOF 6
ENDMDL
MODEL 4
REMARK VINA RESULT:      -7.2      4.857      7.442
REMARK  Name = 
REMARK  9 active torsions:
REMARK  status: ('A' for Active; 'I' for Inactive)
REMARK    1  A    between atoms: C_1  and  C_2
REMARK    2  A    between atoms: C_2  and  C_4
REMARK    3  A    between atoms: C_8  and  C_10
REMARK    4  A    between atoms: C_10  and  C_11
REMARK    5  A    between atoms: C_11  and  C_12
REMARK    6  A    between atoms: C_12  and  O_13
REMARK    7  A    between atoms: O_13  and  C_14
REMARK    8  A    between atoms: C_19  and  C_20
REMARK    9  A    between atoms: C_22  and  C_23
REMARK                            x       y       z     vdW  Elec       q    Type
REMARK                         _______ _______ _______ _____ _____    ______ ____
ROOT
ATOM      1  C   UNL     1       3.091   3.757  18.824  0.00  0.00    +0.000 A 
ATOM      2  S   UNL     1       3.813   5.006  17.912  0.00  0.00    +0.000 S 
ATOM      3  C   UNL     1       5.316   4.697  18.634  0.00  0.00    +0.000 A 
ATOM      4  N   UNL     1       6.434   5.436  18.327  0.00  0.00    +0.000 N 
ATOM      5  C   UNL     1       6.440   6.620  17.617  0.00  0.00    +0.000 C 
ATOM      6  O   UNL     1       5.469   7.202  17.146  0.00  0.00    +0.000 OA
ATOM      7  N   UNL     1       5.343   3.693  19.478  0.00  0.00    +0.000 NA
ATOM      8  C   UNL     1       4.060   3.160  19.621  0.00  0.00    +0.000 A 
ATOM      9  C   UNL     1       3.855   2.044  20.588  0.00  0.00    +0.000 C 
ATOM     10  H   UNL     1       7.275   5.091  18.768  0.00  0.00    +0.000 HD
ENDROOT
BRANCH   1  12
ATOM     11  C   UNL     1       0.822   3.546  19.964  0.00  0.00    +0.000 C 
ATOM     12  C   UNL     1       1.674   3.459  18.713  0.00  0.00    +0.000 C 
ATOM     13  O   UNL     1       1.144   3.139  17.646  0.00  0.00    +0.000 OA
ENDBRANCH   1  12
BRANCH   5  14
ATOM     14  C   UNL     1       7.815   7.249  17.483  0.00  0.00    +0.000 C 
BRANCH  14  15
ATOM     15  C   UNL     1       7.709   8.779  17.463  0.00  0.00    +0.000 C 
BRANCH  15  16
ATOM     16  C   UNL     1       8.603   9.399  18.535  0.00  0.00    +0.000 C 
BRANCH  16  17
ATOM     17  O   UNL     1       8.624  10.827  18.431  0.00  0.00    +0.000 OA
BRANCH  17  18
ATOM     18  C   UNL     1       9.856  11.386  18.705  0.00  0.00    +0.000 A 
ATOM     19  C   UNL     1      10.767  11.748  17.700  0.00  0.00    +0.000 A 
ATOM     20  C   UNL     1      11.999  12.315  18.018  0.00  0.00    +0.000 A 
ATOM     21  C   UNL     1      12.333  12.552  19.344  0.00  0.00    +0.000 A 
ATOM     22  C   UNL     1      11.425  12.225  20.351  0.00  0.00    +0.000 A 
ATOM     23  C   UNL     1      10.184  11.636  20.049  0.00  0.00    +0.000 A 
ATOM     24  C   UNL     1       9.244  11.315  21.176  0.00  0.00    +0.000 C 
ENDBRANCH  17  18
ENDBRANCH  16  17
ENDBRANCH  15  16
ENDBRANCH  14  15
ENDBRANCH   5  14
TORSDOF 6
ENDMDL
MODEL 5
REMARK VINA RESULT:      -7.1      3.198      5.442
REMARK  Name = 
REMARK  9 active torsions:
REMARK  status: ('A' for Active; 'I' for Inactive)
REMARK    1  A    between atoms: C_1  and  C_2
REMARK    2  A    between atoms: C_2  and  C_4
REMARK    3  A    between atoms: C_8  and  C_10
REMARK    4  A    between atoms: C_10  and  C_11
REMARK    5  A    between atoms: C_11  and  C_12
REMARK    6  A    between atoms: C_12  and  O_13
REMARK    7  A    between atoms: O_13  and  C_14
REMARK    8  A    between atoms: C_19  and  C_20
REMARK    9  A    between atoms: C_22  and  C_23
REMARK                            x       y       z     vdW  Elec       q    Type
REMARK                         _______ _______ _______ _____ _____    ______ ____
ROOT
ATOM      1  C   UNL     1       3.282   3.741  19.813  0.00  0.00    +0.000 A 
ATOM      2  S   UNL     1       3.614   5.141  18.896  0.00  0.00    +0.000 S 
ATOM      3  C   UNL     1       2.435   6.010  19.749  0.00  0.00    +0.000 A 
ATOM      4  N   UNL     1       2.156   7.326  19.465  0.00  0.00    +0.000 N 
ATOM      5  C   UNL     1       2.592   8.014  18.350  0.00  0.00    +0.000 C 
ATOM      6  O   UNL     1       3.291   7.577  17.442  0.00  0.00    +0.000 OA
ATOM      7  N   UNL     1       1.834   5.353  20.713  0.00  0.00    +0.000 NA
ATOM      8  C   UNL     1       2.290   4.033  20.742  0.00  0.00    +0.000 A 
ATOM      9  C   UNL     1       1.686   3.091  21.727  0.00  0.00    +0.000 C 
ATOM     10  H   UNL     1       1.493   7.741  20.105  0.00  0.00    +0.000 HD
ENDROOT
BRANCH   1  12
ATOM     11  C   UNL     1       3.513   1.622  18.417  0.00  0.00    +0.000 C 
ATOM     12  C   UNL     1       3.979   2.490  19.569  0.00  0.00    +0.000 C 
ATOM     13  O   UNL     1       4.928   2.114  20.259  0.00  0.00    +0.000 OA
ENDBRANCH   1  12
BRANCH   5  14
ATOM     14  C   UNL     1       2.076   9.438  18.266  0.00  0.00    +0.000 C 
BRANCH  14  15
ATOM     15  C   UNL     1       0.660   9.465  17.678  0.00  0.00    +0.000 C 
BRANCH  15  16
ATOM     16  C   UNL     1      -0.334  10.047  18.681  0.00  0.00    +0.000 C 
BRANCH  16  17
ATOM     17  O   UNL     1       0.222  10.083  20.001  0.00  0.00    +0.000 OA
BRANCH  17  18
ATOM     18  C   UNL     1      -0.538  10.795  20.905  0.00  0.00    +0.000 A 
ATOM     19  C   UNL     1      -1.347  11.880  20.531  0.00  0.00    +0.000 A 
ATOM     20  C   UNL     1      -2.105  12.571  21.473  0.00  0.00    +0.000 A 
ATOM     21  C   UNL     1      -2.088  12.175  22.803  0.00  0.00    +0.000 A 
ATOM     22  C   UNL     1      -1.313  11.079  23.185  0.00  0.00    +0.000 A 
ATOM     23  C   UNL     1      -0.528  10.382  22.248  0.00  0.00    +0.000 A 
ATOM     24  C   UNL     1       0.279   9.204  22.718  0.00  0.00    +0.000 C 
ENDBRANCH  17  18
ENDBRANCH  16  17
ENDBRANCH  15  16
ENDBRANCH  14  15
ENDBRANCH   5  14
TORSDOF 6
ENDMDL
MODEL 6
REMARK VINA RESULT:      -7.1      0.943      1.757
REMARK  Name = 
REMARK  9 active torsions:
REMARK  status: ('A' for Active; 'I' for Inactive)
REMARK    1  A    between atoms: C_1  and  C_2
REMARK    2  A    between atoms: C_2  and  C_4
REMARK    3  A    between atoms: C_8  and  C_10
REMARK    4  A    between atoms: C_10  and  C_11
REMARK    5  A    between atoms: C_11  and  C_12
REMARK    6  A    between atoms: C_12  and  O_13
REMARK    7  A    between atoms: O_13  and  C_14
REMARK    8  A    between atoms: C_19  and  C_20
REMARK    9  A    between atoms: C_22  and  C_23
REMARK                            x       y       z     vdW  Elec       q    Type
REMARK                         _______ _______ _______ _____ _____    ______ ____
ROOT
ATOM      1  C   UNL     1       6.138   4.993  16.571  0.00  0.00    +0.000 A 
ATOM      2  S   UNL     1       4.800   4.019  16.987  0.00  0.00    +0.000 S 
ATOM      3  C   UNL     1       4.851   4.589  18.582  0.00  0.00    +0.000 A 
ATOM      4  N   UNL     1       3.968   4.146  19.540  0.00  0.00    +0.000 N 
ATOM      5  C   UNL     1       3.127   3.059  19.410  0.00  0.00    +0.000 C 
ATOM      6  O   UNL     1       3.024   2.319  18.437  0.00  0.00    +0.000 OA
ATOM      7  N   UNL     1       5.764   5.498  18.831  0.00  0.00    +0.000 NA
ATOM      8  C   UNL     1       6.535   5.719  17.687  0.00  0.00    +0.000 A 
ATOM      9  C   UNL     1       7.677   6.674  17.771  0.00  0.00    +0.000 C 
ATOM     10  H   UNL     1       4.060   4.629  20.422  0.00  0.00    +0.000 HD
ENDROOT
BRANCH   1  12
ATOM     11  C   UNL     1       6.013   4.136  14.174  0.00  0.00    +0.000 C 
ATOM     12  C   UNL     1       6.700   4.978  15.231  0.00  0.00    +0.000 C 
ATOM     13  O   UNL     1       7.706   5.621  14.926  0.00  0.00    +0.000 OA
ENDBRANCH   1  12
BRANCH   5  14
ATOM     14  C   UNL     1       2.308   2.764  20.653  0.00  0.00    +0.000 C 
BRANCH  14  15
ATOM     15  C   UNL     1       1.888   4.067  21.345  0.00  0.00    +0.000 C 
BRANCH  15  16
ATOM     16  C   UNL     1       1.514   5.132  20.315  0.00  0.00    +0.000 C 
BRANCH  16  17
ATOM     17  O   UNL     1       2.395   6.259  20.391  0.00  0.00    +0.000 OA
BRANCH  17  18
ATOM     18  C   UNL     1       1.757   7.473  20.249  0.00  0.00    +0.000 A 
ATOM     19  C   UNL     1       0.978   8.048  21.266  0.00  0.00    +0.000 A 
ATOM     20  C   UNL     1       0.353   9.280  21.085  0.00  0.00    +0.000 A 
ATOM     21  C   UNL     1       0.515   9.971  19.892  0.00  0.00    +0.000 A 
ATOM     22  C   UNL     1       1.311   9.427  18.884  0.00  0.00    +0.000 A 
ATOM     23  C   UNL     1       1.934   8.176  19.044  0.00  0.00    +0.000 A 
ATOM     24  C   UNL     1       2.787   7.646  17.926  0.00  0.00    +0.000 C 
ENDBRANCH  17  18
ENDBRANCH  16  17
ENDBRANCH  15  16
ENDBRANCH  14  15
ENDBRANCH   5  14
TORSDOF 6
ENDMDL
MODEL 7
REMARK VINA RESULT:      -6.9      5.498      7.831
REMARK  Name = 
REMARK  9 active torsions:
REMARK  status: ('A' for Active; 'I' for Inactive)
REMARK    1  A    between atoms: C_1  and  C_2
REMARK    2  A    between atoms: C_2  and  C_4
REMARK    3  A    between atoms: C_8  and  C_10
REMARK    4  A    between atoms: C_10  and  C_11
REMARK    5  A    between atoms: C_11  and  C_12
REMARK    6  A    between atoms: C_12  and  O_13
REMARK    7  A    between atoms: O_13  and  C_14
REMARK    8  A    between atoms: C_19  and  C_20
REMARK    9  A    between atoms: C_22  and  C_23
REMARK                            x       y       z     vdW  Elec       q    Type
REMARK                         _______ _______ _______ _____ _____    ______ ____
ROOT
ATOM      1  C   UNL     1       3.823   3.909  18.899  0.00  0.00    +0.000 A 
ATOM      2  S   UNL     1       5.366   4.618  19.065  0.00  0.00    +0.000 S 
ATOM      3  C   UNL     1       4.916   5.895  18.044  0.00  0.00    +0.000 A 
ATOM      4  N   UNL     1       5.790   6.904  17.715  0.00  0.00    +0.000 N 
ATOM      5  C   UNL     1       7.150   6.893  17.953  0.00  0.00    +0.000 C 
ATOM      6  O   UNL     1       7.797   5.999  18.489  0.00  0.00    +0.000 OA
ATOM      7  N   UNL     1       3.675   5.869  17.618  0.00  0.00    +0.000 NA
ATOM      8  C   UNL     1       3.041   4.712  18.078  0.00  0.00    +0.000 A 
ATOM      9  C   UNL     1       1.635   4.453  17.654  0.00  0.00    +0.000 C 
ATOM     10  H   UNL     1       5.365   7.639  17.169  0.00  0.00    +0.000 HD
ENDROOT
BRANCH   1  12
ATOM     11  C   UNL     1       2.491   2.679  20.690  0.00  0.00    +0.000 C 
ATOM     12  C   UNL     1       3.491   2.653  19.551  0.00  0.00    +0.000 C 
ATOM     13  O   UNL     1       3.989   1.578  19.212  0.00  0.00    +0.000 OA
ENDBRANCH   1  12
BRANCH   5  14
ATOM     14  C   UNL     1       7.876   8.115  17.423  0.00  0.00    +0.000 C 
BRANCH  14  15
ATOM     15  C   UNL     1       8.712   8.769  18.531  0.00  0.00    +0.000 C 
BRANCH  15  16
ATOM     16  C   UNL     1       8.624  10.292  18.450  0.00  0.00    +0.000 C 
BRANCH  16  17
ATOM     17  O   UNL     1       9.842  10.857  17.952  0.00  0.00    +0.000 OA
BRANCH  17  18
ATOM     18  C   UNL     1       9.975  12.205  18.209  0.00  0.00    +0.000 A 
ATOM     19  C   UNL     1       9.053  13.161  17.755  0.00  0.00    +0.000 A 
ATOM     20  C   UNL     1       9.219  14.515  18.040  0.00  0.00    +0.000 A 
ATOM     21  C   UNL     1      10.298  14.934  18.806  0.00  0.00    +0.000 A 
ATOM     22  C   UNL     1      11.206  13.993  19.290  0.00  0.00    +0.000 A 
ATOM     23  C   UNL     1      11.062  12.625  18.996  0.00  0.00    +0.000 A 
ATOM     24  C   UNL     1      12.068  11.657  19.553  0.00  0.00    +0.000 C 
ENDBRANCH  17  18
ENDBRANCH  16  17
ENDBRANCH  15  16
ENDBRANCH  14  15
ENDBRANCH   5  14
TORSDOF 6
ENDMDL
MODEL 8
REMARK VINA RESULT:      -6.9      5.357      7.598
REMARK  Name = 
REMARK  9 active torsions:
REMARK  status: ('A' for Active; 'I' for Inactive)
REMARK    1  A    between atoms: C_1  and  C_2
REMARK    2  A    between atoms: C_2  and  C_4
REMARK    3  A    between atoms: C_8  and  C_10
REMARK    4  A    between atoms: C_10  and  C_11
REMARK    5  A    between atoms: C_11  and  C_12
REMARK    6  A    between atoms: C_12  and  O_13
REMARK    7  A    between atoms: O_13  and  C_14
REMARK    8  A    between atoms: C_19  and  C_20
REMARK    9  A    between atoms: C_22  and  C_23
REMARK                            x       y       z     vdW  Elec       q    Type
REMARK                         _______ _______ _______ _____ _____    ______ ____
ROOT
ATOM      1  C   UNL     1       3.964   4.161  18.001  0.00  0.00    +0.000 A 
ATOM      2  S   UNL     1       4.838   5.468  17.338  0.00  0.00    +0.000 S 
ATOM      3  C   UNL     1       6.066   5.261  18.488  0.00  0.00    +0.000 A 
ATOM      4  N   UNL     1       7.169   6.082  18.528  0.00  0.00    +0.000 N 
ATOM      5  C   UNL     1       7.307   7.270  17.839  0.00  0.00    +0.000 C 
ATOM      6  O   UNL     1       6.486   7.786  17.087  0.00  0.00    +0.000 OA
ATOM      7  N   UNL     1       5.907   4.253  19.312  0.00  0.00    +0.000 NA
ATOM      8  C   UNL     1       4.683   3.627  19.063  0.00  0.00    +0.000 A 
ATOM      9  C   UNL     1       4.273   2.489  19.935  0.00  0.00    +0.000 C 
ATOM     10  H   UNL     1       7.857   5.794  19.208  0.00  0.00    +0.000 HD
ENDROOT
BRANCH   1  12
ATOM     11  C   UNL     1       1.450   4.560  17.874  0.00  0.00    +0.000 C 
ATOM     12  C   UNL     1       2.673   3.762  17.466  0.00  0.00    +0.000 C 
ATOM     13  O   UNL     1       2.539   2.807  16.699  0.00  0.00    +0.000 OA
ENDBRANCH   1  12
BRANCH   5  14
ATOM     14  C   UNL     1       8.607   7.998  18.123  0.00  0.00    +0.000 C 
BRANCH  14  15
ATOM     15  C   UNL     1       8.365   9.507  18.249  0.00  0.00    +0.000 C 
BRANCH  15  16
ATOM     16  C   UNL     1       9.157  10.088  19.419  0.00  0.00    +0.000 C 
BRANCH  16  17
ATOM     17  O   UNL     1       9.050  11.516  19.460  0.00  0.00    +0.000 OA
BRANCH  17  18
ATOM     18  C   UNL     1      10.007  12.166  18.709  0.00  0.00    +0.000 A 
ATOM     19  C   UNL     1      11.328  11.706  18.595  0.00  0.00    +0.000 A 
ATOM     20  C   UNL     1      12.264  12.388  17.821  0.00  0.00    +0.000 A 
ATOM     21  C   UNL     1      11.890  13.530  17.127  0.00  0.00    +0.000 A 
ATOM     22  C   UNL     1      10.573  13.983  17.206  0.00  0.00    +0.000 A 
ATOM     23  C   UNL     1       9.620  13.316  17.998  0.00  0.00    +0.000 A 
ATOM     24  C   UNL     1       8.215  13.847  18.036  0.00  0.00    +0.000 C 
ENDBRANCH  17  18
ENDBRANCH  16  17
ENDBRANCH  15  16
ENDBRANCH  14  15
ENDBRANCH   5  14
TORSDOF 6
ENDMDL
MODEL 9
REMARK VINA RESULT:      -6.8      3.166      6.903
REMARK  Name = 
REMARK  9 active torsions:
REMARK  status: ('A' for Active; 'I' for Inactive)
REMARK    1  A    between atoms: C_1  and  C_2
REMARK    2  A    between atoms: C_2  and  C_4
REMARK    3  A    between atoms: C_8  and  C_10
REMARK    4  A    between atoms: C_10  and  C_11
REMARK    5  A    between atoms: C_11  and  C_12
REMARK    6  A    between atoms: C_12  and  O_13
REMARK    7  A    between atoms: O_13  and  C_14
REMARK    8  A    between atoms: C_19  and  C_20
REMARK    9  A    between atoms: C_22  and  C_23
REMARK                            x       y       z     vdW  Elec       q    Type
REMARK                         _______ _______ _______ _____ _____    ______ ____
ROOT
ATOM      1  C   UNL     1       0.693  10.458  19.863  0.00  0.00    +0.000 A 
ATOM      2  S   UNL     1       1.417   9.092  19.139  0.00  0.00    +0.000 S 
ATOM      3  C   UNL     1       1.303   8.231  20.595  0.00  0.00    +0.000 A 
ATOM      4  N   UNL     1       1.768   6.943  20.714  0.00  0.00    +0.000 N 
ATOM      5  C   UNL     1       2.570   6.294  19.796  0.00  0.00    +0.000 C 
ATOM      6  O   UNL     1       2.993   6.746  18.737  0.00  0.00    +0.000 OA
ATOM      7  N   UNL     1       0.716   8.863  21.583  0.00  0.00    +0.000 NA
ATOM      8  C   UNL     1       0.386  10.161  21.185  0.00  0.00    +0.000 A 
ATOM      9  C   UNL     1      -0.237  11.077  22.183  0.00  0.00    +0.000 C 
ATOM     10  H   UNL     1       1.561   6.524  21.609  0.00  0.00    +0.000 HD
ENDROOT
BRANCH   1  12
ATOM     11  C   UNL     1       1.664  12.632  18.954  0.00  0.00    +0.000 C 
ATOM     12  C   UNL     1       0.487  11.690  19.121  0.00  0.00    +0.000 C 
ATOM     13  O   UNL     1      -0.600  11.994  18.626  0.00  0.00    +0.000 OA
ENDBRANCH   1  12
BRANCH   5  14
ATOM     14  C   UNL     1       2.984   4.897  20.221  0.00  0.00    +0.000 C 
BRANCH  14  15
ATOM     15  C   UNL     1       2.949   3.936  19.026  0.00  0.00    +0.000 C 
BRANCH  15  16
ATOM     16  C   UNL     1       4.362   3.517  18.625  0.00  0.00    +0.000 C 
BRANCH  16  17
ATOM     17  O   UNL     1       4.835   4.283  17.510  0.00  0.00    +0.000 OA
BRANCH  17  18
ATOM     18  C   UNL     1       5.859   5.150  17.827  0.00  0.00    +0.000 A 
ATOM     19  C   UNL     1       6.747   4.923  18.891  0.00  0.00    +0.000 A 
ATOM     20  C   UNL     1       7.773   5.821  19.175  0.00  0.00    +0.000 A 
ATOM     21  C   UNL     1       7.946   6.950  18.386  0.00  0.00    +0.000 A 
ATOM     22  C   UNL     1       7.091   7.172  17.307  0.00  0.00    +0.000 A 
ATOM     23  C   UNL     1       6.039   6.285  17.017  0.00  0.00    +0.000 A 
ATOM     24  C   UNL     1       5.156   6.573  15.835  0.00  0.00    +0.000 C 
ENDBRANCH  17  18
ENDBRANCH  16  17
ENDBRANCH  15  16
ENDBRANCH  14  15
ENDBRANCH   5  14
TORSDOF 6
ENDMDL
