MODEL 1
REMARK VINA RESULT:      -9.0      0.000      0.000
REMARK  Name = 
REMARK  3 active torsions:
REMARK  status: ('A' for Active; 'I' for Inactive)
REMARK    1  A    between atoms: C_4  and  C_5
REMARK    2  A    between atoms: N_14  and  S_15
REMARK    3  A    between atoms: S_15  and  C_18
REMARK                            x       y       z     vdW  Elec       q    Type
REMARK                         _______ _______ _______ _____ _____    ______ ____
ROOT
ATOM      1  O   UNL     1       1.958   2.416  22.355  0.00  0.00    +0.000 OA
ATOM      2  C   UNL     1       2.347   3.029  21.363  0.00  0.00    +0.000 C 
ATOM      3  C   UNL     1       1.857   4.433  21.062  0.00  0.00    +0.000 C 
ATOM      4  C   UNL     1       1.855   4.792  19.571  0.00  0.00    +0.000 C 
ATOM      5  N   UNL     1       2.979   4.170  18.891  0.00  0.00    +0.000 N 
ATOM      6  N   UNL     1       3.410   4.511  17.671  0.00  0.00    +0.000 NA
ATOM      7  C   UNL     1       4.386   3.629  17.480  0.00  0.00    +0.000 A 
ATOM      8  N   UNL     1       5.138   3.583  16.334  0.00  0.00    +0.000 N 
ATOM      9  N   UNL     1       4.517   2.688  18.472  0.00  0.00    +0.000 NA
ATOM     10  C   UNL     1       3.641   3.080  19.364  0.00  0.00    +0.000 A 
ATOM     11  N   UNL     1       3.331   2.513  20.564  0.00  0.00    +0.000 N 
ATOM     12  H   UNL     1       5.487   2.659  16.100  0.00  0.00    +0.000 HD
ATOM     13  H   UNL     1       3.768   1.639  20.825  0.00  0.00    +0.000 HD
ENDROOT
BRANCH   4  14
ATOM     14  C   UNL     1       1.875   6.298  19.384  0.00  0.00    +0.000 A 
ATOM     15  C   UNL     1       2.232   6.863  18.145  0.00  0.00    +0.000 A 
ATOM     16  C   UNL     1       2.250   8.245  17.975  0.00  0.00    +0.000 A 
ATOM     17  C   UNL     1       1.909   9.079  19.035  0.00  0.00    +0.000 A 
ATOM     18  C   UNL     1       1.536   8.532  20.263  0.00  0.00    +0.000 A 
ATOM     19  C   UNL     1       1.516   7.148  20.439  0.00  0.00    +0.000 A 
ENDBRANCH   4  14
BRANCH   8  20
ATOM     20  S   UNL     1       6.373   4.707  16.147  0.00  0.00    +0.000 S 
ATOM     21  O   UNL     1       5.766   6.008  16.363  0.00  0.00    +0.000 OA
ATOM     22  O   UNL     1       7.529   4.297  16.916  0.00  0.00    +0.000 OA
BRANCH  20  23
ATOM     23  C   UNL     1       6.796   4.638  14.418  0.00  0.00    +0.000 A 
ATOM     24  C   UNL     1       6.111   3.747  13.583  0.00  0.00    +0.000 A 
ATOM     25  C   UNL     1       6.424   3.697  12.223  0.00  0.00    +0.000 A 
ATOM     26  C   UNL     1       7.399   4.548  11.702  0.00  0.00    +0.000 A 
ATOM     27  C   UNL     1       8.066   5.450  12.534  0.00  0.00    +0.000 A 
ATOM     28  C   UNL     1       7.770   5.496  13.898  0.00  0.00    +0.000 A 
ENDBRANCH  20  23
ENDBRANCH   8  20
TORSDOF 3
ENDMDL
MODEL 2
REMARK VINA RESULT:      -8.8      0.207      1.358
REMARK  Name = 
REMARK  3 active torsions:
REMARK  status: ('A' for Active; 'I' for Inactive)
REMARK    1  A    between atoms: C_4  and  C_5
REMARK    2  A    between atoms: N_14  and  S_15
REMARK    3  A    between atoms: S_15  and  C_18
REMARK                            x       y       z     vdW  Elec       q    Type
REMARK                         _______ _______ _______ _____ _____    ______ ____
ROOT
ATOM      1  O   UNL     1       1.764   2.446  22.332  0.00  0.00    +0.000 OA
ATOM      2  C   UNL     1       2.153   3.066  21.345  0.00  0.00    +0.000 C 
ATOM      3  C   UNL     1       1.697   4.489  21.078  0.00  0.00    +0.000 C 
ATOM      4  C   UNL     1       1.680   4.875  19.594  0.00  0.00    +0.000 C 
ATOM      5  N   UNL     1       2.774   4.236  18.884  0.00  0.00    +0.000 N 
ATOM      6  N   UNL     1       3.194   4.588  17.662  0.00  0.00    +0.000 NA
ATOM      7  C   UNL     1       4.141   3.682  17.438  0.00  0.00    +0.000 A 
ATOM      8  N   UNL     1       4.872   3.637  16.279  0.00  0.00    +0.000 N 
ATOM      9  N   UNL     1       4.263   2.720  18.410  0.00  0.00    +0.000 NA
ATOM     10  C   UNL     1       3.414   3.119  19.325  0.00  0.00    +0.000 A 
ATOM     11  N   UNL     1       3.108   2.539  20.519  0.00  0.00    +0.000 N 
ATOM     12  H   UNL     1       5.191   2.709  16.022  0.00  0.00    +0.000 HD
ATOM     13  H   UNL     1       3.525   1.648  20.757  0.00  0.00    +0.000 HD
ENDROOT
BRANCH   4  14
ATOM     14  C   UNL     1       1.738   6.384  19.435  0.00  0.00    +0.000 A 
ATOM     15  C   UNL     1       1.526   7.230  20.539  0.00  0.00    +0.000 A 
ATOM     16  C   UNL     1       1.579   8.614  20.393  0.00  0.00    +0.000 A 
ATOM     17  C   UNL     1       1.846   9.170  19.145  0.00  0.00    +0.000 A 
ATOM     18  C   UNL     1       2.075   8.342  18.046  0.00  0.00    +0.000 A 
ATOM     19  C   UNL     1       2.024   6.955  18.188  0.00  0.00    +0.000 A 
ENDBRANCH   4  14
BRANCH   8  20
ATOM     20  S   UNL     1       6.135   4.730  16.090  0.00  0.00    +0.000 S 
ATOM     21  O   UNL     1       5.549   6.050  16.252  0.00  0.00    +0.000 OA
ATOM     22  O   UNL     1       7.262   4.321  16.901  0.00  0.00    +0.000 OA
BRANCH  20  23
ATOM     23  C   UNL     1       6.600   4.601  14.376  0.00  0.00    +0.000 A 
ATOM     24  C   UNL     1       7.617   5.427  13.881  0.00  0.00    +0.000 A 
ATOM     25  C   UNL     1       8.000   5.322  12.542  0.00  0.00    +0.000 A 
ATOM     26  C   UNL     1       7.385   4.383  11.714  0.00  0.00    +0.000 A 
ATOM     27  C   UNL     1       6.384   3.547  12.216  0.00  0.00    +0.000 A 
ATOM     28  C   UNL     1       5.985   3.655  13.550  0.00  0.00    +0.000 A 
ENDBRANCH  20  23
ENDBRANCH   8  20
TORSDOF 3
ENDMDL
MODEL 3
REMARK VINA RESULT:      -8.6      3.686      7.461
REMARK  Name = 
REMARK  3 active torsions:
REMARK  status: ('A' for Active; 'I' for Inactive)
REMARK    1  A    between atoms: C_4  and  C_5
REMARK    2  A    between atoms: N_14  and  S_15
REMARK    3  A    between atoms: S_15  and  C_18
REMARK                            x       y       z     vdW  Elec       q    Type
REMARK                         _______ _______ _______ _____ _____    ______ ____
ROOT
ATOM      1  O   UNL     1       6.873   5.188  16.900  0.00  0.00    +0.000 OA
ATOM      2  C   UNL     1       5.763   5.533  17.300  0.00  0.00    +0.000 C 
ATOM      3  C   UNL     1       4.853   4.563  18.031  0.00  0.00    +0.000 C 
ATOM      4  C   UNL     1       3.357   4.860  17.868  0.00  0.00    +0.000 C 
ATOM      5  N   UNL     1       3.122   6.292  17.808  0.00  0.00    +0.000 N 
ATOM      6  N   UNL     1       1.923   6.871  17.952  0.00  0.00    +0.000 NA
ATOM      7  C   UNL     1       2.222   8.150  17.752  0.00  0.00    +0.000 A 
ATOM      8  N   UNL     1       1.286   9.152  17.795  0.00  0.00    +0.000 N 
ATOM      9  N   UNL     1       3.524   8.390  17.386  0.00  0.00    +0.000 NA
ATOM     10  C   UNL     1       4.074   7.203  17.468  0.00  0.00    +0.000 A 
ATOM     11  N   UNL     1       5.361   6.837  17.209  0.00  0.00    +0.000 N 
ATOM     12  H   UNL     1       1.498   9.947  17.202  0.00  0.00    +0.000 HD
ATOM     13  H   UNL     1       6.008   7.527  16.849  0.00  0.00    +0.000 HD
ENDROOT
BRANCH   4  14
ATOM     14  C   UNL     1       2.562   4.226  18.995  0.00  0.00    +0.000 A 
ATOM     15  C   UNL     1       1.484   3.365  18.715  0.00  0.00    +0.000 A 
ATOM     16  C   UNL     1       0.754   2.783  19.749  0.00  0.00    +0.000 A 
ATOM     17  C   UNL     1       1.092   3.051  21.072  0.00  0.00    +0.000 A 
ATOM     18  C   UNL     1       2.168   3.889  21.363  0.00  0.00    +0.000 A 
ATOM     19  C   UNL     1       2.903   4.474  20.331  0.00  0.00    +0.000 A 
ENDBRANCH   4  14
BRANCH   8  20
ATOM     20  S   UNL     1       0.778   9.701  19.300  0.00  0.00    +0.000 S 
ATOM     21  O   UNL     1      -0.665   9.841  19.207  0.00  0.00    +0.000 OA
ATOM     22  O   UNL     1       1.373   8.894  20.343  0.00  0.00    +0.000 OA
BRANCH  20  23
ATOM     23  C   UNL     1       1.429  11.354  19.427  0.00  0.00    +0.000 A 
ATOM     24  C   UNL     1       2.123  11.900  18.340  0.00  0.00    +0.000 A 
ATOM     25  C   UNL     1       2.623  13.201  18.425  0.00  0.00    +0.000 A 
ATOM     26  C   UNL     1       2.411  13.955  19.579  0.00  0.00    +0.000 A 
ATOM     27  C   UNL     1       1.701  13.414  20.654  0.00  0.00    +0.000 A 
ATOM     28  C   UNL     1       1.209  12.109  20.584  0.00  0.00    +0.000 A 
ENDBRANCH  20  23
ENDBRANCH   8  20
TORSDOF 3
ENDMDL
MODEL 4
REMARK VINA RESULT:      -8.6      2.150      2.832
REMARK  Name = 
REMARK  3 active torsions:
REMARK  status: ('A' for Active; 'I' for Inactive)
REMARK    1  A    between atoms: C_4  and  C_5
REMARK    2  A    between atoms: N_14  and  S_15
REMARK    3  A    between atoms: S_15  and  C_18
REMARK                            x       y       z     vdW  Elec       q    Type
REMARK                         _______ _______ _______ _____ _____    ______ ____
ROOT
ATOM      1  O   UNL     1       2.807   2.492  22.017  0.00  0.00    +0.000 OA
ATOM      2  C   UNL     1       2.974   3.177  21.009  0.00  0.00    +0.000 C 
ATOM      3  C   UNL     1       2.345   4.551  20.878  0.00  0.00    +0.000 C 
ATOM      4  C   UNL     1       2.057   4.974  19.432  0.00  0.00    +0.000 C 
ATOM      5  N   UNL     1       3.084   4.472  18.536  0.00  0.00    +0.000 N 
ATOM      6  N   UNL     1       3.272   4.899  17.281  0.00  0.00    +0.000 NA
ATOM      7  C   UNL     1       4.257   4.104  16.876  0.00  0.00    +0.000 A 
ATOM      8  N   UNL     1       4.798   4.167  15.617  0.00  0.00    +0.000 N 
ATOM      9  N   UNL     1       4.622   3.133  17.775  0.00  0.00    +0.000 NA
ATOM     10  C   UNL     1       3.892   3.416  18.825  0.00  0.00    +0.000 A 
ATOM     11  N   UNL     1       3.835   2.774  20.026  0.00  0.00    +0.000 N 
ATOM     12  H   UNL     1       5.162   3.285  15.275  0.00  0.00    +0.000 HD
ATOM     13  H   UNL     1       4.370   1.925  20.158  0.00  0.00    +0.000 HD
ENDROOT
BRANCH   4  14
ATOM     14  C   UNL     1       1.941   6.485  19.331  0.00  0.00    +0.000 A 
ATOM     15  C   UNL     1       2.210   7.145  18.118  0.00  0.00    +0.000 A 
ATOM     16  C   UNL     1       2.104   8.531  18.026  0.00  0.00    +0.000 A 
ATOM     17  C   UNL     1       1.725   9.273  19.141  0.00  0.00    +0.000 A 
ATOM     18  C   UNL     1       1.438   8.629  20.344  0.00  0.00    +0.000 A 
ATOM     19  C   UNL     1       1.543   7.241  20.442  0.00  0.00    +0.000 A 
ENDBRANCH   4  14
BRANCH   8  20
ATOM     20  S   UNL     1       5.902   5.390  15.286  0.00  0.00    +0.000 S 
ATOM     21  O   UNL     1       6.848   4.828  14.337  0.00  0.00    +0.000 OA
ATOM     22  O   UNL     1       5.197   6.618  14.984  0.00  0.00    +0.000 OA
BRANCH  20  23
ATOM     23  C   UNL     1       6.801   5.619  16.806  0.00  0.00    +0.000 A 
ATOM     24  C   UNL     1       7.422   4.515  17.405  0.00  0.00    +0.000 A 
ATOM     25  C   UNL     1       8.143   4.686  18.588  0.00  0.00    +0.000 A 
ATOM     26  C   UNL     1       8.259   5.956  19.154  0.00  0.00    +0.000 A 
ATOM     27  C   UNL     1       7.656   7.058  18.543  0.00  0.00    +0.000 A 
ATOM     28  C   UNL     1       6.921   6.894  17.368  0.00  0.00    +0.000 A 
ENDBRANCH  20  23
ENDBRANCH   8  20
TORSDOF 3
ENDMDL
MODEL 5
REMARK VINA RESULT:      -8.6      3.782      7.619
REMARK  Name = 
REMARK  3 active torsions:
REMARK  status: ('A' for Active; 'I' for Inactive)
REMARK    1  A    between atoms: C_4  and  C_5
REMARK    2  A    between atoms: N_14  and  S_15
REMARK    3  A    between atoms: S_15  and  C_18
REMARK                            x       y       z     vdW  Elec       q    Type
REMARK                         _______ _______ _______ _____ _____    ______ ____
ROOT
ATOM      1  O   UNL     1       6.678   5.370  16.629  0.00  0.00    +0.000 OA
ATOM      2  C   UNL     1       5.590   5.700  17.097  0.00  0.00    +0.000 C 
ATOM      3  C   UNL     1       4.725   4.710  17.856  0.00  0.00    +0.000 C 
ATOM      4  C   UNL     1       3.222   5.005  17.782  0.00  0.00    +0.000 C 
ATOM      5  N   UNL     1       2.979   6.437  17.767  0.00  0.00    +0.000 N 
ATOM      6  N   UNL     1       1.788   7.007  17.990  0.00  0.00    +0.000 NA
ATOM      7  C   UNL     1       2.071   8.292  17.802  0.00  0.00    +0.000 A 
ATOM      8  N   UNL     1       1.136   9.287  17.919  0.00  0.00    +0.000 N 
ATOM      9  N   UNL     1       3.350   8.544  17.370  0.00  0.00    +0.000 NA
ATOM     10  C   UNL     1       3.907   7.359  17.395  0.00  0.00    +0.000 A 
ATOM     11  N   UNL     1       5.179   7.004  17.058  0.00  0.00    +0.000 N 
ATOM     12  H   UNL     1       1.311  10.096  17.333  0.00  0.00    +0.000 HD
ATOM     13  H   UNL     1       5.803   7.705  16.678  0.00  0.00    +0.000 HD
ENDROOT
BRANCH   4  14
ATOM     14  C   UNL     1       2.492   4.343  18.937  0.00  0.00    +0.000 A 
ATOM     15  C   UNL     1       2.863   4.610  20.268  0.00  0.00    +0.000 A 
ATOM     16  C   UNL     1       2.193   4.002  21.327  0.00  0.00    +0.000 A 
ATOM     17  C   UNL     1       1.145   3.124  21.072  0.00  0.00    +0.000 A 
ATOM     18  C   UNL     1       0.755   2.864  19.759  0.00  0.00    +0.000 A 
ATOM     19  C   UNL     1       1.422   3.470  18.694  0.00  0.00    +0.000 A 
ENDBRANCH   4  14
BRANCH   8  20
ATOM     20  S   UNL     1       0.709   9.801  19.461  0.00  0.00    +0.000 S 
ATOM     21  O   UNL     1      -0.741   9.883  19.468  0.00  0.00    +0.000 OA
ATOM     22  O   UNL     1       1.408   9.010  20.452  0.00  0.00    +0.000 OA
BRANCH  20  23
ATOM     23  C   UNL     1       1.300  11.479  19.564  0.00  0.00    +0.000 A 
ATOM     24  C   UNL     1       1.108  12.198  20.750  0.00  0.00    +0.000 A 
ATOM     25  C   UNL     1       1.582  13.508  20.846  0.00  0.00    +0.000 A 
ATOM     26  C   UNL     1       2.261  14.083  19.772  0.00  0.00    +0.000 A 
ATOM     27  C   UNL     1       2.469  13.355  18.598  0.00  0.00    +0.000 A 
ATOM     28  C   UNL     1       1.986  12.050  18.487  0.00  0.00    +0.000 A 
ENDBRANCH  20  23
ENDBRANCH   8  20
TORSDOF 3
ENDMDL
MODEL 6
REMARK VINA RESULT:      -8.5      3.679      7.629
REMARK  Name = 
REMARK  3 active torsions:
REMARK  status: ('A' for Active; 'I' for Inactive)
REMARK    1  A    between atoms: C_4  and  C_5
REMARK    2  A    between atoms: N_14  and  S_15
REMARK    3  A    between atoms: S_15  and  C_18
REMARK                            x       y       z     vdW  Elec       q    Type
REMARK                         _______ _______ _______ _____ _____    ______ ____
ROOT
ATOM      1  O   UNL     1       7.137   4.895  17.142  0.00  0.00    +0.000 OA
ATOM      2  C   UNL     1       6.020   5.294  17.466  0.00  0.00    +0.000 C 
ATOM      3  C   UNL     1       5.026   4.378  18.154  0.00  0.00    +0.000 C 
ATOM      4  C   UNL     1       3.557   4.736  17.893  0.00  0.00    +0.000 C 
ATOM      5  N   UNL     1       3.389   6.175  17.793  0.00  0.00    +0.000 N 
ATOM      6  N   UNL     1       2.210   6.807  17.852  0.00  0.00    +0.000 NA
ATOM      7  C   UNL     1       2.577   8.069  17.648  0.00  0.00    +0.000 A 
ATOM      8  N   UNL     1       1.684   9.109  17.615  0.00  0.00    +0.000 N 
ATOM      9  N   UNL     1       3.908   8.245  17.361  0.00  0.00    +0.000 NA
ATOM     10  C   UNL     1       4.398   7.038  17.498  0.00  0.00    +0.000 A 
ATOM     11  N   UNL     1       5.682   6.612  17.327  0.00  0.00    +0.000 N 
ATOM     12  H   UNL     1       1.967   9.883  17.023  0.00  0.00    +0.000 HD
ATOM     13  H   UNL     1       6.380   7.266  16.997  0.00  0.00    +0.000 HD
ENDROOT
BRANCH   4  14
ATOM     14  C   UNL     1       2.666   4.159  18.978  0.00  0.00    +0.000 A 
ATOM     15  C   UNL     1       2.958   4.378  20.337  0.00  0.00    +0.000 A 
ATOM     16  C   UNL     1       2.141   3.849  21.333  0.00  0.00    +0.000 A 
ATOM     17  C   UNL     1       1.022   3.098  20.985  0.00  0.00    +0.000 A 
ATOM     18  C   UNL     1       0.711   2.888  19.642  0.00  0.00    +0.000 A 
ATOM     19  C   UNL     1       1.527   3.416  18.641  0.00  0.00    +0.000 A 
ENDBRANCH   4  14
BRANCH   8  20
ATOM     20  S   UNL     1       1.108   9.710  19.075  0.00  0.00    +0.000 S 
ATOM     21  O   UNL     1       0.941   8.557  19.944  0.00  0.00    +0.000 OA
ATOM     22  O   UNL     1       1.914  10.837  19.494  0.00  0.00    +0.000 OA
BRANCH  20  23
ATOM     23  C   UNL     1      -0.534  10.298  18.712  0.00  0.00    +0.000 A 
ATOM     24  C   UNL     1      -1.096  11.295  19.519  0.00  0.00    +0.000 A 
ATOM     25  C   UNL     1      -2.376  11.774  19.233  0.00  0.00    +0.000 A 
ATOM     26  C   UNL     1      -3.076  11.275  18.134  0.00  0.00    +0.000 A 
ATOM     27  C   UNL     1      -2.504  10.295  17.319  0.00  0.00    +0.000 A 
ATOM     28  C   UNL     1      -1.231   9.799  17.606  0.00  0.00    +0.000 A 
ENDBRANCH  20  23
ENDBRANCH   8  20
TORSDOF 3
ENDMDL
MODEL 7
REMARK VINA RESULT:      -8.4      3.707      7.557
REMARK  Name = 
REMARK  3 active torsions:
REMARK  status: ('A' for Active; 'I' for Inactive)
REMARK    1  A    between atoms: C_4  and  C_5
REMARK    2  A    between atoms: N_14  and  S_15
REMARK    3  A    between atoms: S_15  and  C_18
REMARK                            x       y       z     vdW  Elec       q    Type
REMARK                         _______ _______ _______ _____ _____    ______ ____
ROOT
ATOM      1  O   UNL     1       7.172   4.959  17.247  0.00  0.00    +0.000 OA
ATOM      2  C   UNL     1       6.046   5.352  17.545  0.00  0.00    +0.000 C 
ATOM      3  C   UNL     1       5.040   4.429  18.208  0.00  0.00    +0.000 C 
ATOM      4  C   UNL     1       3.576   4.780  17.914  0.00  0.00    +0.000 C 
ATOM      5  N   UNL     1       3.403   6.218  17.813  0.00  0.00    +0.000 N 
ATOM      6  N   UNL     1       2.219   6.844  17.846  0.00  0.00    +0.000 NA
ATOM      7  C   UNL     1       2.584   8.108  17.654  0.00  0.00    +0.000 A 
ATOM      8  N   UNL     1       1.687   9.144  17.602  0.00  0.00    +0.000 N 
ATOM      9  N   UNL     1       3.920   8.291  17.398  0.00  0.00    +0.000 NA
ATOM     10  C   UNL     1       4.414   7.087  17.543  0.00  0.00    +0.000 A 
ATOM     11  N   UNL     1       5.704   6.668  17.401  0.00  0.00    +0.000 N 
ATOM     12  H   UNL     1       1.979   9.920  17.018  0.00  0.00    +0.000 HD
ATOM     13  H   UNL     1       6.405   7.327  17.089  0.00  0.00    +0.000 HD
ENDROOT
BRANCH   4  14
ATOM     14  C   UNL     1       2.664   4.196  18.977  0.00  0.00    +0.000 A 
ATOM     15  C   UNL     1       1.595   3.352  18.620  0.00  0.00    +0.000 A 
ATOM     16  C   UNL     1       0.757   2.817  19.596  0.00  0.00    +0.000 A 
ATOM     17  C   UNL     1       0.978   3.113  20.937  0.00  0.00    +0.000 A 
ATOM     18  C   UNL     1       2.044   3.933  21.306  0.00  0.00    +0.000 A 
ATOM     19  C   UNL     1       2.886   4.472  20.333  0.00  0.00    +0.000 A 
ENDBRANCH   4  14
BRANCH   8  20
ATOM     20  S   UNL     1       1.074   9.738  19.050  0.00  0.00    +0.000 S 
ATOM     21  O   UNL     1       0.902   8.584  19.915  0.00  0.00    +0.000 OA
ATOM     22  O   UNL     1       1.858  10.874  19.485  0.00  0.00    +0.000 OA
BRANCH  20  23
ATOM     23  C   UNL     1      -0.567  10.308  18.652  0.00  0.00    +0.000 A 
ATOM     24  C   UNL     1      -1.252   9.720  17.582  0.00  0.00    +0.000 A 
ATOM     25  C   UNL     1      -2.545  10.148  17.272  0.00  0.00    +0.000 A 
ATOM     26  C   UNL     1      -3.152  11.140  18.042  0.00  0.00    +0.000 A 
ATOM     27  C   UNL     1      -2.473  11.710  19.121  0.00  0.00    +0.000 A 
ATOM     28  C   UNL     1      -1.175  11.298  19.429  0.00  0.00    +0.000 A 
ENDBRANCH  20  23
ENDBRANCH   8  20
TORSDOF 3
ENDMDL
MODEL 8
REMARK VINA RESULT:      -8.4      3.178      7.083
REMARK  Name = 
REMARK  3 active torsions:
REMARK  status: ('A' for Active; 'I' for Inactive)
REMARK    1  A    between atoms: C_4  and  C_5
REMARK    2  A    between atoms: N_14  and  S_15
REMARK    3  A    between atoms: S_15  and  C_18
REMARK                            x       y       z     vdW  Elec       q    Type
REMARK                         _______ _______ _______ _____ _____    ______ ____
ROOT
ATOM      1  O   UNL     1       2.251   2.059  21.790  0.00  0.00    +0.000 OA
ATOM      2  C   UNL     1       2.487   3.053  21.106  0.00  0.00    +0.000 C 
ATOM      3  C   UNL     1       3.570   3.039  20.043  0.00  0.00    +0.000 C 
ATOM      4  C   UNL     1       4.200   4.411  19.771  0.00  0.00    +0.000 C 
ATOM      5  N   UNL     1       3.209   5.465  19.895  0.00  0.00    +0.000 N 
ATOM      6  N   UNL     1       3.374   6.717  19.448  0.00  0.00    +0.000 NA
ATOM      7  C   UNL     1       2.245   7.291  19.853  0.00  0.00    +0.000 A 
ATOM      8  N   UNL     1       1.956   8.612  19.623  0.00  0.00    +0.000 N 
ATOM      9  N   UNL     1       1.432   6.493  20.619  0.00  0.00    +0.000 NA
ATOM     10  C   UNL     1       2.049   5.338  20.594  0.00  0.00    +0.000 A 
ATOM     11  N   UNL     1       1.697   4.166  21.196  0.00  0.00    +0.000 N 
ATOM     12  H   UNL     1       1.361   9.038  20.327  0.00  0.00    +0.000 HD
ATOM     13  H   UNL     1       0.885   4.146  21.800  0.00  0.00    +0.000 HD
ENDROOT
BRANCH   4  14
ATOM     14  C   UNL     1       4.851   4.436  18.400  0.00  0.00    +0.000 A 
ATOM     15  C   UNL     1       6.213   4.762  18.259  0.00  0.00    +0.000 A 
ATOM     16  C   UNL     1       6.811   4.785  17.001  0.00  0.00    +0.000 A 
ATOM     17  C   UNL     1       6.058   4.480  15.870  0.00  0.00    +0.000 A 
ATOM     18  C   UNL     1       4.712   4.138  15.998  0.00  0.00    +0.000 A 
ATOM     19  C   UNL     1       4.109   4.113  17.256  0.00  0.00    +0.000 A 
ENDBRANCH   4  14
BRANCH   8  20
ATOM     20  S   UNL     1       1.413   9.054  18.096  0.00  0.00    +0.000 S 
ATOM     21  O   UNL     1       2.409   9.970  17.567  0.00  0.00    +0.000 OA
ATOM     22  O   UNL     1       1.028   7.873  17.352  0.00  0.00    +0.000 OA
BRANCH  20  23
ATOM     23  C   UNL     1      -0.048  10.030  18.394  0.00  0.00    +0.000 A 
ATOM     24  C   UNL     1      -1.140   9.906  17.525  0.00  0.00    +0.000 A 
ATOM     25  C   UNL     1      -2.295  10.654  17.760  0.00  0.00    +0.000 A 
ATOM     26  C   UNL     1      -2.363  11.501  18.867  0.00  0.00    +0.000 A 
ATOM     27  C   UNL     1      -1.280  11.606  19.742  0.00  0.00    +0.000 A 
ATOM     28  C   UNL     1      -0.115  10.873  19.507  0.00  0.00    +0.000 A 
ENDBRANCH  20  23
ENDBRANCH   8  20
TORSDOF 3
ENDMDL
MODEL 9
REMARK VINA RESULT:      -8.4      3.187      7.110
REMARK  Name = 
REMARK  3 active torsions:
REMARK  status: ('A' for Active; 'I' for Inactive)
REMARK    1  A    between atoms: C_4  and  C_5
REMARK    2  A    between atoms: N_14  and  S_15
REMARK    3  A    between atoms: S_15  and  C_18
REMARK                            x       y       z     vdW  Elec       q    Type
REMARK                         _______ _______ _______ _____ _____    ______ ____
ROOT
ATOM      1  O   UNL     1       2.182   2.079  21.786  0.00  0.00    +0.000 OA
ATOM      2  C   UNL     1       2.434   3.073  21.108  0.00  0.00    +0.000 C 
ATOM      3  C   UNL     1       3.528   3.052  20.057  0.00  0.00    +0.000 C 
ATOM      4  C   UNL     1       4.172   4.419  19.795  0.00  0.00    +0.000 C 
ATOM      5  N   UNL     1       3.189   5.482  19.910  0.00  0.00    +0.000 N 
ATOM      6  N   UNL     1       3.368   6.733  19.469  0.00  0.00    +0.000 NA
ATOM      7  C   UNL     1       2.240   7.316  19.863  0.00  0.00    +0.000 A 
ATOM      8  N   UNL     1       1.964   8.639  19.634  0.00  0.00    +0.000 N 
ATOM      9  N   UNL     1       1.413   6.522  20.618  0.00  0.00    +0.000 NA
ATOM     10  C   UNL     1       2.021   5.362  20.597  0.00  0.00    +0.000 A 
ATOM     11  N   UNL     1       1.652   4.192  21.192  0.00  0.00    +0.000 N 
ATOM     12  H   UNL     1       1.365   9.068  20.331  0.00  0.00    +0.000 HD
ATOM     13  H   UNL     1       0.834   4.177  21.787  0.00  0.00    +0.000 HD
ENDROOT
BRANCH   4  14
ATOM     14  C   UNL     1       4.838   4.442  18.430  0.00  0.00    +0.000 A 
ATOM     15  C   UNL     1       4.109   4.117  17.271  0.00  0.00    +0.000 A 
ATOM     16  C   UNL     1       4.721   4.138  16.020  0.00  0.00    +0.000 A 
ATOM     17  C   UNL     1       6.064   4.485  15.910  0.00  0.00    +0.000 A 
ATOM     18  C   UNL     1       6.793   4.827  17.049  0.00  0.00    +0.000 A 
ATOM     19  C   UNL     1       6.185   4.808  18.304  0.00  0.00    +0.000 A 
ENDBRANCH   4  14
BRANCH   8  20
ATOM     20  S   UNL     1       1.441   9.089  18.101  0.00  0.00    +0.000 S 
ATOM     21  O   UNL     1       2.429  10.030  17.602  0.00  0.00    +0.000 OA
ATOM     22  O   UNL     1       1.093   7.911  17.336  0.00  0.00    +0.000 OA
BRANCH  20  23
ATOM     23  C   UNL     1      -0.044  10.033  18.384  0.00  0.00    +0.000 A 
ATOM     24  C   UNL     1      -0.048  11.016  19.380  0.00  0.00    +0.000 A 
ATOM     25  C   UNL     1      -1.201  11.773  19.598  0.00  0.00    +0.000 A 
ATOM     26  C   UNL     1      -2.332  11.560  18.810  0.00  0.00    +0.000 A 
ATOM     27  C   UNL     1      -2.318  10.592  17.803  0.00  0.00    +0.000 A 
ATOM     28  C   UNL     1      -1.174   9.821  17.587  0.00  0.00    +0.000 A 
ENDBRANCH  20  23
ENDBRANCH   8  20
TORSDOF 3
ENDMDL
