MODEL 1
REMARK VINA RESULT:      -8.1      0.000      0.000
REMARK  Name = 
REMARK  8 active torsions:
REMARK  status: ('A' for Active; 'I' for Inactive)
REMARK    1  A    between atoms: C_1  and  O_2
REMARK    2  A    between atoms: O_2  and  N_3
REMARK    3  A    between atoms: C_4  and  C_5
REMARK    4  A    between atoms: C_4  and  C_12
REMARK    5  A    between atoms: C_17  and  O_18
REMARK    6  A    between atoms: O_18  and  C_19
REMARK    7  A    between atoms: C_19  and  C_20
REMARK    8  A    between atoms: C_23  and  C_24
REMARK                            x       y       z     vdW  Elec       q    Type
REMARK                         _______ _______ _______ _____ _____    ______ ____
ROOT
ATOM      1  C   UNL     1      -0.275  10.804  20.496  0.00  0.00    +0.000 A 
ATOM      2  C   UNL     1      -0.820  11.501  21.595  0.00  0.00    +0.000 A 
ATOM      3  C   UNL     1      -0.902  10.924  22.863  0.00  0.00    +0.000 A 
ATOM      4  C   UNL     1      -0.406   9.647  23.067  0.00  0.00    +0.000 A 
ATOM      5  C   UNL     1       0.188   8.960  22.016  0.00  0.00    +0.000 A 
ATOM      6  C   UNL     1       0.298   9.535  20.735  0.00  0.00    +0.000 A 
ENDROOT
BRANCH   1   8
ATOM      7  N   UNL     1      -1.275  11.170  18.201  0.00  0.00    +0.000 NA
ATOM      8  C   UNL     1      -0.423  11.478  19.139  0.00  0.00    +0.000 C 
BRANCH   8   9
ATOM      9  C   UNL     1       0.579  12.569  18.783  0.00  0.00    +0.000 A 
ATOM     10  C   UNL     1       0.256  13.933  18.858  0.00  0.00    +0.000 A 
ATOM     11  C   UNL     1       1.256  14.908  18.731  0.00  0.00    +0.000 A 
ATOM     12  C   UNL     1       2.573  14.527  18.477  0.00  0.00    +0.000 A 
ATOM     13 CL   UNL     1       3.804  15.725  18.369  0.00  0.00    +0.000 Cl
ATOM     14  C   UNL     1       2.896  13.180  18.330  0.00  0.00    +0.000 A 
ATOM     15  C   UNL     1       1.904  12.203  18.482  0.00  0.00    +0.000 A 
ENDBRANCH   8   9
BRANCH   7  17
ATOM     16  C   UNL     1      -2.856   9.742  17.365  0.00  0.00    +0.000 C 
ATOM     17  O   UNL     1      -2.033  10.034  18.488  0.00  0.00    +0.000 OA
ENDBRANCH   7  17
ENDBRANCH   1   8
BRANCH   6  18
ATOM     18  O   UNL     1       0.880   8.824  19.719  0.00  0.00    +0.000 OA
BRANCH  18  19
ATOM     19  C   UNL     1       2.122   8.160  20.027  0.00  0.00    +0.000 C 
BRANCH  19  20
ATOM     20  C   UNL     1       2.048   6.697  19.641  0.00  0.00    +0.000 A 
ATOM     21  C   UNL     1       1.586   5.763  20.578  0.00  0.00    +0.000 A 
ATOM     22  C   UNL     1       1.452   4.417  20.243  0.00  0.00    +0.000 A 
ATOM     23  C   UNL     1       1.765   3.969  18.954  0.00  0.00    +0.000 A 
ATOM     24  C   UNL     1       2.232   4.900  18.012  0.00  0.00    +0.000 A 
ATOM     25  C   UNL     1       2.369   6.254  18.350  0.00  0.00    +0.000 A 
BRANCH  23  26
ATOM     26  C   UNL     1       1.583   2.518  18.581  0.00  0.00    +0.000 C 
ATOM     27  F   UNL     1       2.092   2.200  17.357  0.00  0.00    +0.000 F 
ATOM     28  F   UNL     1       2.190   1.674  19.463  0.00  0.00    +0.000 F 
ATOM     29  F   UNL     1       0.274   2.144  18.547  0.00  0.00    +0.000 F 
ENDBRANCH  23  26
ENDBRANCH  19  20
ENDBRANCH  18  19
ENDBRANCH   6  18
TORSDOF 7
ENDMDL
MODEL 2
REMARK VINA RESULT:      -8.0      2.260      3.614
REMARK  Name = 
REMARK  8 active torsions:
REMARK  status: ('A' for Active; 'I' for Inactive)
REMARK    1  A    between atoms: C_1  and  O_2
REMARK    2  A    between atoms: O_2  and  N_3
REMARK    3  A    between atoms: C_4  and  C_5
REMARK    4  A    between atoms: C_4  and  C_12
REMARK    5  A    between atoms: C_17  and  O_18
REMARK    6  A    between atoms: O_18  and  C_19
REMARK    7  A    between atoms: C_19  and  C_20
REMARK    8  A    between atoms: C_23  and  C_24
REMARK                            x       y       z     vdW  Elec       q    Type
REMARK                         _______ _______ _______ _____ _____    ______ ____
ROOT
ATOM      1  C   UNL     1      -0.223  10.739  20.774  0.00  0.00    +0.000 A 
ATOM      2  C   UNL     1      -0.853  11.403  21.848  0.00  0.00    +0.000 A 
ATOM      3  C   UNL     1      -1.048  10.782  23.082  0.00  0.00    +0.000 A 
ATOM      4  C   UNL     1      -0.585   9.492  23.280  0.00  0.00    +0.000 A 
ATOM      5  C   UNL     1       0.090   8.836  22.258  0.00  0.00    +0.000 A 
ATOM      6  C   UNL     1       0.314   9.455  21.013  0.00  0.00    +0.000 A 
ENDROOT
BRANCH   1   8
ATOM      7  N   UNL     1       0.504  12.466  19.075  0.00  0.00    +0.000 NA
ATOM      8  C   UNL     1      -0.248  11.464  19.435  0.00  0.00    +0.000 C 
BRANCH   8   9
ATOM      9  C   UNL     1      -1.319  11.052  18.433  0.00  0.00    +0.000 A 
ATOM     10  C   UNL     1      -2.519  11.765  18.285  0.00  0.00    +0.000 A 
ATOM     11  C   UNL     1      -3.381  11.489  17.215  0.00  0.00    +0.000 A 
ATOM     12  C   UNL     1      -3.077  10.465  16.320  0.00  0.00    +0.000 A 
ATOM     13 CL   UNL     1      -4.117  10.162  14.982  0.00  0.00    +0.000 Cl
ATOM     14  C   UNL     1      -1.926   9.701  16.495  0.00  0.00    +0.000 A 
ATOM     15  C   UNL     1      -1.048   9.992  17.547  0.00  0.00    +0.000 A 
ENDBRANCH   8   9
BRANCH   7  17
ATOM     16  C   UNL     1       2.498  13.500  19.513  0.00  0.00    +0.000 C 
ATOM     17  O   UNL     1       1.327  12.942  20.096  0.00  0.00    +0.000 OA
ENDBRANCH   7  17
ENDBRANCH   1   8
BRANCH   6  18
ATOM     18  O   UNL     1       0.974   8.774  20.025  0.00  0.00    +0.000 OA
BRANCH  18  19
ATOM     19  C   UNL     1       2.102   7.975  20.435  0.00  0.00    +0.000 C 
BRANCH  19  20
ATOM     20  C   UNL     1       1.948   6.552  19.940  0.00  0.00    +0.000 A 
ATOM     21  C   UNL     1       2.462   6.203  18.684  0.00  0.00    +0.000 A 
ATOM     22  C   UNL     1       2.389   4.892  18.217  0.00  0.00    +0.000 A 
ATOM     23  C   UNL     1       1.809   3.888  19.001  0.00  0.00    +0.000 A 
ATOM     24  C   UNL     1       1.289   4.233  20.259  0.00  0.00    +0.000 A 
ATOM     25  C   UNL     1       1.361   5.553  20.728  0.00  0.00    +0.000 A 
BRANCH  23  26
ATOM     26  C   UNL     1       1.764   2.462  18.510  0.00  0.00    +0.000 C 
ATOM     27  F   UNL     1       2.527   1.605  19.248  0.00  0.00    +0.000 F 
ATOM     28  F   UNL     1       0.504   1.944  18.531  0.00  0.00    +0.000 F 
ATOM     29  F   UNL     1       2.200   2.333  17.227  0.00  0.00    +0.000 F 
ENDBRANCH  23  26
ENDBRANCH  19  20
ENDBRANCH  18  19
ENDBRANCH   6  18
TORSDOF 7
ENDMDL
MODEL 3
REMARK VINA RESULT:      -7.9      5.138      8.667
REMARK  Name = 
REMARK  8 active torsions:
REMARK  status: ('A' for Active; 'I' for Inactive)
REMARK    1  A    between atoms: C_1  and  O_2
REMARK    2  A    between atoms: O_2  and  N_3
REMARK    3  A    between atoms: C_4  and  C_5
REMARK    4  A    between atoms: C_4  and  C_12
REMARK    5  A    between atoms: C_17  and  O_18
REMARK    6  A    between atoms: O_18  and  C_19
REMARK    7  A    between atoms: C_19  and  C_20
REMARK    8  A    between atoms: C_23  and  C_24
REMARK                            x       y       z     vdW  Elec       q    Type
REMARK                         _______ _______ _______ _____ _____    ______ ____
ROOT
ATOM      1  C   UNL     1       3.046   3.291  19.195  0.00  0.00    +0.000 A 
ATOM      2  C   UNL     1       2.273   2.158  18.861  0.00  0.00    +0.000 A 
ATOM      3  C   UNL     1       0.904   2.100  19.121  0.00  0.00    +0.000 A 
ATOM      4  C   UNL     1       0.268   3.191  19.691  0.00  0.00    +0.000 A 
ATOM      5  C   UNL     1       0.994   4.341  19.976  0.00  0.00    +0.000 A 
ATOM      6  C   UNL     1       2.373   4.424  19.701  0.00  0.00    +0.000 A 
ENDROOT
BRANCH   1   8
ATOM      7  N   UNL     1       5.373   2.546  19.851  0.00  0.00    +0.000 NA
ATOM      8  C   UNL     1       4.553   3.142  19.031  0.00  0.00    +0.000 C 
BRANCH   8   9
ATOM      9  C   UNL     1       5.201   3.833  17.839  0.00  0.00    +0.000 A 
ATOM     10  C   UNL     1       6.472   4.425  17.919  0.00  0.00    +0.000 A 
ATOM     11  C   UNL     1       7.125   4.861  16.757  0.00  0.00    +0.000 A 
ATOM     12  C   UNL     1       6.493   4.758  15.520  0.00  0.00    +0.000 A 
ATOM     13 CL   UNL     1       7.318   5.252  14.093  0.00  0.00    +0.000 Cl
ATOM     14  C   UNL     1       5.203   4.238  15.434  0.00  0.00    +0.000 A 
ATOM     15  C   UNL     1       4.557   3.777  16.589  0.00  0.00    +0.000 A 
ENDBRANCH   8   9
BRANCH   7  17
ATOM     16  C   UNL     1       5.412   0.916  21.457  0.00  0.00    +0.000 C 
ATOM     17  O   UNL     1       4.766   2.108  21.028  0.00  0.00    +0.000 OA
ENDBRANCH   7  17
ENDBRANCH   1   8
BRANCH   6  18
ATOM     18  O   UNL     1       3.059   5.570  20.007  0.00  0.00    +0.000 OA
BRANCH  18  19
ATOM     19  C   UNL     1       3.254   6.510  18.931  0.00  0.00    +0.000 C 
BRANCH  19  20
ATOM     20  C   UNL     1       2.313   7.687  19.081  0.00  0.00    +0.000 A 
ATOM     21  C   UNL     1       1.971   8.441  17.951  0.00  0.00    +0.000 A 
ATOM     22  C   UNL     1       1.065   9.497  18.039  0.00  0.00    +0.000 A 
ATOM     23  C   UNL     1       0.467   9.821  19.262  0.00  0.00    +0.000 A 
ATOM     24  C   UNL     1       0.810   9.072  20.399  0.00  0.00    +0.000 A 
ATOM     25  C   UNL     1       1.723   8.011  20.310  0.00  0.00    +0.000 A 
BRANCH  23  26
ATOM     26  C   UNL     1      -0.541  10.941  19.349  0.00  0.00    +0.000 C 
ATOM     27  F   UNL     1      -1.759  10.622  18.825  0.00  0.00    +0.000 F 
ATOM     28  F   UNL     1      -0.782  11.325  20.634  0.00  0.00    +0.000 F 
ATOM     29  F   UNL     1      -0.138  12.064  18.693  0.00  0.00    +0.000 F 
ENDBRANCH  23  26
ENDBRANCH  19  20
ENDBRANCH  18  19
ENDBRANCH   6  18
TORSDOF 7
ENDMDL
MODEL 4
REMARK VINA RESULT:      -7.9      2.432      3.604
REMARK  Name = 
REMARK  8 active torsions:
REMARK  status: ('A' for Active; 'I' for Inactive)
REMARK    1  A    between atoms: C_1  and  O_2
REMARK    2  A    between atoms: O_2  and  N_3
REMARK    3  A    between atoms: C_4  and  C_5
REMARK    4  A    between atoms: C_4  and  C_12
REMARK    5  A    between atoms: C_17  and  O_18
REMARK    6  A    between atoms: O_18  and  C_19
REMARK    7  A    between atoms: C_19  and  C_20
REMARK    8  A    between atoms: C_23  and  C_24
REMARK                            x       y       z     vdW  Elec       q    Type
REMARK                         _______ _______ _______ _____ _____    ______ ____
ROOT
ATOM      1  C   UNL     1      -0.357  10.652  20.726  0.00  0.00    +0.000 A 
ATOM      2  C   UNL     1      -0.831  11.251  21.913  0.00  0.00    +0.000 A 
ATOM      3  C   UNL     1      -0.695  10.630  23.155  0.00  0.00    +0.000 A 
ATOM      4  C   UNL     1      -0.048   9.408  23.242  0.00  0.00    +0.000 A 
ATOM      5  C   UNL     1       0.480   8.823  22.097  0.00  0.00    +0.000 A 
ATOM      6  C   UNL     1       0.369   9.447  20.839  0.00  0.00    +0.000 A 
ENDROOT
BRANCH   1   8
ATOM      7  N   UNL     1       0.048  12.021  18.638  0.00  0.00    +0.000 NA
ATOM      8  C   UNL     1      -0.742  11.349  19.428  0.00  0.00    +0.000 C 
BRANCH   8   9
ATOM      9  C   UNL     1      -2.215  11.353  19.042  0.00  0.00    +0.000 A 
ATOM     10  C   UNL     1      -3.145  12.212  19.649  0.00  0.00    +0.000 A 
ATOM     11  C   UNL     1      -4.439  12.340  19.126  0.00  0.00    +0.000 A 
ATOM     12  C   UNL     1      -4.828  11.571  18.030  0.00  0.00    +0.000 A 
ATOM     13 CL   UNL     1      -6.404  11.766  17.364  0.00  0.00    +0.000 Cl
ATOM     14  C   UNL     1      -3.939  10.662  17.461  0.00  0.00    +0.000 A 
ATOM     15  C   UNL     1      -2.636  10.551  17.965  0.00  0.00    +0.000 A 
ENDBRANCH   8   9
BRANCH   7  17
ATOM     16  C   UNL     1       2.264  11.730  18.142  0.00  0.00    +0.000 C 
ATOM     17  O   UNL     1       1.344  12.166  19.136  0.00  0.00    +0.000 OA
ENDBRANCH   7  17
ENDBRANCH   1   8
BRANCH   6  18
ATOM     18  O   UNL     1       0.891   8.836  19.730  0.00  0.00    +0.000 OA
BRANCH  18  19
ATOM     19  C   UNL     1       2.169   8.188  19.893  0.00  0.00    +0.000 C 
BRANCH  19  20
ATOM     20  C   UNL     1       2.060   6.714  19.561  0.00  0.00    +0.000 A 
ATOM     21  C   UNL     1       1.607   5.821  20.541  0.00  0.00    +0.000 A 
ATOM     22  C   UNL     1       1.440   4.467  20.257  0.00  0.00    +0.000 A 
ATOM     23  C   UNL     1       1.712   3.969  18.977  0.00  0.00    +0.000 A 
ATOM     24  C   UNL     1       2.170   4.859  17.992  0.00  0.00    +0.000 A 
ATOM     25  C   UNL     1       2.340   6.221  18.279  0.00  0.00    +0.000 A 
BRANCH  23  26
ATOM     26  C   UNL     1       1.495   2.509  18.661  0.00  0.00    +0.000 C 
ATOM     27  F   UNL     1       2.131   2.096  17.527  0.00  0.00    +0.000 F 
ATOM     28  F   UNL     1       1.942   1.690  19.653  0.00  0.00    +0.000 F 
ATOM     29  F   UNL     1       0.182   2.199  18.482  0.00  0.00    +0.000 F 
ENDBRANCH  23  26
ENDBRANCH  19  20
ENDBRANCH  18  19
ENDBRANCH   6  18
TORSDOF 7
ENDMDL
MODEL 5
REMARK VINA RESULT:      -7.9      5.146      8.622
REMARK  Name = 
REMARK  8 active torsions:
REMARK  status: ('A' for Active; 'I' for Inactive)
REMARK    1  A    between atoms: C_1  and  O_2
REMARK    2  A    between atoms: O_2  and  N_3
REMARK    3  A    between atoms: C_4  and  C_5
REMARK    4  A    between atoms: C_4  and  C_12
REMARK    5  A    between atoms: C_17  and  O_18
REMARK    6  A    between atoms: O_18  and  C_19
REMARK    7  A    between atoms: C_19  and  C_20
REMARK    8  A    between atoms: C_23  and  C_24
REMARK                            x       y       z     vdW  Elec       q    Type
REMARK                         _______ _______ _______ _____ _____    ______ ____
ROOT
ATOM      1  C   UNL     1       3.019   3.290  19.216  0.00  0.00    +0.000 A 
ATOM      2  C   UNL     1       2.237   2.178  18.834  0.00  0.00    +0.000 A 
ATOM      3  C   UNL     1       0.866   2.124  19.083  0.00  0.00    +0.000 A 
ATOM      4  C   UNL     1       0.237   3.199  19.690  0.00  0.00    +0.000 A 
ATOM      5  C   UNL     1       0.972   4.330  20.024  0.00  0.00    +0.000 A 
ATOM      6  C   UNL     1       2.353   4.410  19.761  0.00  0.00    +0.000 A 
ENDROOT
BRANCH   1   8
ATOM      7  N   UNL     1       5.339   2.532  19.876  0.00  0.00    +0.000 NA
ATOM      8  C   UNL     1       4.525   3.133  19.055  0.00  0.00    +0.000 C 
BRANCH   8   9
ATOM      9  C   UNL     1       5.180   3.823  17.866  0.00  0.00    +0.000 A 
ATOM     10  C   UNL     1       6.462   4.390  17.944  0.00  0.00    +0.000 A 
ATOM     11  C   UNL     1       7.118   4.824  16.783  0.00  0.00    +0.000 A 
ATOM     12  C   UNL     1       6.477   4.743  15.548  0.00  0.00    +0.000 A 
ATOM     13 CL   UNL     1       7.305   5.234  14.121  0.00  0.00    +0.000 Cl
ATOM     14  C   UNL     1       5.177   4.248  15.464  0.00  0.00    +0.000 A 
ATOM     15  C   UNL     1       4.529   3.789  16.619  0.00  0.00    +0.000 A 
ENDBRANCH   8   9
BRANCH   7  17
ATOM     16  C   UNL     1       5.417   0.945  21.524  0.00  0.00    +0.000 C 
ATOM     17  O   UNL     1       4.727   2.095  21.052  0.00  0.00    +0.000 OA
ENDBRANCH   7  17
ENDBRANCH   1   8
BRANCH   6  18
ATOM     18  O   UNL     1       3.047   5.536  20.115  0.00  0.00    +0.000 OA
BRANCH  18  19
ATOM     19  C   UNL     1       3.316   6.485  19.062  0.00  0.00    +0.000 C 
BRANCH  19  20
ATOM     20  C   UNL     1       2.318   7.623  19.111  0.00  0.00    +0.000 A 
ATOM     21  C   UNL     1       1.739   7.976  20.337  0.00  0.00    +0.000 A 
ATOM     22  C   UNL     1       0.858   9.052  20.431  0.00  0.00    +0.000 A 
ATOM     23  C   UNL     1       0.542   9.815  19.301  0.00  0.00    +0.000 A 
ATOM     24  C   UNL     1       1.117   9.463  18.069  0.00  0.00    +0.000 A 
ATOM     25  C   UNL     1       2.001   8.379  17.974  0.00  0.00    +0.000 A 
BRANCH  23  26
ATOM     26  C   UNL     1      -0.382  11.003  19.412  0.00  0.00    +0.000 C 
ATOM     27  F   UNL     1       0.043  12.093  18.711  0.00  0.00    +0.000 F 
ATOM     28  F   UNL     1      -1.635  10.733  18.949  0.00  0.00    +0.000 F 
ATOM     29  F   UNL     1      -0.541  11.427  20.696  0.00  0.00    +0.000 F 
ENDBRANCH  23  26
ENDBRANCH  19  20
ENDBRANCH  18  19
ENDBRANCH   6  18
TORSDOF 7
ENDMDL
MODEL 6
REMARK VINA RESULT:      -7.9      2.490      3.707
REMARK  Name = 
REMARK  8 active torsions:
REMARK  status: ('A' for Active; 'I' for Inactive)
REMARK    1  A    between atoms: C_1  and  O_2
REMARK    2  A    between atoms: O_2  and  N_3
REMARK    3  A    between atoms: C_4  and  C_5
REMARK    4  A    between atoms: C_4  and  C_12
REMARK    5  A    between atoms: C_17  and  O_18
REMARK    6  A    between atoms: O_18  and  C_19
REMARK    7  A    between atoms: C_19  and  C_20
REMARK    8  A    between atoms: C_23  and  C_24
REMARK                            x       y       z     vdW  Elec       q    Type
REMARK                         _______ _______ _______ _____ _____    ______ ____
ROOT
ATOM      1  C   UNL     1      -0.191  10.960  20.692  0.00  0.00    +0.000 A 
ATOM      2  C   UNL     1      -0.965  11.829  21.491  0.00  0.00    +0.000 A 
ATOM      3  C   UNL     1      -1.339  11.492  22.792  0.00  0.00    +0.000 A 
ATOM      4  C   UNL     1      -0.917  10.290  23.337  0.00  0.00    +0.000 A 
ATOM      5  C   UNL     1      -0.105   9.442  22.593  0.00  0.00    +0.000 A 
ATOM      6  C   UNL     1       0.298   9.776  21.285  0.00  0.00    +0.000 A 
ENDROOT
BRANCH   1   8
ATOM      7  N   UNL     1       0.946  12.088  18.734  0.00  0.00    +0.000 NA
ATOM      8  C   UNL     1      -0.020  11.369  19.235  0.00  0.00    +0.000 C 
BRANCH   8   9
ATOM      9  C   UNL     1      -1.128  10.986  18.263  0.00  0.00    +0.000 A 
ATOM     10  C   UNL     1      -2.245  11.807  18.044  0.00  0.00    +0.000 A 
ATOM     11  C   UNL     1      -3.133  11.531  16.993  0.00  0.00    +0.000 A 
ATOM     12  C   UNL     1      -2.939  10.407  16.193  0.00  0.00    +0.000 A 
ATOM     13 CL   UNL     1      -4.005  10.099  14.877  0.00  0.00    +0.000 Cl
ATOM     14  C   UNL     1      -1.874   9.544  16.443  0.00  0.00    +0.000 A 
ATOM     15  C   UNL     1      -0.970   9.831  17.475  0.00  0.00    +0.000 A 
ENDBRANCH   8   9
BRANCH   7  17
ATOM     16  C   UNL     1       1.737  14.008  19.696  0.00  0.00    +0.000 C 
ATOM     17  O   UNL     1       1.826  12.588  19.694  0.00  0.00    +0.000 OA
ENDBRANCH   7  17
ENDBRANCH   1   8
BRANCH   6  18
ATOM     18  O   UNL     1       1.089   8.910  20.578  0.00  0.00    +0.000 OA
BRANCH  18  19
ATOM     19  C   UNL     1       1.384   7.645  21.206  0.00  0.00    +0.000 C 
BRANCH  19  20
ATOM     20  C   UNL     1       1.985   6.685  20.201  0.00  0.00    +0.000 A 
ATOM     21  C   UNL     1       1.979   5.311  20.476  0.00  0.00    +0.000 A 
ATOM     22  C   UNL     1       2.473   4.391  19.553  0.00  0.00    +0.000 A 
ATOM     23  C   UNL     1       2.978   4.821  18.320  0.00  0.00    +0.000 A 
ATOM     24  C   UNL     1       2.991   6.198  18.041  0.00  0.00    +0.000 A 
ATOM     25  C   UNL     1       2.495   7.122  18.971  0.00  0.00    +0.000 A 
BRANCH  23  26
ATOM     26  C   UNL     1       3.478   3.822  17.306  0.00  0.00    +0.000 C 
ATOM     27  F   UNL     1       4.221   2.816  17.850  0.00  0.00    +0.000 F 
ATOM     28  F   UNL     1       2.463   3.209  16.635  0.00  0.00    +0.000 F 
ATOM     29  F   UNL     1       4.267   4.390  16.352  0.00  0.00    +0.000 F 
ENDBRANCH  23  26
ENDBRANCH  19  20
ENDBRANCH  18  19
ENDBRANCH   6  18
TORSDOF 7
ENDMDL
MODEL 7
REMARK VINA RESULT:      -7.8      5.212      8.690
REMARK  Name = 
REMARK  8 active torsions:
REMARK  status: ('A' for Active; 'I' for Inactive)
REMARK    1  A    between atoms: C_1  and  O_2
REMARK    2  A    between atoms: O_2  and  N_3
REMARK    3  A    between atoms: C_4  and  C_5
REMARK    4  A    between atoms: C_4  and  C_12
REMARK    5  A    between atoms: C_17  and  O_18
REMARK    6  A    between atoms: O_18  and  C_19
REMARK    7  A    between atoms: C_19  and  C_20
REMARK    8  A    between atoms: C_23  and  C_24
REMARK                            x       y       z     vdW  Elec       q    Type
REMARK                         _______ _______ _______ _____ _____    ______ ____
ROOT
ATOM      1  C   UNL     1       5.961   5.372  17.531  0.00  0.00    +0.000 A 
ATOM      2  C   UNL     1       7.288   5.289  18.007  0.00  0.00    +0.000 A 
ATOM      3  C   UNL     1       8.080   6.424  18.174  0.00  0.00    +0.000 A 
ATOM      4  C   UNL     1       7.552   7.675  17.901  0.00  0.00    +0.000 A 
ATOM      5  C   UNL     1       6.230   7.791  17.486  0.00  0.00    +0.000 A 
ATOM      6  C   UNL     1       5.410   6.657  17.332  0.00  0.00    +0.000 A 
ENDROOT
BRANCH   1   8
ATOM      7  N   UNL     1       5.463   3.306  16.159  0.00  0.00    +0.000 NA
ATOM      8  C   UNL     1       5.281   4.046  17.217  0.00  0.00    +0.000 C 
BRANCH   8   9
ATOM      9  C   UNL     1       4.207   3.562  18.181  0.00  0.00    +0.000 A 
ATOM     10  C   UNL     1       4.519   3.021  19.438  0.00  0.00    +0.000 A 
ATOM     11  C   UNL     1       3.508   2.785  20.380  0.00  0.00    +0.000 A 
ATOM     12  C   UNL     1       2.177   3.037  20.053  0.00  0.00    +0.000 A 
ATOM     13 CL   UNL     1       0.945   2.790  21.230  0.00  0.00    +0.000 Cl
ATOM     14  C   UNL     1       1.844   3.508  18.785  0.00  0.00    +0.000 A 
ATOM     15  C   UNL     1       2.854   3.770  17.850  0.00  0.00    +0.000 A 
ENDBRANCH   8   9
BRANCH   7  17
ATOM     16  C   UNL     1       5.578   4.027  13.989  0.00  0.00    +0.000 C 
ATOM     17  O   UNL     1       6.300   3.889  15.207  0.00  0.00    +0.000 OA
ENDBRANCH   7  17
ENDBRANCH   1   8
BRANCH   6  18
ATOM     18  O   UNL     1       4.115   6.808  16.911  0.00  0.00    +0.000 OA
BRANCH  18  19
ATOM     19  C   UNL     1       3.590   8.151  16.912  0.00  0.00    +0.000 C 
BRANCH  19  20
ATOM     20  C   UNL     1       2.632   8.341  18.070  0.00  0.00    +0.000 A 
ATOM     21  C   UNL     1       2.599   7.389  19.097  0.00  0.00    +0.000 A 
ATOM     22  C   UNL     1       1.772   7.557  20.206  0.00  0.00    +0.000 A 
ATOM     23  C   UNL     1       0.960   8.691  20.323  0.00  0.00    +0.000 A 
ATOM     24  C   UNL     1       0.985   9.646  19.294  0.00  0.00    +0.000 A 
ATOM     25  C   UNL     1       1.816   9.476  18.178  0.00  0.00    +0.000 A 
BRANCH  23  26
ATOM     26  C   UNL     1       0.092   8.890  21.541  0.00  0.00    +0.000 C 
ATOM     27  F   UNL     1      -0.855   7.922  21.703  0.00  0.00    +0.000 F 
ATOM     28  F   UNL     1       0.812   8.896  22.698  0.00  0.00    +0.000 F 
ATOM     29  F   UNL     1      -0.586  10.070  21.517  0.00  0.00    +0.000 F 
ENDBRANCH  23  26
ENDBRANCH  19  20
ENDBRANCH  18  19
ENDBRANCH   6  18
TORSDOF 7
ENDMDL
MODEL 8
REMARK VINA RESULT:      -7.7      0.518      1.046
REMARK  Name = 
REMARK  8 active torsions:
REMARK  status: ('A' for Active; 'I' for Inactive)
REMARK    1  A    between atoms: C_1  and  O_2
REMARK    2  A    between atoms: O_2  and  N_3
REMARK    3  A    between atoms: C_4  and  C_5
REMARK    4  A    between atoms: C_4  and  C_12
REMARK    5  A    between atoms: C_17  and  O_18
REMARK    6  A    between atoms: O_18  and  C_19
REMARK    7  A    between atoms: C_19  and  C_20
REMARK    8  A    between atoms: C_23  and  C_24
REMARK                            x       y       z     vdW  Elec       q    Type
REMARK                         _______ _______ _______ _____ _____    ______ ____
ROOT
ATOM      1  C   UNL     1      -0.242  11.023  20.571  0.00  0.00    +0.000 A 
ATOM      2  C   UNL     1      -0.739  11.687  21.714  0.00  0.00    +0.000 A 
ATOM      3  C   UNL     1      -0.917  11.025  22.928  0.00  0.00    +0.000 A 
ATOM      4  C   UNL     1      -0.567   9.688  23.038  0.00  0.00    +0.000 A 
ATOM      5  C   UNL     1      -0.021   9.026  21.945  0.00  0.00    +0.000 A 
ATOM      6  C   UNL     1       0.184   9.685  20.717  0.00  0.00    +0.000 A 
ENDROOT
BRANCH   1   8
ATOM      7  N   UNL     1      -1.129  11.669  18.292  0.00  0.00    +0.000 NA
ATOM      8  C   UNL     1      -0.280  11.815  19.271  0.00  0.00    +0.000 C 
BRANCH   8   9
ATOM      9  C   UNL     1       0.835  12.824  19.030  0.00  0.00    +0.000 A 
ATOM     10  C   UNL     1       2.088  12.446  18.525  0.00  0.00    +0.000 A 
ATOM     11  C   UNL     1       3.012  13.419  18.116  0.00  0.00    +0.000 A 
ATOM     12  C   UNL     1       2.709  14.772  18.260  0.00  0.00    +0.000 A 
ATOM     13 CL   UNL     1       3.828  15.961  17.713  0.00  0.00    +0.000 Cl
ATOM     14  C   UNL     1       1.498  15.163  18.826  0.00  0.00    +0.000 A 
ATOM     15  C   UNL     1       0.562  14.193  19.210  0.00  0.00    +0.000 A 
ENDBRANCH   8   9
BRANCH   7  17
ATOM     16  C   UNL     1      -2.143   9.917  17.225  0.00  0.00    +0.000 C 
ATOM     17  O   UNL     1      -2.004  10.597  18.466  0.00  0.00    +0.000 OA
ENDBRANCH   7  17
ENDBRANCH   1   8
BRANCH   6  18
ATOM     18  O   UNL     1       0.714   8.997  19.658  0.00  0.00    +0.000 OA
BRANCH  18  19
ATOM     19  C   UNL     1       2.027   8.433  19.848  0.00  0.00    +0.000 C 
BRANCH  19  20
ATOM     20  C   UNL     1       1.985   6.929  19.674  0.00  0.00    +0.000 A 
ATOM     21  C   UNL     1       1.595   6.124  20.753  0.00  0.00    +0.000 A 
ATOM     22  C   UNL     1       1.492   4.741  20.616  0.00  0.00    +0.000 A 
ATOM     23  C   UNL     1       1.765   4.125  19.389  0.00  0.00    +0.000 A 
ATOM     24  C   UNL     1       2.160   4.926  18.306  0.00  0.00    +0.000 A 
ATOM     25  C   UNL     1       2.266   6.317  18.445  0.00  0.00    +0.000 A 
BRANCH  23  26
ATOM     26  C   UNL     1       1.616   2.631  19.232  0.00  0.00    +0.000 C 
ATOM     27  F   UNL     1       2.726   2.021  18.727  0.00  0.00    +0.000 F 
ATOM     28  F   UNL     1       1.358   2.006  20.415  0.00  0.00    +0.000 F 
ATOM     29  F   UNL     1       0.594   2.289  18.398  0.00  0.00    +0.000 F 
ENDBRANCH  23  26
ENDBRANCH  19  20
ENDBRANCH  18  19
ENDBRANCH   6  18
TORSDOF 7
ENDMDL
MODEL 9
REMARK VINA RESULT:      -7.7      5.209      8.723
REMARK  Name = 
REMARK  8 active torsions:
REMARK  status: ('A' for Active; 'I' for Inactive)
REMARK    1  A    between atoms: C_1  and  O_2
REMARK    2  A    between atoms: O_2  and  N_3
REMARK    3  A    between atoms: C_4  and  C_5
REMARK    4  A    between atoms: C_4  and  C_12
REMARK    5  A    between atoms: C_17  and  O_18
REMARK    6  A    between atoms: O_18  and  C_19
REMARK    7  A    between atoms: C_19  and  C_20
REMARK    8  A    between atoms: C_23  and  C_24
REMARK                            x       y       z     vdW  Elec       q    Type
REMARK                         _______ _______ _______ _____ _____    ______ ____
ROOT
ATOM      1  C   UNL     1       5.954   5.371  17.482  0.00  0.00    +0.000 A 
ATOM      2  C   UNL     1       7.279   5.308  17.965  0.00  0.00    +0.000 A 
ATOM      3  C   UNL     1       8.059   6.453  18.120  0.00  0.00    +0.000 A 
ATOM      4  C   UNL     1       7.519   7.695  17.828  0.00  0.00    +0.000 A 
ATOM      5  C   UNL     1       6.198   7.791  17.406  0.00  0.00    +0.000 A 
ATOM      6  C   UNL     1       5.390   6.647  17.263  0.00  0.00    +0.000 A 
ENDROOT
BRANCH   1   8
ATOM      7  N   UNL     1       5.480   3.284  16.133  0.00  0.00    +0.000 NA
ATOM      8  C   UNL     1       5.289   4.034  17.182  0.00  0.00    +0.000 C 
BRANCH   8   9
ATOM      9  C   UNL     1       4.220   3.548  18.152  0.00  0.00    +0.000 A 
ATOM     10  C   UNL     1       4.535   3.062  19.430  0.00  0.00    +0.000 A 
ATOM     11  C   UNL     1       3.521   2.826  20.370  0.00  0.00    +0.000 A 
ATOM     12  C   UNL     1       2.187   3.022  20.020  0.00  0.00    +0.000 A 
ATOM     13 CL   UNL     1       0.950   2.775  21.191  0.00  0.00    +0.000 Cl
ATOM     14  C   UNL     1       1.853   3.437  18.732  0.00  0.00    +0.000 A 
ATOM     15  C   UNL     1       2.866   3.700  17.799  0.00  0.00    +0.000 A 
ENDBRANCH   8   9
BRANCH   7  17
ATOM     16  C   UNL     1       5.584   3.992  13.959  0.00  0.00    +0.000 C 
ATOM     17  O   UNL     1       6.311   3.865  15.175  0.00  0.00    +0.000 OA
ENDBRANCH   7  17
ENDBRANCH   1   8
BRANCH   6  18
ATOM     18  O   UNL     1       4.096   6.778  16.834  0.00  0.00    +0.000 OA
BRANCH  18  19
ATOM     19  C   UNL     1       3.540   8.108  16.863  0.00  0.00    +0.000 C 
BRANCH  19  20
ATOM     20  C   UNL     1       2.694   8.299  18.105  0.00  0.00    +0.000 A 
ATOM     21  C   UNL     1       1.944   9.474  18.251  0.00  0.00    +0.000 A 
ATOM     22  C   UNL     1       1.111   9.662  19.353  0.00  0.00    +0.000 A 
ATOM     23  C   UNL     1       0.997   8.672  20.336  0.00  0.00    +0.000 A 
ATOM     24  C   UNL     1       1.749   7.494  20.197  0.00  0.00    +0.000 A 
ATOM     25  C   UNL     1       2.589   7.307  19.090  0.00  0.00    +0.000 A 
BRANCH  23  26
ATOM     26  C   UNL     1       0.066   8.861  21.509  0.00  0.00    +0.000 C 
ATOM     27  F   UNL     1      -0.661  10.013  21.451  0.00  0.00    +0.000 F 
ATOM     28  F   UNL     1      -0.846   7.854  21.617  0.00  0.00    +0.000 F 
ATOM     29  F   UNL     1       0.724   8.898  22.701  0.00  0.00    +0.000 F 
ENDBRANCH  23  26
ENDBRANCH  19  20
ENDBRANCH  18  19
ENDBRANCH   6  18
TORSDOF 7
ENDMDL
