MODEL 1
REMARK VINA RESULT:      -7.7      0.000      0.000
REMARK  Name = 
REMARK  10 active torsions:
REMARK  status: ('A' for Active; 'I' for Inactive)
REMARK    1  A    between atoms: C_1  and  C_2
REMARK    2  A    between atoms: C_2  and  C_3
REMARK    3  A    between atoms: C_6  and  C_7
REMARK    4  A    between atoms: C_7  and  C_8
REMARK    5  A    between atoms: C_7  and  N_9
REMARK    6  A    between atoms: N_9  and  C_10
REMARK    7  A    between atoms: N_9  and  C_11
REMARK    8  A    between atoms: C_11  and  C_12
REMARK    9  A    between atoms: N_14  and  C_15
REMARK   10  A    between atoms: C_18  and  C_19
REMARK                            x       y       z     vdW  Elec       q    Type
REMARK                         _______ _______ _______ _____ _____    ______ ____
ROOT
ATOM      1  C   UNL     1       4.457   5.609  17.061  0.00  0.00    +0.000 C 
ENDROOT
BRANCH   1   2
ATOM      2  C   UNL     1       3.215   6.183  17.753  0.00  0.00    +0.000 C 
ATOM      3  O   UNL     1       2.246   5.470  18.013  0.00  0.00    +0.000 OA
ATOM      4  N   UNL     1       3.280   7.548  18.000  0.00  0.00    +0.000 N 
ATOM      5  H   UNL     1       3.923   8.083  17.430  0.00  0.00    +0.000 HD
BRANCH   4   6
ATOM      6  C   UNL     1       2.212   8.257  18.591  0.00  0.00    +0.000 A 
ATOM      7  C   UNL     1       1.468   9.198  17.874  0.00  0.00    +0.000 A 
ATOM      8  C   UNL     1       0.488   9.961  18.516  0.00  0.00    +0.000 A 
ATOM      9  C   UNL     1       0.256   9.802  19.884  0.00  0.00    +0.000 A 
ATOM     10  C   UNL     1      -0.698  10.701  20.611  0.00  0.00    +0.000 C 
ATOM     11  C   UNL     1       0.972   8.821  20.587  0.00  0.00    +0.000 A 
ATOM     12  C   UNL     1       1.925   8.030  19.934  0.00  0.00    +0.000 A 
ENDBRANCH   4   6
ENDBRANCH   1   2
BRANCH   1  13
ATOM     13  N   UNL     1       5.250   4.675  17.898  0.00  0.00    +0.000 NA
ATOM     14  C   UNL     1       5.205   5.053  19.309  0.00  0.00    +0.000 C 
BRANCH  13  15
ATOM     15  C   UNL     1       6.656   4.459  17.430  0.00  0.00    +0.000 C 
ATOM     16  C   UNL     1       7.674   5.446  18.034  0.00  0.00    +0.000 C 
BRANCH  15  20
ATOM     17  C   UNL     1       6.811   4.344  13.849  0.00  0.00    +0.000 A 
ATOM     18  N   UNL     1       7.628   5.388  14.050  0.00  0.00    +0.000 NA
ATOM     19  O   UNL     1       7.615   5.540  15.438  0.00  0.00    +0.000 OA
ATOM     20  C   UNL     1       6.791   4.565  15.930  0.00  0.00    +0.000 A 
ATOM     21  N   UNL     1       6.254   3.816  14.986  0.00  0.00    +0.000 NA
BRANCH  17  23
ATOM     22  C   UNL     1       5.093   3.443  12.291  0.00  0.00    +0.000 C 
ATOM     23  C   UNL     1       6.561   3.776  12.503  0.00  0.00    +0.000 C 
ENDBRANCH  17  23
ENDBRANCH  15  20
ENDBRANCH  13  15
ENDBRANCH   1  13
TORSDOF 6
ENDMDL
MODEL 2
REMARK VINA RESULT:      -7.4      1.274      1.713
REMARK  Name = 
REMARK  10 active torsions:
REMARK  status: ('A' for Active; 'I' for Inactive)
REMARK    1  A    between atoms: C_1  and  C_2
REMARK    2  A    between atoms: C_2  and  C_3
REMARK    3  A    between atoms: C_6  and  C_7
REMARK    4  A    between atoms: C_7  and  C_8
REMARK    5  A    between atoms: C_7  and  N_9
REMARK    6  A    between atoms: N_9  and  C_10
REMARK    7  A    between atoms: N_9  and  C_11
REMARK    8  A    between atoms: C_11  and  C_12
REMARK    9  A    between atoms: N_14  and  C_15
REMARK   10  A    between atoms: C_18  and  C_19
REMARK                            x       y       z     vdW  Elec       q    Type
REMARK                         _______ _______ _______ _____ _____    ______ ____
ROOT
ATOM      1  C   UNL     1       3.691   4.288  19.414  0.00  0.00    +0.000 C 
ENDROOT
BRANCH   1   2
ATOM      2  C   UNL     1       2.608   5.364  19.273  0.00  0.00    +0.000 C 
ATOM      3  O   UNL     1       1.480   5.081  18.872  0.00  0.00    +0.000 OA
ATOM      4  N   UNL     1       3.037   6.647  19.588  0.00  0.00    +0.000 N 
ATOM      5  H   UNL     1       4.033   6.819  19.537  0.00  0.00    +0.000 HD
BRANCH   4   6
ATOM      6  C   UNL     1       2.191   7.771  19.475  0.00  0.00    +0.000 A 
ATOM      7  C   UNL     1       1.446   8.243  20.559  0.00  0.00    +0.000 A 
ATOM      8  C   UNL     1       0.536   9.291  20.388  0.00  0.00    +0.000 A 
ATOM      9  C   UNL     1       0.351   9.864  19.128  0.00  0.00    +0.000 A 
ATOM     10  C   UNL     1      -0.712  10.897  18.902  0.00  0.00    +0.000 C 
ATOM     11  C   UNL     1       1.137   9.418  18.054  0.00  0.00    +0.000 A 
ATOM     12  C   UNL     1       2.076   8.396  18.236  0.00  0.00    +0.000 A 
ENDBRANCH   4   6
ENDBRANCH   1   2
BRANCH   1  13
ATOM     13  N   UNL     1       4.321   3.879  18.133  0.00  0.00    +0.000 NA
ATOM     14  C   UNL     1       3.962   2.508  17.777  0.00  0.00    +0.000 C 
BRANCH  13  15
ATOM     15  C   UNL     1       5.801   4.095  18.070  0.00  0.00    +0.000 C 
ATOM     16  C   UNL     1       6.309   5.216  18.997  0.00  0.00    +0.000 C 
BRANCH  15  20
ATOM     17  C   UNL     1       6.732   4.585  14.641  0.00  0.00    +0.000 A 
ATOM     18  N   UNL     1       7.615   5.418  15.208  0.00  0.00    +0.000 NA
ATOM     19  O   UNL     1       7.314   5.324  16.569  0.00  0.00    +0.000 OA
ATOM     20  C   UNL     1       6.279   4.437  16.680  0.00  0.00    +0.000 A 
ATOM     21  N   UNL     1       5.871   3.970  15.515  0.00  0.00    +0.000 NA
BRANCH  17  23
ATOM     22  C   UNL     1       5.541   3.431  12.786  0.00  0.00    +0.000 C 
ATOM     23  C   UNL     1       6.713   4.313  13.184  0.00  0.00    +0.000 C 
ENDBRANCH  17  23
ENDBRANCH  15  20
ENDBRANCH  13  15
ENDBRANCH   1  13
TORSDOF 6
ENDMDL
MODEL 3
REMARK VINA RESULT:      -7.4      2.646      3.787
REMARK  Name = 
REMARK  10 active torsions:
REMARK  status: ('A' for Active; 'I' for Inactive)
REMARK    1  A    between atoms: C_1  and  C_2
REMARK    2  A    between atoms: C_2  and  C_3
REMARK    3  A    between atoms: C_6  and  C_7
REMARK    4  A    between atoms: C_7  and  C_8
REMARK    5  A    between atoms: C_7  and  N_9
REMARK    6  A    between atoms: N_9  and  C_10
REMARK    7  A    between atoms: N_9  and  C_11
REMARK    8  A    between atoms: C_11  and  C_12
REMARK    9  A    between atoms: N_14  and  C_15
REMARK   10  A    between atoms: C_18  and  C_19
REMARK                            x       y       z     vdW  Elec       q    Type
REMARK                         _______ _______ _______ _____ _____    ______ ____
ROOT
ATOM      1  C   UNL     1       2.684   3.501  21.138  0.00  0.00    +0.000 C 
ENDROOT
BRANCH   1   2
ATOM      2  C   UNL     1       1.893   4.729  20.671  0.00  0.00    +0.000 C 
ATOM      3  O   UNL     1       0.682   4.664  20.466  0.00  0.00    +0.000 OA
ATOM      4  N   UNL     1       2.669   5.863  20.468  0.00  0.00    +0.000 N 
ATOM      5  H   UNL     1       3.656   5.714  20.302  0.00  0.00    +0.000 HD
BRANCH   4   6
ATOM      6  C   UNL     1       2.121   7.075  19.997  0.00  0.00    +0.000 A 
ATOM      7  C   UNL     1       2.320   7.513  18.685  0.00  0.00    +0.000 A 
ATOM      8  C   UNL     1       1.855   8.768  18.281  0.00  0.00    +0.000 A 
ATOM      9  C   UNL     1       1.203   9.604  19.191  0.00  0.00    +0.000 A 
ATOM     10  C   UNL     1       0.815  11.000  18.810  0.00  0.00    +0.000 C 
ATOM     11  C   UNL     1       0.963   9.138  20.493  0.00  0.00    +0.000 A 
ATOM     12  C   UNL     1       1.394   7.865  20.884  0.00  0.00    +0.000 A 
ENDBRANCH   4   6
ENDBRANCH   1   2
BRANCH   1  13
ATOM     13  N   UNL     1       3.168   2.629  20.039  0.00  0.00    +0.000 NA
ATOM     14  C   UNL     1       4.532   2.168  20.285  0.00  0.00    +0.000 C 
BRANCH  13  15
ATOM     15  C   UNL     1       3.022   3.214  18.668  0.00  0.00    +0.000 C 
ATOM     16  C   UNL     1       2.613   2.191  17.592  0.00  0.00    +0.000 C 
BRANCH  15  20
ATOM     17  C   UNL     1       5.956   5.070  17.770  0.00  0.00    +0.000 A 
ATOM     18  N   UNL     1       5.937   4.216  16.737  0.00  0.00    +0.000 NA
ATOM     19  O   UNL     1       4.827   3.412  17.009  0.00  0.00    +0.000 OA
ATOM     20  C   UNL     1       4.290   3.871  18.180  0.00  0.00    +0.000 A 
ATOM     21  N   UNL     1       4.965   4.880  18.699  0.00  0.00    +0.000 NA
BRANCH  17  23
ATOM     22  C   UNL     1       7.917   5.942  19.029  0.00  0.00    +0.000 C 
ATOM     23  C   UNL     1       6.948   6.166  17.880  0.00  0.00    +0.000 C 
ENDBRANCH  17  23
ENDBRANCH  15  20
ENDBRANCH  13  15
ENDBRANCH   1  13
TORSDOF 6
ENDMDL
MODEL 4
REMARK VINA RESULT:      -7.2      0.974      1.144
REMARK  Name = 
REMARK  10 active torsions:
REMARK  status: ('A' for Active; 'I' for Inactive)
REMARK    1  A    between atoms: C_1  and  C_2
REMARK    2  A    between atoms: C_2  and  C_3
REMARK    3  A    between atoms: C_6  and  C_7
REMARK    4  A    between atoms: C_7  and  C_8
REMARK    5  A    between atoms: C_7  and  N_9
REMARK    6  A    between atoms: N_9  and  C_10
REMARK    7  A    between atoms: N_9  and  C_11
REMARK    8  A    between atoms: C_11  and  C_12
REMARK    9  A    between atoms: N_14  and  C_15
REMARK   10  A    between atoms: C_18  and  C_19
REMARK                            x       y       z     vdW  Elec       q    Type
REMARK                         _______ _______ _______ _____ _____    ______ ____
ROOT
ATOM      1  C   UNL     1       4.673   5.336  18.691  0.00  0.00    +0.000 C 
ENDROOT
BRANCH   1   2
ATOM      2  C   UNL     1       3.640   6.464  18.593  0.00  0.00    +0.000 C 
ATOM      3  O   UNL     1       3.516   7.124  17.561  0.00  0.00    +0.000 OA
ATOM      4  N   UNL     1       2.923   6.684  19.762  0.00  0.00    +0.000 N 
ATOM      5  H   UNL     1       3.348   6.362  20.622  0.00  0.00    +0.000 HD
BRANCH   4   6
ATOM      6  C   UNL     1       1.960   7.709  19.873  0.00  0.00    +0.000 A 
ATOM      7  C   UNL     1       1.730   8.618  18.837  0.00  0.00    +0.000 A 
ATOM      8  C   UNL     1       0.847   9.687  19.017  0.00  0.00    +0.000 A 
ATOM      9  C   UNL     1       0.200   9.866  20.242  0.00  0.00    +0.000 A 
ATOM     10  C   UNL     1      -0.646  11.077  20.494  0.00  0.00    +0.000 C 
ATOM     11  C   UNL     1       0.399   8.922  21.262  0.00  0.00    +0.000 A 
ATOM     12  C   UNL     1       1.252   7.831  21.065  0.00  0.00    +0.000 A 
ENDBRANCH   4   6
ENDBRANCH   1   2
BRANCH   1  13
ATOM     13  N   UNL     1       4.899   4.597  17.423  0.00  0.00    +0.000 NA
ATOM     14  C   UNL     1       4.103   3.373  17.370  0.00  0.00    +0.000 C 
BRANCH  13  15
ATOM     15  C   UNL     1       6.338   4.333  17.104  0.00  0.00    +0.000 C 
ATOM     16  C   UNL     1       7.324   5.231  17.875  0.00  0.00    +0.000 C 
BRANCH  15  20
ATOM     17  C   UNL     1       6.938   4.383  13.568  0.00  0.00    +0.000 A 
ATOM     18  N   UNL     1       7.660   5.460  13.908  0.00  0.00    +0.000 NA
ATOM     19  O   UNL     1       7.468   5.550  15.289  0.00  0.00    +0.000 OA
ATOM     20  C   UNL     1       6.649   4.511  15.638  0.00  0.00    +0.000 A 
ATOM     21  N   UNL     1       6.278   3.776  14.607  0.00  0.00    +0.000 NA
BRANCH  17  23
ATOM     22  C   UNL     1       5.669   2.984  11.948  0.00  0.00    +0.000 C 
ATOM     23  C   UNL     1       6.888   3.861  12.182  0.00  0.00    +0.000 C 
ENDBRANCH  17  23
ENDBRANCH  15  20
ENDBRANCH  13  15
ENDBRANCH   1  13
TORSDOF 6
ENDMDL
MODEL 5
REMARK VINA RESULT:      -7.1      0.349      1.084
REMARK  Name = 
REMARK  10 active torsions:
REMARK  status: ('A' for Active; 'I' for Inactive)
REMARK    1  A    between atoms: C_1  and  C_2
REMARK    2  A    between atoms: C_2  and  C_3
REMARK    3  A    between atoms: C_6  and  C_7
REMARK    4  A    between atoms: C_7  and  C_8
REMARK    5  A    between atoms: C_7  and  N_9
REMARK    6  A    between atoms: N_9  and  C_10
REMARK    7  A    between atoms: N_9  and  C_11
REMARK    8  A    between atoms: C_11  and  C_12
REMARK    9  A    between atoms: N_14  and  C_15
REMARK   10  A    between atoms: C_18  and  C_19
REMARK                            x       y       z     vdW  Elec       q    Type
REMARK                         _______ _______ _______ _____ _____    ______ ____
ROOT
ATOM      1  C   UNL     1       4.456   5.547  16.909  0.00  0.00    +0.000 C 
ENDROOT
BRANCH   1   2
ATOM      2  C   UNL     1       3.273   6.193  17.641  0.00  0.00    +0.000 C 
ATOM      3  O   UNL     1       2.266   5.543  17.917  0.00  0.00    +0.000 OA
ATOM      4  N   UNL     1       3.436   7.547  17.902  0.00  0.00    +0.000 N 
ATOM      5  H   UNL     1       4.099   8.045  17.321  0.00  0.00    +0.000 HD
BRANCH   4   6
ATOM      6  C   UNL     1       2.434   8.318  18.528  0.00  0.00    +0.000 A 
ATOM      7  C   UNL     1       2.052   8.093  19.853  0.00  0.00    +0.000 A 
ATOM      8  C   UNL     1       0.983   8.801  20.410  0.00  0.00    +0.000 A 
ATOM      9  C   UNL     1       0.274   9.727  19.641  0.00  0.00    +0.000 A 
ATOM     10  C   UNL     1      -0.952  10.396  20.182  0.00  0.00    +0.000 C 
ATOM     11  C   UNL     1       0.694   9.983  18.327  0.00  0.00    +0.000 A 
ATOM     12  C   UNL     1       1.789   9.303  17.784  0.00  0.00    +0.000 A 
ENDBRANCH   4   6
ENDBRANCH   1   2
BRANCH   1  13
ATOM     13  N   UNL     1       5.151   4.487  17.682  0.00  0.00    +0.000 NA
ATOM     14  C   UNL     1       5.087   4.745  19.118  0.00  0.00    +0.000 C 
BRANCH  13  15
ATOM     15  C   UNL     1       6.552   4.206  17.233  0.00  0.00    +0.000 C 
ATOM     16  C   UNL     1       7.623   5.023  17.981  0.00  0.00    +0.000 C 
BRANCH  15  20
ATOM     17  C   UNL     1       6.853   4.491  13.671  0.00  0.00    +0.000 A 
ATOM     18  N   UNL     1       7.709   5.461  14.021  0.00  0.00    +0.000 NA
ATOM     19  O   UNL     1       7.644   5.455  15.416  0.00  0.00    +0.000 OA
ATOM     20  C   UNL     1       6.755   4.474  15.762  0.00  0.00    +0.000 A 
ATOM     21  N   UNL     1       6.225   3.866  14.718  0.00  0.00    +0.000 NA
BRANCH  17  23
ATOM     22  C   UNL     1       5.832   2.806  12.151  0.00  0.00    +0.000 C 
ATOM     23  C   UNL     1       6.634   4.092  12.260  0.00  0.00    +0.000 C 
ENDBRANCH  17  23
ENDBRANCH  15  20
ENDBRANCH  13  15
ENDBRANCH   1  13
TORSDOF 6
ENDMDL
MODEL 6
REMARK VINA RESULT:      -7.1      0.789      1.114
REMARK  Name = 
REMARK  10 active torsions:
REMARK  status: ('A' for Active; 'I' for Inactive)
REMARK    1  A    between atoms: C_1  and  C_2
REMARK    2  A    between atoms: C_2  and  C_3
REMARK    3  A    between atoms: C_6  and  C_7
REMARK    4  A    between atoms: C_7  and  C_8
REMARK    5  A    between atoms: C_7  and  N_9
REMARK    6  A    between atoms: N_9  and  C_10
REMARK    7  A    between atoms: N_9  and  C_11
REMARK    8  A    between atoms: C_11  and  C_12
REMARK    9  A    between atoms: N_14  and  C_15
REMARK   10  A    between atoms: C_18  and  C_19
REMARK                            x       y       z     vdW  Elec       q    Type
REMARK                         _______ _______ _______ _____ _____    ______ ____
ROOT
ATOM      1  C   UNL     1       4.164   4.985  18.686  0.00  0.00    +0.000 C 
ENDROOT
BRANCH   1   2
ATOM      2  C   UNL     1       2.920   5.882  18.714  0.00  0.00    +0.000 C 
ATOM      3  O   UNL     1       1.971   5.676  17.958  0.00  0.00    +0.000 OA
ATOM      4  N   UNL     1       2.999   6.937  19.614  0.00  0.00    +0.000 N 
ATOM      5  H   UNL     1       3.928   7.227  19.893  0.00  0.00    +0.000 HD
BRANCH   4   6
ATOM      6  C   UNL     1       1.968   7.891  19.747  0.00  0.00    +0.000 A 
ATOM      7  C   UNL     1       1.706   8.836  18.751  0.00  0.00    +0.000 A 
ATOM      8  C   UNL     1       0.750   9.834  18.959  0.00  0.00    +0.000 A 
ATOM      9  C   UNL     1       0.060   9.908  20.171  0.00  0.00    +0.000 A 
ATOM     10  C   UNL     1      -0.871  11.046  20.458  0.00  0.00    +0.000 C 
ATOM     11  C   UNL     1       0.293   8.927  21.148  0.00  0.00    +0.000 A 
ATOM     12  C   UNL     1       1.222   7.905  20.922  0.00  0.00    +0.000 A 
ENDBRANCH   4   6
ENDBRANCH   1   2
BRANCH   1  13
ATOM     13  N   UNL     1       5.369   5.625  18.102  0.00  0.00    +0.000 NA
ATOM     14  C   UNL     1       5.010   6.606  17.080  0.00  0.00    +0.000 C 
BRANCH  13  15
ATOM     15  C   UNL     1       6.404   4.664  17.604  0.00  0.00    +0.000 C 
ATOM     16  C   UNL     1       7.827   4.958  18.116  0.00  0.00    +0.000 C 
BRANCH  15  20
ATOM     17  C   UNL     1       6.386   4.241  14.042  0.00  0.00    +0.000 A 
ATOM     18  N   UNL     1       7.345   5.174  14.127  0.00  0.00    +0.000 NA
ATOM     19  O   UNL     1       7.413   5.437  15.497  0.00  0.00    +0.000 OA
ATOM     20  C   UNL     1       6.487   4.629  16.097  0.00  0.00    +0.000 A 
ATOM     21  N   UNL     1       5.813   3.888  15.238  0.00  0.00    +0.000 NA
BRANCH  17  23
ATOM     22  C   UNL     1       7.180   3.496  11.805  0.00  0.00    +0.000 C 
ATOM     23  C   UNL     1       6.003   3.606  12.759  0.00  0.00    +0.000 C 
ENDBRANCH  17  23
ENDBRANCH  15  20
ENDBRANCH  13  15
ENDBRANCH   1  13
TORSDOF 6
ENDMDL
MODEL 7
REMARK VINA RESULT:      -7.1      1.339      1.508
REMARK  Name = 
REMARK  10 active torsions:
REMARK  status: ('A' for Active; 'I' for Inactive)
REMARK    1  A    between atoms: C_1  and  C_2
REMARK    2  A    between atoms: C_2  and  C_3
REMARK    3  A    between atoms: C_6  and  C_7
REMARK    4  A    between atoms: C_7  and  C_8
REMARK    5  A    between atoms: C_7  and  N_9
REMARK    6  A    between atoms: N_9  and  C_10
REMARK    7  A    between atoms: N_9  and  C_11
REMARK    8  A    between atoms: C_11  and  C_12
REMARK    9  A    between atoms: N_14  and  C_15
REMARK   10  A    between atoms: C_18  and  C_19
REMARK                            x       y       z     vdW  Elec       q    Type
REMARK                         _______ _______ _______ _____ _____    ______ ____
ROOT
ATOM      1  C   UNL     1       3.771   4.401  19.644  0.00  0.00    +0.000 C 
ENDROOT
BRANCH   1   2
ATOM      2  C   UNL     1       2.734   5.515  19.835  0.00  0.00    +0.000 C 
ATOM      3  O   UNL     1       1.753   5.352  20.560  0.00  0.00    +0.000 OA
ATOM      4  N   UNL     1       2.988   6.662  19.095  0.00  0.00    +0.000 N 
ATOM      5  H   UNL     1       3.578   6.556  18.279  0.00  0.00    +0.000 HD
BRANCH   4   6
ATOM      6  C   UNL     1       2.120   7.775  19.110  0.00  0.00    +0.000 A 
ATOM      7  C   UNL     1       1.780   8.460  17.941  0.00  0.00    +0.000 A 
ATOM      8  C   UNL     1       1.004   9.621  18.003  0.00  0.00    +0.000 A 
ATOM      9  C   UNL     1       0.578  10.119  19.237  0.00  0.00    +0.000 A 
ATOM     10  C   UNL     1      -0.140  11.431  19.329  0.00  0.00    +0.000 C 
ATOM     11  C   UNL     1       0.883   9.400  20.403  0.00  0.00    +0.000 A 
ATOM     12  C   UNL     1       1.625   8.215  20.335  0.00  0.00    +0.000 A 
ENDBRANCH   4   6
ENDBRANCH   1   2
BRANCH   1  13
ATOM     13  N   UNL     1       4.299   4.285  18.262  0.00  0.00    +0.000 NA
ATOM     14  C   UNL     1       3.706   3.150  17.558  0.00  0.00    +0.000 C 
BRANCH  13  15
ATOM     15  C   UNL     1       5.793   4.274  18.166  0.00  0.00    +0.000 C 
ATOM     16  C   UNL     1       6.490   5.243  19.140  0.00  0.00    +0.000 C 
BRANCH  15  20
ATOM     17  C   UNL     1       6.802   4.759  14.758  0.00  0.00    +0.000 A 
ATOM     18  N   UNL     1       7.580   5.688  15.330  0.00  0.00    +0.000 NA
ATOM     19  O   UNL     1       7.239   5.602  16.682  0.00  0.00    +0.000 OA
ATOM     20  C   UNL     1       6.289   4.623  16.783  0.00  0.00    +0.000 A 
ATOM     21  N   UNL     1       5.971   4.088  15.620  0.00  0.00    +0.000 NA
BRANCH  17  23
ATOM     22  C   UNL     1       5.747   3.512  12.882  0.00  0.00    +0.000 C 
ATOM     23  C   UNL     1       6.864   4.449  13.310  0.00  0.00    +0.000 C 
ENDBRANCH  17  23
ENDBRANCH  15  20
ENDBRANCH  13  15
ENDBRANCH   1  13
TORSDOF 6
ENDMDL
MODEL 8
REMARK VINA RESULT:      -7.1      3.537      4.423
REMARK  Name = 
REMARK  10 active torsions:
REMARK  status: ('A' for Active; 'I' for Inactive)
REMARK    1  A    between atoms: C_1  and  C_2
REMARK    2  A    between atoms: C_2  and  C_3
REMARK    3  A    between atoms: C_6  and  C_7
REMARK    4  A    between atoms: C_7  and  C_8
REMARK    5  A    between atoms: C_7  and  N_9
REMARK    6  A    between atoms: N_9  and  C_10
REMARK    7  A    between atoms: N_9  and  C_11
REMARK    8  A    between atoms: C_11  and  C_12
REMARK    9  A    between atoms: N_14  and  C_15
REMARK   10  A    between atoms: C_18  and  C_19
REMARK                            x       y       z     vdW  Elec       q    Type
REMARK                         _______ _______ _______ _____ _____    ______ ____
ROOT
ATOM      1  C   UNL     1       7.519   4.724  17.525  0.00  0.00    +0.000 C 
ENDROOT
BRANCH   1   2
ATOM      2  C   UNL     1       6.411   4.508  18.563  0.00  0.00    +0.000 C 
ATOM      3  O   UNL     1       6.525   4.933  19.712  0.00  0.00    +0.000 OA
ATOM      4  N   UNL     1       5.332   3.768  18.098  0.00  0.00    +0.000 N 
ATOM      5  H   UNL     1       5.502   3.169  17.300  0.00  0.00    +0.000 HD
BRANCH   4   6
ATOM      6  C   UNL     1       4.238   3.431  18.924  0.00  0.00    +0.000 A 
ATOM      7  C   UNL     1       2.992   4.046  18.782  0.00  0.00    +0.000 A 
ATOM      8  C   UNL     1       1.961   3.769  19.684  0.00  0.00    +0.000 A 
ATOM      9  C   UNL     1       2.173   2.889  20.748  0.00  0.00    +0.000 A 
ATOM     10  C   UNL     1       1.122   2.684  21.796  0.00  0.00    +0.000 C 
ATOM     11  C   UNL     1       3.412   2.239  20.857  0.00  0.00    +0.000 A 
ATOM     12  C   UNL     1       4.430   2.487  19.929  0.00  0.00    +0.000 A 
ENDBRANCH   4   6
ENDBRANCH   1   2
BRANCH   1  13
ATOM     13  N   UNL     1       7.608   6.110  17.002  0.00  0.00    +0.000 NA
ATOM     14  C   UNL     1       7.701   7.085  18.086  0.00  0.00    +0.000 C 
BRANCH  13  15
ATOM     15  C   UNL     1       6.536   6.476  16.022  0.00  0.00    +0.000 C 
ATOM     16  C   UNL     1       5.166   6.755  16.670  0.00  0.00    +0.000 C 
BRANCH  15  20
ATOM     17  C   UNL     1       6.313   4.091  13.353  0.00  0.00    +0.000 A 
ATOM     18  N   UNL     1       5.120   3.865  13.921  0.00  0.00    +0.000 NA
ATOM     19  O   UNL     1       5.116   4.739  15.011  0.00  0.00    +0.000 OA
ATOM     20  C   UNL     1       6.310   5.406  14.982  0.00  0.00    +0.000 A 
ATOM     21  N   UNL     1       7.092   5.024  13.989  0.00  0.00    +0.000 NA
BRANCH  17  23
ATOM     22  C   UNL     1       5.752   2.350  11.665  0.00  0.00    +0.000 C 
ATOM     23  C   UNL     1       6.743   3.415  12.105  0.00  0.00    +0.000 C 
ENDBRANCH  17  23
ENDBRANCH  15  20
ENDBRANCH  13  15
ENDBRANCH   1  13
TORSDOF 6
ENDMDL
MODEL 9
REMARK VINA RESULT:      -7.1      0.944      1.026
REMARK  Name = 
REMARK  10 active torsions:
REMARK  status: ('A' for Active; 'I' for Inactive)
REMARK    1  A    between atoms: C_1  and  C_2
REMARK    2  A    between atoms: C_2  and  C_3
REMARK    3  A    between atoms: C_6  and  C_7
REMARK    4  A    between atoms: C_7  and  C_8
REMARK    5  A    between atoms: C_7  and  N_9
REMARK    6  A    between atoms: N_9  and  C_10
REMARK    7  A    between atoms: N_9  and  C_11
REMARK    8  A    between atoms: C_11  and  C_12
REMARK    9  A    between atoms: N_14  and  C_15
REMARK   10  A    between atoms: C_18  and  C_19
REMARK                            x       y       z     vdW  Elec       q    Type
REMARK                         _______ _______ _______ _____ _____    ______ ____
ROOT
ATOM      1  C   UNL     1       4.330   4.933  17.352  0.00  0.00    +0.000 C 
ENDROOT
BRANCH   1   2
ATOM      2  C   UNL     1       3.842   6.346  17.692  0.00  0.00    +0.000 C 
ATOM      3  O   UNL     1       4.540   7.332  17.458  0.00  0.00    +0.000 OA
ATOM      4  N   UNL     1       2.600   6.386  18.311  0.00  0.00    +0.000 N 
ATOM      5  H   UNL     1       2.299   5.542  18.782  0.00  0.00    +0.000 HD
BRANCH   4   6
ATOM      6  C   UNL     1       2.010   7.596  18.736  0.00  0.00    +0.000 A 
ATOM      7  C   UNL     1       1.737   8.635  17.843  0.00  0.00    +0.000 A 
ATOM      8  C   UNL     1       1.253   9.860  18.311  0.00  0.00    +0.000 A 
ATOM      9  C   UNL     1       1.053  10.062  19.679  0.00  0.00    +0.000 A 
ATOM     10  C   UNL     1       0.660  11.408  20.207  0.00  0.00    +0.000 C 
ATOM     11  C   UNL     1       1.283   8.998  20.565  0.00  0.00    +0.000 A 
ATOM     12  C   UNL     1       1.730   7.760  20.090  0.00  0.00    +0.000 A 
ENDBRANCH   4   6
ENDBRANCH   1   2
BRANCH   1  13
ATOM     13  N   UNL     1       5.413   4.429  18.233  0.00  0.00    +0.000 NA
ATOM     14  C   UNL     1       5.349   5.038  19.560  0.00  0.00    +0.000 C 
BRANCH  13  15
ATOM     15  C   UNL     1       6.788   4.527  17.648  0.00  0.00    +0.000 C 
ATOM     16  C   UNL     1       7.581   5.761  18.118  0.00  0.00    +0.000 C 
BRANCH  15  20
ATOM     17  C   UNL     1       6.611   4.260  14.076  0.00  0.00    +0.000 A 
ATOM     18  N   UNL     1       7.385   5.351  14.156  0.00  0.00    +0.000 NA
ATOM     19  O   UNL     1       7.495   5.564  15.532  0.00  0.00    +0.000 OA
ATOM     20  C   UNL     1       6.775   4.572  16.139  0.00  0.00    +0.000 A 
ATOM     21  N   UNL     1       6.194   3.755  15.281  0.00  0.00    +0.000 NA
BRANCH  17  23
ATOM     22  C   UNL     1       7.191   4.066  11.664  0.00  0.00    +0.000 C 
ATOM     23  C   UNL     1       6.266   3.620  12.784  0.00  0.00    +0.000 C 
ENDBRANCH  17  23
ENDBRANCH  15  20
ENDBRANCH  13  15
ENDBRANCH   1  13
TORSDOF 6
ENDMDL
