MODEL 1
REMARK VINA RESULT:      -7.6      0.000      0.000
REMARK  Name = 
REMARK  5 active torsions:
REMARK  status: ('A' for Active; 'I' for Inactive)
REMARK    1  A    between atoms: C_1  and  C_2
REMARK    2  A    between atoms: C_2  and  N_3
REMARK    3  A    between atoms: C_2  and  C_13
REMARK    4  A    between atoms: N_3  and  C_4
REMARK    5  A    between atoms: C_8  and  C_9
REMARK                            x       y       z     vdW  Elec       q    Type
REMARK                         _______ _______ _______ _____ _____    ______ ____
ROOT
ATOM      1  N   UNL     1       6.013   3.901  16.755  0.00  0.00    +0.000 N 
ATOM      2  H   UNL     1       6.411   3.064  17.184  0.00  0.00    +0.000 HD
ENDROOT
BRANCH   1   3
ATOM      3  C   UNL     1       6.350   4.069  15.410  0.00  0.00    +0.000 A 
ATOM      4  C   UNL     1       7.332   5.003  15.058  0.00  0.00    +0.000 A 
ATOM      5  C   UNL     1       7.643   5.264  13.715  0.00  0.00    +0.000 A 
ATOM      6  C   UNL     1       6.981   4.579  12.697  0.00  0.00    +0.000 A 
ATOM      7  C   UNL     1       6.002   3.645  13.027  0.00  0.00    +0.000 A 
ATOM      8  C   UNL     1       5.663   3.439  14.370  0.00  0.00    +0.000 A 
BRANCH   7   9
ATOM      9  C   UNL     1       5.312   2.880  11.962  0.00  0.00    +0.000 C 
ATOM     10  N   UNL     1       5.886   1.696  11.580  0.00  0.00    +0.000 N 
ATOM     11  O   UNL     1       4.296   3.299  11.425  0.00  0.00    +0.000 OA
ATOM     12  H   UNL     1       6.818   1.425  11.849  0.00  0.00    +0.000 HD
ATOM     13  H   UNL     1       5.454   1.198  10.812  0.00  0.00    +0.000 HD
ENDBRANCH   7   9
ENDBRANCH   1   3
BRANCH   1  15
ATOM     14  C   UNL     1       4.432   5.718  17.153  0.00  0.00    +0.000 C 
ATOM     15  C   UNL     1       4.647   4.202  17.230  0.00  0.00    +0.000 C 
BRANCH  15  16
ATOM     16  C   UNL     1       4.433   3.724  18.681  0.00  0.00    +0.000 C 
ATOM     17  O   UNL     1       5.369   3.594  19.476  0.00  0.00    +0.000 OA
ATOM     18  N   UNL     1       3.120   3.424  19.031  0.00  0.00    +0.000 N 
ATOM     19  C   UNL     1       2.735   3.204  20.408  0.00  0.00    +0.000 C 
ATOM     20  C   UNL     1       1.219   3.206  20.341  0.00  0.00    +0.000 C 
ATOM     21  N   UNL     1       0.956   2.766  19.001  0.00  0.00    +0.000 N 
ATOM     22  C   UNL     1       2.053   3.034  18.190  0.00  0.00    +0.000 C 
ATOM     23  O   UNL     1       2.029   2.964  16.974  0.00  0.00    +0.000 OA
ATOM     24  H   UNL     1       0.042   2.652  18.579  0.00  0.00    +0.000 HD
ENDBRANCH  15  16
ENDBRANCH   1  15
TORSDOF 4
ENDMDL
MODEL 2
REMARK VINA RESULT:      -7.4      2.899      6.776
REMARK  Name = 
REMARK  5 active torsions:
REMARK  status: ('A' for Active; 'I' for Inactive)
REMARK    1  A    between atoms: C_1  and  C_2
REMARK    2  A    between atoms: C_2  and  N_3
REMARK    3  A    between atoms: C_2  and  C_13
REMARK    4  A    between atoms: N_3  and  C_4
REMARK    5  A    between atoms: C_8  and  C_9
REMARK                            x       y       z     vdW  Elec       q    Type
REMARK                         _______ _______ _______ _____ _____    ______ ____
ROOT
ATOM      1  N   UNL     1       4.680   2.983  17.159  0.00  0.00    +0.000 N 
ATOM      2  H   UNL     1       5.295   2.232  17.478  0.00  0.00    +0.000 HD
ENDROOT
BRANCH   1   3
ATOM      3  C   UNL     1       3.516   3.128  17.916  0.00  0.00    +0.000 A 
ATOM      4  C   UNL     1       2.389   3.725  17.339  0.00  0.00    +0.000 A 
ATOM      5  C   UNL     1       1.226   3.966  18.087  0.00  0.00    +0.000 A 
ATOM      6  C   UNL     1       1.169   3.597  19.430  0.00  0.00    +0.000 A 
ATOM      7  C   UNL     1       2.280   3.001  20.022  0.00  0.00    +0.000 A 
ATOM      8  C   UNL     1       3.451   2.821  19.278  0.00  0.00    +0.000 A 
BRANCH   7   9
ATOM      9  C   UNL     1       2.228   2.570  21.439  0.00  0.00    +0.000 C 
ATOM     10  N   UNL     1       1.002   2.600  22.050  0.00  0.00    +0.000 N 
ATOM     11  O   UNL     1       3.235   2.233  22.047  0.00  0.00    +0.000 OA
ATOM     12  H   UNL     1       0.200   3.062  21.651  0.00  0.00    +0.000 HD
ATOM     13  H   UNL     1       0.969   2.365  23.034  0.00  0.00    +0.000 HD
ENDBRANCH   7   9
ENDBRANCH   1   3
BRANCH   1  15
ATOM     14  C   UNL     1       6.254   3.759  15.462  0.00  0.00    +0.000 C 
ATOM     15  C   UNL     1       5.416   4.171  16.679  0.00  0.00    +0.000 C 
BRANCH  15  16
ATOM     16  C   UNL     1       6.341   4.745  17.771  0.00  0.00    +0.000 C 
ATOM     17  O   UNL     1       6.714   4.074  18.738  0.00  0.00    +0.000 OA
ATOM     18  N   UNL     1       6.709   6.077  17.612  0.00  0.00    +0.000 N 
ATOM     19  C   UNL     1       7.756   6.674  18.412  0.00  0.00    +0.000 C 
ATOM     20  C   UNL     1       8.006   7.998  17.712  0.00  0.00    +0.000 C 
ATOM     21  N   UNL     1       6.740   8.281  17.100  0.00  0.00    +0.000 N 
ATOM     22  C   UNL     1       6.029   7.100  16.913  0.00  0.00    +0.000 C 
ATOM     23  O   UNL     1       5.025   7.016  16.227  0.00  0.00    +0.000 OA
ATOM     24  H   UNL     1       6.520   9.088  16.529  0.00  0.00    +0.000 HD
ENDBRANCH  15  16
ENDBRANCH   1  15
TORSDOF 4
ENDMDL
MODEL 3
REMARK VINA RESULT:      -7.3      3.978      7.768
REMARK  Name = 
REMARK  5 active torsions:
REMARK  status: ('A' for Active; 'I' for Inactive)
REMARK    1  A    between atoms: C_1  and  C_2
REMARK    2  A    between atoms: C_2  and  N_3
REMARK    3  A    between atoms: C_2  and  C_13
REMARK    4  A    between atoms: N_3  and  C_4
REMARK    5  A    between atoms: C_8  and  C_9
REMARK                            x       y       z     vdW  Elec       q    Type
REMARK                         _______ _______ _______ _____ _____    ______ ____
ROOT
ATOM      1  N   UNL     1       3.174   5.962  18.800  0.00  0.00    +0.000 N 
ATOM      2  H   UNL     1       4.165   6.054  19.030  0.00  0.00    +0.000 HD
ENDROOT
BRANCH   1   3
ATOM      3  C   UNL     1       2.423   7.115  19.037  0.00  0.00    +0.000 A 
ATOM      4  C   UNL     1       2.183   8.008  17.986  0.00  0.00    +0.000 A 
ATOM      5  C   UNL     1       1.505   9.218  18.195  0.00  0.00    +0.000 A 
ATOM      6  C   UNL     1       1.042   9.549  19.468  0.00  0.00    +0.000 A 
ATOM      7  C   UNL     1       1.270   8.674  20.527  0.00  0.00    +0.000 A 
ATOM      8  C   UNL     1       1.998   7.498  20.312  0.00  0.00    +0.000 A 
BRANCH   7   9
ATOM      9  C   UNL     1       0.756   8.990  21.880  0.00  0.00    +0.000 C 
ATOM     10  N   UNL     1      -0.569   8.729  22.115  0.00  0.00    +0.000 N 
ATOM     11  O   UNL     1       1.468   9.491  22.739  0.00  0.00    +0.000 OA
ATOM     12  H   UNL     1      -1.225   8.515  21.381  0.00  0.00    +0.000 HD
ATOM     13  H   UNL     1      -0.942   8.998  23.016  0.00  0.00    +0.000 HD
ENDBRANCH   7   9
ENDBRANCH   1   3
BRANCH   1  15
ATOM     14  C   UNL     1       1.631   4.355  17.801  0.00  0.00    +0.000 C 
ATOM     15  C   UNL     1       2.932   5.141  17.596  0.00  0.00    +0.000 C 
BRANCH  15  16
ATOM     16  C   UNL     1       4.092   4.159  17.336  0.00  0.00    +0.000 C 
ATOM     17  O   UNL     1       4.224   3.111  17.975  0.00  0.00    +0.000 OA
ATOM     18  N   UNL     1       4.998   4.541  16.352  0.00  0.00    +0.000 N 
ATOM     19  C   UNL     1       5.986   3.621  15.833  0.00  0.00    +0.000 C 
ATOM     20  C   UNL     1       6.530   4.354  14.620  0.00  0.00    +0.000 C 
ATOM     21  N   UNL     1       6.327   5.732  14.961  0.00  0.00    +0.000 N 
ATOM     22  C   UNL     1       5.304   5.844  15.897  0.00  0.00    +0.000 C 
ATOM     23  O   UNL     1       4.780   6.900  16.203  0.00  0.00    +0.000 OA
ATOM     24  H   UNL     1       6.561   6.531  14.382  0.00  0.00    +0.000 HD
ENDBRANCH  15  16
ENDBRANCH   1  15
TORSDOF 4
ENDMDL
MODEL 4
REMARK VINA RESULT:      -7.2      2.364      3.144
REMARK  Name = 
REMARK  5 active torsions:
REMARK  status: ('A' for Active; 'I' for Inactive)
REMARK    1  A    between atoms: C_1  and  C_2
REMARK    2  A    between atoms: C_2  and  N_3
REMARK    3  A    between atoms: C_2  and  C_13
REMARK    4  A    between atoms: N_3  and  C_4
REMARK    5  A    between atoms: C_8  and  C_9
REMARK                            x       y       z     vdW  Elec       q    Type
REMARK                         _______ _______ _______ _____ _____    ______ ____
ROOT
ATOM      1  N   UNL     1       4.330   6.635  18.394  0.00  0.00    +0.000 N 
ATOM      2  H   UNL     1       4.444   6.926  19.367  0.00  0.00    +0.000 HD
ENDROOT
BRANCH   1   3
ATOM      3  C   UNL     1       5.403   5.900  17.887  0.00  0.00    +0.000 A 
ATOM      4  C   UNL     1       6.385   5.422  18.763  0.00  0.00    +0.000 A 
ATOM      5  C   UNL     1       7.523   4.751  18.289  0.00  0.00    +0.000 A 
ATOM      6  C   UNL     1       7.689   4.535  16.922  0.00  0.00    +0.000 A 
ATOM      7  C   UNL     1       6.723   5.003  16.035  0.00  0.00    +0.000 A 
ATOM      8  C   UNL     1       5.623   5.721  16.519  0.00  0.00    +0.000 A 
BRANCH   7   9
ATOM      9  C   UNL     1       6.863   4.753  14.580  0.00  0.00    +0.000 C 
ATOM     10  N   UNL     1       6.260   3.627  14.085  0.00  0.00    +0.000 N 
ATOM     11  O   UNL     1       7.513   5.498  13.859  0.00  0.00    +0.000 OA
ATOM     12  H   UNL     1       5.900   2.893  14.674  0.00  0.00    +0.000 HD
ATOM     13  H   UNL     1       6.402   3.417  13.106  0.00  0.00    +0.000 HD
ENDBRANCH   7   9
ENDBRANCH   1   3
BRANCH   1  15
ATOM     14  C   UNL     1       2.145   7.545  17.796  0.00  0.00    +0.000 C 
ATOM     15  C   UNL     1       2.940   6.261  18.061  0.00  0.00    +0.000 C 
BRANCH  15  16
ATOM     16  C   UNL     1       2.275   5.471  19.208  0.00  0.00    +0.000 C 
ATOM     17  O   UNL     1       2.096   5.961  20.327  0.00  0.00    +0.000 OA
ATOM     18  N   UNL     1       1.912   4.162  18.909  0.00  0.00    +0.000 N 
ATOM     19  C   UNL     1       1.069   3.389  19.793  0.00  0.00    +0.000 C 
ATOM     20  C   UNL     1       0.710   2.179  18.950  0.00  0.00    +0.000 C 
ATOM     21  N   UNL     1       1.827   2.067  18.057  0.00  0.00    +0.000 N 
ATOM     22  C   UNL     1       2.456   3.301  17.928  0.00  0.00    +0.000 C 
ATOM     23  O   UNL     1       3.294   3.548  17.079  0.00  0.00    +0.000 OA
ATOM     24  H   UNL     1       1.942   1.373  17.329  0.00  0.00    +0.000 HD
ENDBRANCH  15  16
ENDBRANCH   1  15
TORSDOF 4
ENDMDL
MODEL 5
REMARK VINA RESULT:      -7.0      3.952      7.276
REMARK  Name = 
REMARK  5 active torsions:
REMARK  status: ('A' for Active; 'I' for Inactive)
REMARK    1  A    between atoms: C_1  and  C_2
REMARK    2  A    between atoms: C_2  and  N_3
REMARK    3  A    between atoms: C_2  and  C_13
REMARK    4  A    between atoms: N_3  and  C_4
REMARK    5  A    between atoms: C_8  and  C_9
REMARK                            x       y       z     vdW  Elec       q    Type
REMARK                         _______ _______ _______ _____ _____    ______ ____
ROOT
ATOM      1  N   UNL     1       3.136   5.595  19.072  0.00  0.00    +0.000 N 
ATOM      2  H   UNL     1       4.123   5.569  19.334  0.00  0.00    +0.000 HD
ENDROOT
BRANCH   1   3
ATOM      3  C   UNL     1       2.463   6.742  19.494  0.00  0.00    +0.000 A 
ATOM      4  C   UNL     1       1.864   6.764  20.759  0.00  0.00    +0.000 A 
ATOM      5  C   UNL     1       1.108   7.864  21.191  0.00  0.00    +0.000 A 
ATOM      6  C   UNL     1       0.950   8.973  20.361  0.00  0.00    +0.000 A 
ATOM      7  C   UNL     1       1.538   8.972  19.099  0.00  0.00    +0.000 A 
ATOM      8  C   UNL     1       2.241   7.843  18.661  0.00  0.00    +0.000 A 
BRANCH   7   9
ATOM      9  C   UNL     1       1.412  10.155  18.216  0.00  0.00    +0.000 C 
ATOM     10  N   UNL     1       0.148  10.485  17.801  0.00  0.00    +0.000 N 
ATOM     11  O   UNL     1       2.390  10.789  17.846  0.00  0.00    +0.000 OA
ATOM     12  H   UNL     1      -0.645   9.873  17.913  0.00  0.00    +0.000 HD
ATOM     13  H   UNL     1       0.060  11.254  17.149  0.00  0.00    +0.000 HD
ENDBRANCH   7   9
ENDBRANCH   1   3
BRANCH   1  15
ATOM     14  C   UNL     1       1.546   4.261  17.785  0.00  0.00    +0.000 C 
ATOM     15  C   UNL     1       2.877   5.021  17.735  0.00  0.00    +0.000 C 
BRANCH  15  16
ATOM     16  C   UNL     1       4.003   4.059  17.303  0.00  0.00    +0.000 C 
ATOM     17  O   UNL     1       4.110   2.919  17.767  0.00  0.00    +0.000 OA
ATOM     18  N   UNL     1       4.908   4.565  16.376  0.00  0.00    +0.000 N 
ATOM     19  C   UNL     1       5.860   3.710  15.701  0.00  0.00    +0.000 C 
ATOM     20  C   UNL     1       6.412   4.610  14.610  0.00  0.00    +0.000 C 
ATOM     21  N   UNL     1       6.257   5.922  15.168  0.00  0.00    +0.000 N 
ATOM     22  C   UNL     1       5.250   5.914  16.127  0.00  0.00    +0.000 C 
ATOM     23  O   UNL     1       4.763   6.923  16.606  0.00  0.00    +0.000 OA
ATOM     24  H   UNL     1       6.508   6.795  14.718  0.00  0.00    +0.000 HD
ENDBRANCH  15  16
ENDBRANCH   1  15
TORSDOF 4
ENDMDL
MODEL 6
REMARK VINA RESULT:      -7.0      2.286      6.349
REMARK  Name = 
REMARK  5 active torsions:
REMARK  status: ('A' for Active; 'I' for Inactive)
REMARK    1  A    between atoms: C_1  and  C_2
REMARK    2  A    between atoms: C_2  and  N_3
REMARK    3  A    between atoms: C_2  and  C_13
REMARK    4  A    between atoms: N_3  and  C_4
REMARK    5  A    between atoms: C_8  and  C_9
REMARK                            x       y       z     vdW  Elec       q    Type
REMARK                         _______ _______ _______ _____ _____    ______ ____
ROOT
ATOM      1  N   UNL     1       4.681   6.100  18.067  0.00  0.00    +0.000 N 
ATOM      2  H   UNL     1       4.455   6.682  17.258  0.00  0.00    +0.000 HD
ENDROOT
BRANCH   1   3
ATOM      3  C   UNL     1       3.566   5.559  18.711  0.00  0.00    +0.000 A 
ATOM      4  C   UNL     1       2.950   6.277  19.742  0.00  0.00    +0.000 A 
ATOM      5  C   UNL     1       1.880   5.737  20.471  0.00  0.00    +0.000 A 
ATOM      6  C   UNL     1       1.398   4.465  20.167  0.00  0.00    +0.000 A 
ATOM      7  C   UNL     1       1.996   3.735  19.144  0.00  0.00    +0.000 A 
ATOM      8  C   UNL     1       3.100   4.265  18.465  0.00  0.00    +0.000 A 
BRANCH   7   9
ATOM      9  C   UNL     1       1.476   2.395  18.780  0.00  0.00    +0.000 C 
ATOM     10  N   UNL     1       2.402   1.442  18.446  0.00  0.00    +0.000 N 
ATOM     11  O   UNL     1       0.276   2.158  18.748  0.00  0.00    +0.000 OA
ATOM     12  H   UNL     1       3.369   1.656  18.262  0.00  0.00    +0.000 HD
ATOM     13  H   UNL     1       2.052   0.544  18.138  0.00  0.00    +0.000 HD
ENDBRANCH   7   9
ENDBRANCH   1   3
BRANCH   1  15
ATOM     14  C   UNL     1       6.763   5.412  19.139  0.00  0.00    +0.000 C 
ATOM     15  C   UNL     1       5.903   5.292  17.876  0.00  0.00    +0.000 C 
BRANCH  15  16
ATOM     16  C   UNL     1       6.713   5.770  16.654  0.00  0.00    +0.000 C 
ATOM     17  O   UNL     1       7.494   6.724  16.713  0.00  0.00    +0.000 OA
ATOM     18  N   UNL     1       6.490   5.073  15.470  0.00  0.00    +0.000 N 
ATOM     19  C   UNL     1       7.346   5.245  14.317  0.00  0.00    +0.000 C 
ATOM     20  C   UNL     1       6.917   4.111  13.403  0.00  0.00    +0.000 C 
ATOM     21  N   UNL     1       5.552   3.891  13.785  0.00  0.00    +0.000 N 
ATOM     22  C   UNL     1       5.343   4.343  15.084  0.00  0.00    +0.000 C 
ATOM     23  O   UNL     1       4.345   4.092  15.735  0.00  0.00    +0.000 OA
ATOM     24  H   UNL     1       4.928   3.193  13.396  0.00  0.00    +0.000 HD
ENDBRANCH  15  16
ENDBRANCH   1  15
TORSDOF 4
ENDMDL
MODEL 7
REMARK VINA RESULT:      -6.9      3.838      6.695
REMARK  Name = 
REMARK  5 active torsions:
REMARK  status: ('A' for Active; 'I' for Inactive)
REMARK    1  A    between atoms: C_1  and  C_2
REMARK    2  A    between atoms: C_2  and  N_3
REMARK    3  A    between atoms: C_2  and  C_13
REMARK    4  A    between atoms: N_3  and  C_4
REMARK    5  A    between atoms: C_8  and  C_9
REMARK                            x       y       z     vdW  Elec       q    Type
REMARK                         _______ _______ _______ _____ _____    ______ ____
ROOT
ATOM      1  N   UNL     1       2.231   5.932  17.794  0.00  0.00    +0.000 N 
ATOM      2  H   UNL     1       1.861   6.038  16.847  0.00  0.00    +0.000 HD
ENDROOT
BRANCH   1   3
ATOM      3  C   UNL     1       2.328   4.608  18.224  0.00  0.00    +0.000 A 
ATOM      4  C   UNL     1       2.465   3.584  17.279  0.00  0.00    +0.000 A 
ATOM      5  C   UNL     1       2.483   2.234  17.660  0.00  0.00    +0.000 A 
ATOM      6  C   UNL     1       2.378   1.886  19.006  0.00  0.00    +0.000 A 
ATOM      7  C   UNL     1       2.243   2.890  19.962  0.00  0.00    +0.000 A 
ATOM      8  C   UNL     1       2.168   4.228  19.559  0.00  0.00    +0.000 A 
BRANCH   7   9
ATOM      9  C   UNL     1       2.166   2.543  21.401  0.00  0.00    +0.000 C 
ATOM     10  N   UNL     1       0.941   2.667  22.002  0.00  0.00    +0.000 N 
ATOM     11  O   UNL     1       3.154   2.194  22.033  0.00  0.00    +0.000 OA
ATOM     12  H   UNL     1       0.163   3.143  21.572  0.00  0.00    +0.000 HD
ATOM     13  H   UNL     1       0.893   2.492  22.997  0.00  0.00    +0.000 HD
ENDBRANCH   7   9
ENDBRANCH   1   3
BRANCH   1  15
ATOM     14  C   UNL     1       2.751   8.316  17.855  0.00  0.00    +0.000 C 
ATOM     15  C   UNL     1       3.295   6.906  18.112  0.00  0.00    +0.000 C 
BRANCH  15  16
ATOM     16  C   UNL     1       4.552   6.674  17.249  0.00  0.00    +0.000 C 
ATOM     17  O   UNL     1       4.545   6.817  16.022  0.00  0.00    +0.000 OA
ATOM     18  N   UNL     1       5.691   6.267  17.937  0.00  0.00    +0.000 N 
ATOM     19  C   UNL     1       6.992   6.249  17.305  0.00  0.00    +0.000 C 
ATOM     20  C   UNL     1       7.936   6.033  18.475  0.00  0.00    +0.000 C 
ATOM     21  N   UNL     1       7.119   5.327  19.420  0.00  0.00    +0.000 N 
ATOM     22  C   UNL     1       5.775   5.591  19.176  0.00  0.00    +0.000 C 
ATOM     23  O   UNL     1       4.877   5.299  19.946  0.00  0.00    +0.000 OA
ATOM     24  H   UNL     1       7.405   5.017  20.341  0.00  0.00    +0.000 HD
ENDBRANCH  15  16
ENDBRANCH   1  15
TORSDOF 4
ENDMDL
MODEL 8
REMARK VINA RESULT:      -6.8      2.288      6.763
REMARK  Name = 
REMARK  5 active torsions:
REMARK  status: ('A' for Active; 'I' for Inactive)
REMARK    1  A    between atoms: C_1  and  C_2
REMARK    2  A    between atoms: C_2  and  N_3
REMARK    3  A    between atoms: C_2  and  C_13
REMARK    4  A    between atoms: N_3  and  C_4
REMARK    5  A    between atoms: C_8  and  C_9
REMARK                            x       y       z     vdW  Elec       q    Type
REMARK                         _______ _______ _______ _____ _____    ______ ____
ROOT
ATOM      1  N   UNL     1       5.023   5.951  18.234  0.00  0.00    +0.000 N 
ATOM      2  H   UNL     1       4.814   6.745  17.626  0.00  0.00    +0.000 HD
ENDROOT
BRANCH   1   3
ATOM      3  C   UNL     1       3.905   5.193  18.589  0.00  0.00    +0.000 A 
ATOM      4  C   UNL     1       2.720   5.329  17.857  0.00  0.00    +0.000 A 
ATOM      5  C   UNL     1       1.549   4.651  18.228  0.00  0.00    +0.000 A 
ATOM      6  C   UNL     1       1.552   3.807  19.338  0.00  0.00    +0.000 A 
ATOM      7  C   UNL     1       2.721   3.657  20.079  0.00  0.00    +0.000 A 
ATOM      8  C   UNL     1       3.864   4.386  19.729  0.00  0.00    +0.000 A 
BRANCH   7   9
ATOM      9  C   UNL     1       2.755   2.738  21.241  0.00  0.00    +0.000 C 
ATOM     10  N   UNL     1       1.618   2.658  22.000  0.00  0.00    +0.000 N 
ATOM     11  O   UNL     1       3.761   2.104  21.531  0.00  0.00    +0.000 OA
ATOM     12  H   UNL     1       0.854   3.311  21.916  0.00  0.00    +0.000 HD
ATOM     13  H   UNL     1       1.653   2.080  22.830  0.00  0.00    +0.000 HD
ENDBRANCH   7   9
ENDBRANCH   1   3
BRANCH   1  15
ATOM     14  C   UNL     1       7.291   5.559  19.049  0.00  0.00    +0.000 C 
ATOM     15  C   UNL     1       6.304   5.292  17.906  0.00  0.00    +0.000 C 
BRANCH  15  16
ATOM     16  C   UNL     1       6.892   5.823  16.583  0.00  0.00    +0.000 C 
ATOM     17  O   UNL     1       7.501   6.895  16.515  0.00  0.00    +0.000 OA
ATOM     18  N   UNL     1       6.671   5.028  15.462  0.00  0.00    +0.000 N 
ATOM     19  C   UNL     1       7.363   5.269  14.215  0.00  0.00    +0.000 C 
ATOM     20  C   UNL     1       7.043   4.027  13.403  0.00  0.00    +0.000 C 
ATOM     21  N   UNL     1       5.782   3.607  13.942  0.00  0.00    +0.000 N 
ATOM     22  C   UNL     1       5.633   4.096  15.236  0.00  0.00    +0.000 C 
ATOM     23  O   UNL     1       4.763   3.724  16.004  0.00  0.00    +0.000 OA
ATOM     24  H   UNL     1       5.251   2.794  13.654  0.00  0.00    +0.000 HD
ENDBRANCH  15  16
ENDBRANCH   1  15
TORSDOF 4
ENDMDL
MODEL 9
REMARK VINA RESULT:      -6.8      4.456      8.039
REMARK  Name = 
REMARK  5 active torsions:
REMARK  status: ('A' for Active; 'I' for Inactive)
REMARK    1  A    between atoms: C_1  and  C_2
REMARK    2  A    between atoms: C_2  and  N_3
REMARK    3  A    between atoms: C_2  and  C_13
REMARK    4  A    between atoms: N_3  and  C_4
REMARK    5  A    between atoms: C_8  and  C_9
REMARK                            x       y       z     vdW  Elec       q    Type
REMARK                         _______ _______ _______ _____ _____    ______ ____
ROOT
ATOM      1  N   UNL     1       2.999   6.425  19.531  0.00  0.00    +0.000 N 
ATOM      2  H   UNL     1       3.771   6.493  20.196  0.00  0.00    +0.000 HD
ENDROOT
BRANCH   1   3
ATOM      3  C   UNL     1       2.190   7.562  19.476  0.00  0.00    +0.000 A 
ATOM      4  C   UNL     1       2.147   8.321  18.300  0.00  0.00    +0.000 A 
ATOM      5  C   UNL     1       1.415   9.515  18.227  0.00  0.00    +0.000 A 
ATOM      6  C   UNL     1       0.697   9.965  19.335  0.00  0.00    +0.000 A 
ATOM      7  C   UNL     1       0.727   9.224  20.513  0.00  0.00    +0.000 A 
ATOM      8  C   UNL     1       1.509   8.065  20.587  0.00  0.00    +0.000 A 
BRANCH   7   9
ATOM      9  C   UNL     1      -0.057   9.665  21.691  0.00  0.00    +0.000 C 
ATOM     10  N   UNL     1      -0.136  11.015  21.911  0.00  0.00    +0.000 N 
ATOM     11  O   UNL     1      -0.582   8.864  22.452  0.00  0.00    +0.000 OA
ATOM     12  H   UNL     1       0.447  11.685  21.434  0.00  0.00    +0.000 HD
ATOM     13  H   UNL     1      -0.617  11.322  22.747  0.00  0.00    +0.000 HD
ENDBRANCH   7   9
ENDBRANCH   1   3
BRANCH   1  15
ATOM     14  C   UNL     1       2.336   4.583  18.073  0.00  0.00    +0.000 C 
ATOM     15  C   UNL     1       3.361   5.701  18.295  0.00  0.00    +0.000 C 
BRANCH  15  16
ATOM     16  C   UNL     1       4.775   5.092  18.389  0.00  0.00    +0.000 C 
ATOM     17  O   UNL     1       5.205   4.583  19.429  0.00  0.00    +0.000 OA
ATOM     18  N   UNL     1       5.546   5.174  17.234  0.00  0.00    +0.000 N 
ATOM     19  C   UNL     1       6.784   4.438  17.096  0.00  0.00    +0.000 C 
ATOM     20  C   UNL     1       7.109   4.593  15.621  0.00  0.00    +0.000 C 
ATOM     21  N   UNL     1       6.481   5.838  15.284  0.00  0.00    +0.000 N 
ATOM     22  C   UNL     1       5.448   6.105  16.176  0.00  0.00    +0.000 C 
ATOM     23  O   UNL     1       4.615   6.978  16.004  0.00  0.00    +0.000 OA
ATOM     24  H   UNL     1       6.473   6.274  14.369  0.00  0.00    +0.000 HD
ENDBRANCH  15  16
ENDBRANCH   1  15
TORSDOF 4
ENDMDL
