MODEL 1
REMARK VINA RESULT:      -8.2      0.000      0.000
REMARK  Name = 
REMARK  3 active torsions:
REMARK  status: ('A' for Active; 'I' for Inactive)
REMARK    1  A    between atoms: N_3  and  C_4
REMARK    2  A    between atoms: C_4  and  C_5
REMARK    3  A    between atoms: N_15  and  C_16
REMARK                            x       y       z     vdW  Elec       q    Type
REMARK                         _______ _______ _______ _____ _____    ______ ____
ROOT
ATOM      1  O   UNL     1       8.664   7.551  18.793  0.00  0.00    +0.000 OA
ATOM      2  C   UNL     1       8.103   8.265  17.970  0.00  0.00    +0.000 C 
ATOM      3  N   UNL     1       7.159   7.773  17.093  0.00  0.00    +0.000 N 
ATOM      4  N   UNL     1       8.262   9.625  17.817  0.00  0.00    +0.000 N 
ATOM      5  H   UNL     1       7.163   8.218  16.186  0.00  0.00    +0.000 HD
ATOM      6  H   UNL     1       7.550  10.084  17.269  0.00  0.00    +0.000 HD
ENDROOT
BRANCH   4   7
ATOM      7  C   UNL     1       9.136  10.451  18.556  0.00  0.00    +0.000 A 
ATOM      8  C   UNL     1      10.130  11.240  17.976  0.00  0.00    +0.000 A 
ATOM      9  C   UNL     1      10.976  11.994  18.788  0.00  0.00    +0.000 A 
ATOM     10  C   UNL     1      10.798  11.943  20.160  0.00  0.00    +0.000 A 
ATOM     11  N   UNL     1       9.830  11.219  20.760  0.00  0.00    +0.000 NA
ATOM     12  C   UNL     1       9.023  10.497  19.945  0.00  0.00    +0.000 A 
ENDBRANCH   4   7
BRANCH   3  13
ATOM     13  C   UNL     1       6.901   6.337  17.058  0.00  0.00    +0.000 C 
BRANCH  13  14
ATOM     14  C   UNL     1       5.565   5.971  17.745  0.00  0.00    +0.000 C 
ATOM     15  C   UNL     1       4.438   6.882  17.259  0.00  0.00    +0.000 C 
ATOM     16  C   UNL     1       3.130   6.519  17.956  0.00  0.00    +0.000 C 
ATOM     17  C   UNL     1       2.893   5.033  17.972  0.00  0.00    +0.000 A 
ATOM     18  C   UNL     1       1.611   4.542  18.266  0.00  0.00    +0.000 A 
ATOM     19  C   UNL     1       1.367   3.169  18.292  0.00  0.00    +0.000 A 
ATOM     20  C   UNL     1       2.397   2.278  18.011  0.00  0.00    +0.000 A 
ATOM     21  C   UNL     1       3.674   2.760  17.723  0.00  0.00    +0.000 A 
ATOM     22  C   UNL     1       3.942   4.134  17.727  0.00  0.00    +0.000 A 
ATOM     23  N   UNL     1       5.256   4.555  17.460  0.00  0.00    +0.000 N 
ATOM     24  H   UNL     1       5.512   4.262  16.518  0.00  0.00    +0.000 HD
ENDBRANCH  13  14
ENDBRANCH   3  13
TORSDOF 3
ENDMDL
MODEL 2
REMARK VINA RESULT:      -8.1      1.007      1.012
REMARK  Name = 
REMARK  3 active torsions:
REMARK  status: ('A' for Active; 'I' for Inactive)
REMARK    1  A    between atoms: N_3  and  C_4
REMARK    2  A    between atoms: C_4  and  C_5
REMARK    3  A    between atoms: N_15  and  C_16
REMARK                            x       y       z     vdW  Elec       q    Type
REMARK                         _______ _______ _______ _____ _____    ______ ____
ROOT
ATOM      1  O   UNL     1       7.840   8.417  17.138  0.00  0.00    +0.000 OA
ATOM      2  C   UNL     1       8.203   8.000  18.232  0.00  0.00    +0.000 C 
ATOM      3  N   UNL     1       8.042   6.682  18.605  0.00  0.00    +0.000 N 
ATOM      4  N   UNL     1       8.852   8.717  19.212  0.00  0.00    +0.000 N 
ATOM      5  H   UNL     1       7.850   6.549  19.588  0.00  0.00    +0.000 HD
ATOM      6  H   UNL     1       9.291   8.165  19.933  0.00  0.00    +0.000 HD
ENDROOT
BRANCH   4   7
ATOM      7  C   UNL     1       9.189  10.087  19.158  0.00  0.00    +0.000 A 
ATOM      8  C   UNL     1       9.384  10.789  17.969  0.00  0.00    +0.000 A 
ATOM      9  C   UNL     1       9.756  12.133  18.010  0.00  0.00    +0.000 A 
ATOM     10  C   UNL     1       9.916  12.737  19.245  0.00  0.00    +0.000 A 
ATOM     11  N   UNL     1       9.707  12.105  20.419  0.00  0.00    +0.000 NA
ATOM     12  C   UNL     1       9.346  10.801  20.346  0.00  0.00    +0.000 A 
ENDBRANCH   4   7
BRANCH   3  13
ATOM     13  C   UNL     1       7.312   5.777  17.723  0.00  0.00    +0.000 C 
BRANCH  13  14
ATOM     14  C   UNL     1       5.850   5.572  18.183  0.00  0.00    +0.000 C 
ATOM     15  C   UNL     1       4.906   6.508  17.428  0.00  0.00    +0.000 C 
ATOM     16  C   UNL     1       3.471   6.305  17.903  0.00  0.00    +0.000 C 
ATOM     17  C   UNL     1       3.109   4.848  17.999  0.00  0.00    +0.000 A 
ATOM     18  C   UNL     1       1.758   4.477  18.096  0.00  0.00    +0.000 A 
ATOM     19  C   UNL     1       1.397   3.133  18.190  0.00  0.00    +0.000 A 
ATOM     20  C   UNL     1       2.382   2.150  18.175  0.00  0.00    +0.000 A 
ATOM     21  C   UNL     1       3.725   2.513  18.084  0.00  0.00    +0.000 A 
ATOM     22  C   UNL     1       4.105   3.859  18.023  0.00  0.00    +0.000 A 
ATOM     23  N   UNL     1       5.476   4.160  17.965  0.00  0.00    +0.000 N 
ATOM     24  H   UNL     1       5.866   3.761  17.113  0.00  0.00    +0.000 HD
ENDBRANCH  13  14
ENDBRANCH   3  13
TORSDOF 3
ENDMDL
MODEL 3
REMARK VINA RESULT:      -8.1      0.719      1.046
REMARK  Name = 
REMARK  3 active torsions:
REMARK  status: ('A' for Active; 'I' for Inactive)
REMARK    1  A    between atoms: N_3  and  C_4
REMARK    2  A    between atoms: C_4  and  C_5
REMARK    3  A    between atoms: N_15  and  C_16
REMARK                            x       y       z     vdW  Elec       q    Type
REMARK                         _______ _______ _______ _____ _____    ______ ____
ROOT
ATOM      1  O   UNL     1       8.559   7.680  18.835  0.00  0.00    +0.000 OA
ATOM      2  C   UNL     1       8.060   8.319  17.916  0.00  0.00    +0.000 C 
ATOM      3  N   UNL     1       7.221   7.738  16.988  0.00  0.00    +0.000 N 
ATOM      4  N   UNL     1       8.196   9.670  17.686  0.00  0.00    +0.000 N 
ATOM      5  H   UNL     1       7.301   8.123  16.057  0.00  0.00    +0.000 HD
ATOM      6  H   UNL     1       7.528  10.068  17.043  0.00  0.00    +0.000 HD
ENDROOT
BRANCH   4   7
ATOM      7  C   UNL     1       8.970  10.573  18.447  0.00  0.00    +0.000 A 
ATOM      8  C   UNL     1       9.357  10.337  19.766  0.00  0.00    +0.000 A 
ATOM      9  C   UNL     1      10.088  11.304  20.457  0.00  0.00    +0.000 A 
ATOM     10  C   UNL     1      10.416  12.478  19.802  0.00  0.00    +0.000 A 
ATOM     11  N   UNL     1      10.090  12.734  18.517  0.00  0.00    +0.000 NA
ATOM     12  C   UNL     1       9.381  11.775  17.873  0.00  0.00    +0.000 A 
ENDBRANCH   4   7
BRANCH   3  13
ATOM     13  C   UNL     1       7.008   6.295  17.027  0.00  0.00    +0.000 C 
BRANCH  13  14
ATOM     14  C   UNL     1       5.668   5.924  17.704  0.00  0.00    +0.000 C 
ATOM     15  C   UNL     1       4.545   6.843  17.224  0.00  0.00    +0.000 C 
ATOM     16  C   UNL     1       3.234   6.475  17.912  0.00  0.00    +0.000 C 
ATOM     17  C   UNL     1       2.994   4.990  17.912  0.00  0.00    +0.000 A 
ATOM     18  C   UNL     1       1.710   4.498  18.196  0.00  0.00    +0.000 A 
ATOM     19  C   UNL     1       1.463   3.125  18.206  0.00  0.00    +0.000 A 
ATOM     20  C   UNL     1       2.493   2.235  17.919  0.00  0.00    +0.000 A 
ATOM     21  C   UNL     1       3.771   2.718  17.641  0.00  0.00    +0.000 A 
ATOM     22  C   UNL     1       4.043   4.091  17.661  0.00  0.00    +0.000 A 
ATOM     23  N   UNL     1       5.358   4.512  17.403  0.00  0.00    +0.000 N 
ATOM     24  H   UNL     1       5.617   4.229  16.459  0.00  0.00    +0.000 HD
ENDBRANCH  13  14
ENDBRANCH   3  13
TORSDOF 3
ENDMDL
MODEL 4
REMARK VINA RESULT:      -7.6      1.232      1.908
REMARK  Name = 
REMARK  3 active torsions:
REMARK  status: ('A' for Active; 'I' for Inactive)
REMARK    1  A    between atoms: N_3  and  C_4
REMARK    2  A    between atoms: C_4  and  C_5
REMARK    3  A    between atoms: N_15  and  C_16
REMARK                            x       y       z     vdW  Elec       q    Type
REMARK                         _______ _______ _______ _____ _____    ______ ____
ROOT
ATOM      1  O   UNL     1       8.596   7.616  18.786  0.00  0.00    +0.000 OA
ATOM      2  C   UNL     1       8.006   8.232  17.905  0.00  0.00    +0.000 C 
ATOM      3  N   UNL     1       7.153   7.607  17.019  0.00  0.00    +0.000 N 
ATOM      4  N   UNL     1       8.040   9.591  17.687  0.00  0.00    +0.000 N 
ATOM      5  H   UNL     1       7.156   8.006  16.090  0.00  0.00    +0.000 HD
ATOM      6  H   UNL     1       7.313   9.951  17.089  0.00  0.00    +0.000 HD
ENDROOT
BRANCH   4   7
ATOM      7  C   UNL     1       8.797  10.534  18.416  0.00  0.00    +0.000 A 
ATOM      8  C   UNL     1       9.338  10.283  19.677  0.00  0.00    +0.000 A 
ATOM      9  C   UNL     1      10.038  11.288  20.344  0.00  0.00    +0.000 A 
ATOM     10  C   UNL     1      10.183  12.517  19.723  0.00  0.00    +0.000 A 
ATOM     11  N   UNL     1       9.704  12.792  18.491  0.00  0.00    +0.000 NA
ATOM     12  C   UNL     1       9.029  11.795  17.869  0.00  0.00    +0.000 A 
ENDBRANCH   4   7
BRANCH   3  13
ATOM     13  C   UNL     1       7.037   6.153  17.049  0.00  0.00    +0.000 C 
BRANCH  13  14
ATOM     14  C   UNL     1       5.562   5.689  17.066  0.00  0.00    +0.000 C 
ATOM     15  C   UNL     1       5.449   4.223  16.651  0.00  0.00    +0.000 C 
ATOM     16  C   UNL     1       3.988   3.784  16.657  0.00  0.00    +0.000 C 
ATOM     17  C   UNL     1       3.269   4.234  17.900  0.00  0.00    +0.000 A 
ATOM     18  C   UNL     1       2.035   3.653  18.233  0.00  0.00    +0.000 A 
ATOM     19  C   UNL     1       1.347   4.055  19.377  0.00  0.00    +0.000 A 
ATOM     20  C   UNL     1       1.893   5.032  20.203  0.00  0.00    +0.000 A 
ATOM     21  C   UNL     1       3.115   5.617  19.875  0.00  0.00    +0.000 A 
ATOM     22  C   UNL     1       3.801   5.248  18.712  0.00  0.00    +0.000 A 
ATOM     23  N   UNL     1       5.013   5.896  18.421  0.00  0.00    +0.000 N 
ATOM     24  H   UNL     1       5.680   5.702  19.166  0.00  0.00    +0.000 HD
ENDBRANCH  13  14
ENDBRANCH   3  13
TORSDOF 3
ENDMDL
MODEL 5
REMARK VINA RESULT:      -7.6      1.047      1.592
REMARK  Name = 
REMARK  3 active torsions:
REMARK  status: ('A' for Active; 'I' for Inactive)
REMARK    1  A    between atoms: N_3  and  C_4
REMARK    2  A    between atoms: C_4  and  C_5
REMARK    3  A    between atoms: N_15  and  C_16
REMARK                            x       y       z     vdW  Elec       q    Type
REMARK                         _______ _______ _______ _____ _____    ______ ____
ROOT
ATOM      1  O   UNL     1       8.590   7.368  18.915  0.00  0.00    +0.000 OA
ATOM      2  C   UNL     1       8.019   8.007  18.038  0.00  0.00    +0.000 C 
ATOM      3  N   UNL     1       7.095   7.429  17.192  0.00  0.00    +0.000 N 
ATOM      4  N   UNL     1       8.147   9.355  17.788  0.00  0.00    +0.000 N 
ATOM      5  H   UNL     1       7.098   7.807  16.255  0.00  0.00    +0.000 HD
ATOM      6  H   UNL     1       7.429   9.756  17.204  0.00  0.00    +0.000 HD
ENDROOT
BRANCH   4   7
ATOM      7  C   UNL     1       8.994  10.254  18.472  0.00  0.00    +0.000 A 
ATOM      8  C   UNL     1       9.879  11.121  17.832  0.00  0.00    +0.000 A 
ATOM      9  C   UNL     1      10.710  11.947  18.590  0.00  0.00    +0.000 A 
ATOM     10  C   UNL     1      10.624  11.885  19.970  0.00  0.00    +0.000 A 
ATOM     11  N   UNL     1       9.760  11.084  20.629  0.00  0.00    +0.000 NA
ATOM     12  C   UNL     1       8.966  10.294  19.866  0.00  0.00    +0.000 A 
ENDBRANCH   4   7
BRANCH   3  13
ATOM     13  C   UNL     1       6.873   5.989  17.260  0.00  0.00    +0.000 C 
BRANCH  13  14
ATOM     14  C   UNL     1       5.368   5.635  17.295  0.00  0.00    +0.000 C 
ATOM     15  C   UNL     1       5.122   4.250  16.698  0.00  0.00    +0.000 C 
ATOM     16  C   UNL     1       3.632   3.921  16.725  0.00  0.00    +0.000 C 
ATOM     17  C   UNL     1       3.006   4.251  18.053  0.00  0.00    +0.000 A 
ATOM     18  C   UNL     1       1.746   3.720  18.372  0.00  0.00    +0.000 A 
ATOM     19  C   UNL     1       1.143   4.014  19.595  0.00  0.00    +0.000 A 
ATOM     20  C   UNL     1       1.799   4.828  20.512  0.00  0.00    +0.000 A 
ATOM     21  C   UNL     1       3.049   5.362  20.198  0.00  0.00    +0.000 A 
ATOM     22  C   UNL     1       3.652   5.104  18.962  0.00  0.00    +0.000 A 
ATOM     23  N   UNL     1       4.897   5.696  18.693  0.00  0.00    +0.000 N 
ATOM     24  H   UNL     1       5.578   5.356  19.369  0.00  0.00    +0.000 HD
ENDBRANCH  13  14
ENDBRANCH   3  13
TORSDOF 3
ENDMDL
MODEL 6
REMARK VINA RESULT:      -7.4      1.522      1.735
REMARK  Name = 
REMARK  3 active torsions:
REMARK  status: ('A' for Active; 'I' for Inactive)
REMARK    1  A    between atoms: N_3  and  C_4
REMARK    2  A    between atoms: C_4  and  C_5
REMARK    3  A    between atoms: N_15  and  C_16
REMARK                            x       y       z     vdW  Elec       q    Type
REMARK                         _______ _______ _______ _____ _____    ______ ____
ROOT
ATOM      1  O   UNL     1       7.572   8.086  17.214  0.00  0.00    +0.000 OA
ATOM      2  C   UNL     1       8.119   7.844  18.283  0.00  0.00    +0.000 C 
ATOM      3  N   UNL     1       8.123   6.581  18.837  0.00  0.00    +0.000 N 
ATOM      4  N   UNL     1       8.838   8.728  19.057  0.00  0.00    +0.000 N 
ATOM      5  H   UNL     1       8.084   6.570  19.847  0.00  0.00    +0.000 HD
ATOM      6  H   UNL     1       9.420   8.307  19.766  0.00  0.00    +0.000 HD
ENDROOT
BRANCH   4   7
ATOM      7  C   UNL     1       9.049  10.097  18.783  0.00  0.00    +0.000 A 
ATOM      8  C   UNL     1      10.000  10.879  19.438  0.00  0.00    +0.000 A 
ATOM      9  C   UNL     1      10.111  12.235  19.132  0.00  0.00    +0.000 A 
ATOM     10  C   UNL     1       9.269  12.768  18.171  0.00  0.00    +0.000 A 
ATOM     11  N   UNL     1       8.358  12.041  17.491  0.00  0.00    +0.000 NA
ATOM     12  C   UNL     1       8.274  10.727  17.810  0.00  0.00    +0.000 A 
ENDBRANCH   4   7
BRANCH   3  13
ATOM     13  C   UNL     1       7.353   5.521  18.194  0.00  0.00    +0.000 C 
BRANCH  13  14
ATOM     14  C   UNL     1       5.870   5.535  18.630  0.00  0.00    +0.000 C 
ATOM     15  C   UNL     1       4.970   5.985  17.480  0.00  0.00    +0.000 C 
ATOM     16  C   UNL     1       3.513   6.010  17.929  0.00  0.00    +0.000 C 
ATOM     17  C   UNL     1       3.136   4.766  18.688  0.00  0.00    +0.000 A 
ATOM     18  C   UNL     1       1.779   4.463  18.887  0.00  0.00    +0.000 A 
ATOM     19  C   UNL     1       1.404   3.320  19.591  0.00  0.00    +0.000 A 
ATOM     20  C   UNL     1       2.381   2.462  20.088  0.00  0.00    +0.000 A 
ATOM     21  C   UNL     1       3.730   2.760  19.897  0.00  0.00    +0.000 A 
ATOM     22  C   UNL     1       4.122   3.922  19.223  0.00  0.00    +0.000 A 
ATOM     23  N   UNL     1       5.496   4.182  19.091  0.00  0.00    +0.000 N 
ATOM     24  H   UNL     1       5.924   3.433  18.549  0.00  0.00    +0.000 HD
ENDBRANCH  13  14
ENDBRANCH   3  13
TORSDOF 3
ENDMDL
MODEL 7
REMARK VINA RESULT:      -7.4      3.965      5.793
REMARK  Name = 
REMARK  3 active torsions:
REMARK  status: ('A' for Active; 'I' for Inactive)
REMARK    1  A    between atoms: N_3  and  C_4
REMARK    2  A    between atoms: C_4  and  C_5
REMARK    3  A    between atoms: N_15  and  C_16
REMARK                            x       y       z     vdW  Elec       q    Type
REMARK                         _______ _______ _______ _____ _____    ______ ____
ROOT
ATOM      1  O   UNL     1       6.750   3.857  16.780  0.00  0.00    +0.000 OA
ATOM      2  C   UNL     1       6.989   5.039  16.560  0.00  0.00    +0.000 C 
ATOM      3  N   UNL     1       7.173   5.951  17.578  0.00  0.00    +0.000 N 
ATOM      4  N   UNL     1       7.162   5.628  15.328  0.00  0.00    +0.000 N 
ATOM      5  H   UNL     1       6.832   6.880  17.370  0.00  0.00    +0.000 HD
ATOM      6  H   UNL     1       7.592   6.540  15.341  0.00  0.00    +0.000 HD
ENDROOT
BRANCH   4   7
ATOM      7  C   UNL     1       7.058   4.986  14.075  0.00  0.00    +0.000 A 
ATOM      8  C   UNL     1       7.839   5.319  12.968  0.00  0.00    +0.000 A 
ATOM      9  C   UNL     1       7.640   4.660  11.755  0.00  0.00    +0.000 A 
ATOM     10  C   UNL     1       6.667   3.677  11.688  0.00  0.00    +0.000 A 
ATOM     11  N   UNL     1       5.911   3.301  12.742  0.00  0.00    +0.000 NA
ATOM     12  C   UNL     1       6.129   3.960  13.906  0.00  0.00    +0.000 A 
ENDBRANCH   4   7
BRANCH   3  13
ATOM     13  C   UNL     1       6.962   5.529  18.959  0.00  0.00    +0.000 C 
BRANCH  13  14
ATOM     14  C   UNL     1       5.465   5.311  19.277  0.00  0.00    +0.000 C 
ATOM     15  C   UNL     1       4.586   6.157  18.356  0.00  0.00    +0.000 C 
ATOM     16  C   UNL     1       3.113   5.945  18.692  0.00  0.00    +0.000 C 
ATOM     17  C   UNL     1       2.778   4.488  18.862  0.00  0.00    +0.000 A 
ATOM     18  C   UNL     1       1.434   4.082  18.844  0.00  0.00    +0.000 A 
ATOM     19  C   UNL     1       1.097   2.738  19.004  0.00  0.00    +0.000 A 
ATOM     20  C   UNL     1       2.101   1.789  19.169  0.00  0.00    +0.000 A 
ATOM     21  C   UNL     1       3.437   2.186  19.192  0.00  0.00    +0.000 A 
ATOM     22  C   UNL     1       3.789   3.536  19.067  0.00  0.00    +0.000 A 
ATOM     23  N   UNL     1       5.150   3.876  19.131  0.00  0.00    +0.000 N 
ATOM     24  H   UNL     1       5.640   3.427  18.358  0.00  0.00    +0.000 HD
ENDBRANCH  13  14
ENDBRANCH   3  13
TORSDOF 3
ENDMDL
MODEL 8
REMARK VINA RESULT:      -7.3      5.792      8.518
REMARK  Name = 
REMARK  3 active torsions:
REMARK  status: ('A' for Active; 'I' for Inactive)
REMARK    1  A    between atoms: N_3  and  C_4
REMARK    2  A    between atoms: C_4  and  C_5
REMARK    3  A    between atoms: N_15  and  C_16
REMARK                            x       y       z     vdW  Elec       q    Type
REMARK                         _______ _______ _______ _____ _____    ______ ____
ROOT
ATOM      1  O   UNL     1       2.457   8.227  17.707  0.00  0.00    +0.000 OA
ATOM      2  C   UNL     1       2.180   7.876  18.848  0.00  0.00    +0.000 C 
ATOM      3  N   UNL     1       1.477   8.686  19.716  0.00  0.00    +0.000 N 
ATOM      4  N   UNL     1       2.456   6.654  19.422  0.00  0.00    +0.000 N 
ATOM      5  H   UNL     1       1.751   8.593  20.684  0.00  0.00    +0.000 HD
ATOM      6  H   UNL     1       1.945   6.449  20.267  0.00  0.00    +0.000 HD
ENDROOT
BRANCH   4   7
ATOM      7  C   UNL     1       3.148   5.584  18.815  0.00  0.00    +0.000 A 
ATOM      8  C   UNL     1       2.586   4.749  17.849  0.00  0.00    +0.000 A 
ATOM      9  C   UNL     1       3.331   3.689  17.332  0.00  0.00    +0.000 A 
ATOM     10  C   UNL     1       4.622   3.500  17.794  0.00  0.00    +0.000 A 
ATOM     11  N   UNL     1       5.216   4.303  18.703  0.00  0.00    +0.000 NA
ATOM     12  C   UNL     1       4.467   5.324  19.186  0.00  0.00    +0.000 A 
ENDBRANCH   4   7
BRANCH   3  13
ATOM     13  C   UNL     1       1.153  10.049  19.310  0.00  0.00    +0.000 C 
BRANCH  13  14
ATOM     14  C   UNL     1      -0.371  10.260  19.149  0.00  0.00    +0.000 C 
ATOM     15  C   UNL     1      -0.784  11.641  19.658  0.00  0.00    +0.000 C 
ATOM     16  C   UNL     1      -2.290  11.828  19.508  0.00  0.00    +0.000 C 
ATOM     17  C   UNL     1      -2.782  11.386  18.157  0.00  0.00    +0.000 A 
ATOM     18  C   UNL     1      -4.056  11.784  17.722  0.00  0.00    +0.000 A 
ATOM     19  C   UNL     1      -4.537  11.384  16.475  0.00  0.00    +0.000 A 
ATOM     20  C   UNL     1      -3.742  10.595  15.649  0.00  0.00    +0.000 A 
ATOM     21  C   UNL     1      -2.478  10.193  16.077  0.00  0.00    +0.000 A 
ATOM     22  C   UNL     1      -1.996  10.559  17.339  0.00  0.00    +0.000 A 
ATOM     23  N   UNL     1      -0.727  10.096  17.725  0.00  0.00    +0.000 N 
ATOM     24  H   UNL     1      -0.029  10.469  17.084  0.00  0.00    +0.000 HD
ENDBRANCH  13  14
ENDBRANCH   3  13
TORSDOF 3
ENDMDL
MODEL 9
REMARK VINA RESULT:      -7.3      5.178      7.309
REMARK  Name = 
REMARK  3 active torsions:
REMARK  status: ('A' for Active; 'I' for Inactive)
REMARK    1  A    between atoms: N_3  and  C_4
REMARK    2  A    between atoms: C_4  and  C_5
REMARK    3  A    between atoms: N_15  and  C_16
REMARK                            x       y       z     vdW  Elec       q    Type
REMARK                         _______ _______ _______ _____ _____    ______ ____
ROOT
ATOM      1  O   UNL     1       1.232   9.079  19.647  0.00  0.00    +0.000 OA
ATOM      2  C   UNL     1       1.249   9.437  18.475  0.00  0.00    +0.000 C 
ATOM      3  N   UNL     1       2.137   8.912  17.559  0.00  0.00    +0.000 N 
ATOM      4  N   UNL     1       0.397  10.340  17.878  0.00  0.00    +0.000 N 
ATOM      5  H   UNL     1       2.451   9.570  16.860  0.00  0.00    +0.000 HD
ATOM      6  H   UNL     1       0.394  10.329  16.870  0.00  0.00    +0.000 HD
ENDROOT
BRANCH   4   7
ATOM      7  C   UNL     1      -0.639  11.056  18.516  0.00  0.00    +0.000 A 
ATOM      8  C   UNL     1      -1.994  10.856  18.251  0.00  0.00    +0.000 A 
ATOM      9  C   UNL     1      -2.949  11.639  18.898  0.00  0.00    +0.000 A 
ATOM     10  C   UNL     1      -2.519  12.596  19.801  0.00  0.00    +0.000 A 
ATOM     11  N   UNL     1      -1.221  12.801  20.111  0.00  0.00    +0.000 NA
ATOM     12  C   UNL     1      -0.317  12.025  19.466  0.00  0.00    +0.000 A 
ENDBRANCH   4   7
BRANCH   3  13
ATOM     13  C   UNL     1       3.167   7.986  18.019  0.00  0.00    +0.000 C 
BRANCH  13  14
ATOM     14  C   UNL     1       2.689   6.516  17.974  0.00  0.00    +0.000 C 
ATOM     15  C   UNL     1       3.802   5.599  17.468  0.00  0.00    +0.000 C 
ATOM     16  C   UNL     1       3.310   4.156  17.413  0.00  0.00    +0.000 C 
ATOM     17  C   UNL     1       2.572   3.764  18.665  0.00  0.00    +0.000 A 
ATOM     18  C   UNL     1       2.342   2.405  18.934  0.00  0.00    +0.000 A 
ATOM     19  C   UNL     1       1.657   2.016  20.084  0.00  0.00    +0.000 A 
ATOM     20  C   UNL     1       1.210   2.981  20.982  0.00  0.00    +0.000 A 
ATOM     21  C   UNL     1       1.431   4.332  20.718  0.00  0.00    +0.000 A 
ATOM     22  C   UNL     1       2.087   4.739  19.550  0.00  0.00    +0.000 A 
ATOM     23  N   UNL     1       2.252   6.116  19.327  0.00  0.00    +0.000 N 
ATOM     24  H   UNL     1       2.825   6.506  20.074  0.00  0.00    +0.000 HD
ENDBRANCH  13  14
ENDBRANCH   3  13
TORSDOF 3
ENDMDL
