MODEL 1
REMARK VINA RESULT:      -7.4      0.000      0.000
REMARK  Name = 
REMARK  6 active torsions:
REMARK  status: ('A' for Active; 'I' for Inactive)
REMARK    1  A    between atoms: C_1  and  C_2
REMARK    2  A    between atoms: C_3  and  C_4
REMARK    3  A    between atoms: C_7  and  O_8
REMARK    4  A    between atoms: C_15  and  C_16
REMARK    5  A    between atoms: C_22  and  N_23
REMARK    6  A    between atoms: N_30  and  C_31
REMARK                            x       y       z     vdW  Elec       q    Type
REMARK                         _______ _______ _______ _____ _____    ______ ____
ROOT
ATOM      1  C   UNL     1       0.144   7.978  21.307  0.00  0.00    +0.000 C 
ATOM      2  C   UNL     1       1.147   7.902  20.162  0.00  0.00    +0.000 A 
ATOM      3  C   UNL     1       1.394   8.995  19.398  0.00  0.00    +0.000 A 
ATOM      4  C   UNL     1       2.378   8.880  18.281  0.00  0.00    +0.000 A 
ATOM      5  O   UNL     1       2.671   9.806  17.531  0.00  0.00    +0.000 OA
ATOM      6  N   UNL     1       2.963   7.613  18.138  0.00  0.00    +0.000 N 
ATOM      7  N   UNL     1       3.848   7.393  17.145  0.00  0.00    +0.000 NA
ATOM      8  C   UNL     1       4.197   6.107  17.254  0.00  0.00    +0.000 A 
ATOM      9  C   UNL     1       3.519   5.487  18.380  0.00  0.00    +0.000 A 
ATOM     10  C   UNL     1       2.716   6.498  18.926  0.00  0.00    +0.000 A 
ATOM     11  N   UNL     1       1.783   6.646  19.940  0.00  0.00    +0.000 N 
ATOM     12  C   UNL     1       1.429   5.488  20.768  0.00  0.00    +0.000 C 
ENDROOT
BRANCH   3  13
ATOM     13  C   UNL     1       0.756  10.314  19.607  0.00  0.00    +0.000 A 
ATOM     14  C   UNL     1       1.301  11.229  20.522  0.00  0.00    +0.000 A 
ATOM     15  C   UNL     1       0.713  12.485  20.704  0.00  0.00    +0.000 A 
ATOM     16  C   UNL     1      -0.426  12.819  19.976  0.00  0.00    +0.000 A 
ATOM     17  C   UNL     1      -0.975  11.925  19.066  0.00  0.00    +0.000 A 
ATOM     18  C   UNL     1      -0.389  10.671  18.880  0.00  0.00    +0.000 A 
BRANCH  16  19
ATOM     19  O   UNL     1      -1.025  14.037  20.115  0.00  0.00    +0.000 OA
ATOM     20  H   UNL     1      -1.780  14.082  19.509  0.00  0.00    +0.000 HD
ENDBRANCH  16  19
ENDBRANCH   3  13
BRANCH   8  21
ATOM     21  C   UNL     1       5.136   5.581  16.250  0.00  0.00    +0.000 A 
ATOM     22  C   UNL     1       6.503   5.866  16.279  0.00  0.00    +0.000 A 
ATOM     23  C   UNL     1       7.385   5.235  15.394  0.00  0.00    +0.000 A 
ATOM     24  C   UNL     1       6.895   4.393  14.399  0.00  0.00    +0.000 A 
ATOM     25  C   UNL     1       5.522   4.191  14.282  0.00  0.00    +0.000 A 
ATOM     26  C   UNL     1       4.651   4.771  15.207  0.00  0.00    +0.000 A 
ENDBRANCH   8  21
BRANCH   9  27
ATOM     27  N   UNL     1       3.589   4.173  18.823  0.00  0.00    +0.000 N 
ATOM     28  C   UNL     1       2.889   3.117  18.055  0.00  0.00    +0.000 C 
ATOM     29  C   UNL     1       2.715   1.836  18.867  0.00  0.00    +0.000 C 
ATOM     30  C   UNL     1       4.054   1.351  19.413  0.00  0.00    +0.000 C 
ATOM     31  C   UNL     1       4.733   2.466  20.201  0.00  0.00    +0.000 C 
ATOM     32  C   UNL     1       4.898   3.728  19.349  0.00  0.00    +0.000 C 
ENDBRANCH   9  27
TORSDOF 4
ENDMDL
MODEL 2
REMARK VINA RESULT:      -7.4      0.115      1.231
REMARK  Name = 
REMARK  6 active torsions:
REMARK  status: ('A' for Active; 'I' for Inactive)
REMARK    1  A    between atoms: C_1  and  C_2
REMARK    2  A    between atoms: C_3  and  C_4
REMARK    3  A    between atoms: C_7  and  O_8
REMARK    4  A    between atoms: C_15  and  C_16
REMARK    5  A    between atoms: C_22  and  N_23
REMARK    6  A    between atoms: N_30  and  C_31
REMARK                            x       y       z     vdW  Elec       q    Type
REMARK                         _______ _______ _______ _____ _____    ______ ____
ROOT
ATOM      1  C   UNL     1       0.158   7.949  21.261  0.00  0.00    +0.000 C 
ATOM      2  C   UNL     1       1.167   7.856  20.122  0.00  0.00    +0.000 A 
ATOM      3  C   UNL     1       1.439   8.946  19.362  0.00  0.00    +0.000 A 
ATOM      4  C   UNL     1       2.427   8.814  18.251  0.00  0.00    +0.000 A 
ATOM      5  O   UNL     1       2.743   9.736  17.506  0.00  0.00    +0.000 OA
ATOM      6  N   UNL     1       2.989   7.537  18.109  0.00  0.00    +0.000 N 
ATOM      7  N   UNL     1       3.875   7.302  17.121  0.00  0.00    +0.000 NA
ATOM      8  C   UNL     1       4.199   6.009  17.229  0.00  0.00    +0.000 A 
ATOM      9  C   UNL     1       3.502   5.400  18.349  0.00  0.00    +0.000 A 
ATOM     10  C   UNL     1       2.715   6.425  18.892  0.00  0.00    +0.000 A 
ATOM     11  N   UNL     1       1.779   6.589  19.901  0.00  0.00    +0.000 N 
ATOM     12  C   UNL     1       1.398   5.435  20.724  0.00  0.00    +0.000 C 
ENDROOT
BRANCH   3  13
ATOM     13  C   UNL     1       0.826  10.276  19.571  0.00  0.00    +0.000 A 
ATOM     14  C   UNL     1      -0.319  10.651  18.849  0.00  0.00    +0.000 A 
ATOM     15  C   UNL     1      -0.914  11.899  19.061  0.00  0.00    +0.000 A 
ATOM     16  C   UNL     1      -0.357  12.773  19.990  0.00  0.00    +0.000 A 
ATOM     17  C   UNL     1       0.774  12.416  20.713  0.00  0.00    +0.000 A 
ATOM     18  C   UNL     1       1.369  11.170  20.505  0.00  0.00    +0.000 A 
BRANCH  16  19
ATOM     19  O   UNL     1      -0.912  13.995  20.236  0.00  0.00    +0.000 OA
ATOM     20  H   UNL     1      -1.672  13.877  20.826  0.00  0.00    +0.000 HD
ENDBRANCH  16  19
ENDBRANCH   3  13
BRANCH   8  21
ATOM     21  C   UNL     1       5.134   5.468  16.229  0.00  0.00    +0.000 A 
ATOM     22  C   UNL     1       4.717   4.645  15.180  0.00  0.00    +0.000 A 
ATOM     23  C   UNL     1       5.608   4.267  14.169  0.00  0.00    +0.000 A 
ATOM     24  C   UNL     1       6.953   4.619  14.254  0.00  0.00    +0.000 A 
ATOM     25  C   UNL     1       7.408   5.339  15.355  0.00  0.00    +0.000 A 
ATOM     26  C   UNL     1       6.504   5.770  16.328  0.00  0.00    +0.000 A 
ENDBRANCH   8  21
BRANCH   9  27
ATOM     27  N   UNL     1       3.544   4.084  18.790  0.00  0.00    +0.000 N 
ATOM     28  C   UNL     1       2.866   3.036  17.990  0.00  0.00    +0.000 C 
ATOM     29  C   UNL     1       2.650   1.754  18.789  0.00  0.00    +0.000 C 
ATOM     30  C   UNL     1       3.963   1.256  19.385  0.00  0.00    +0.000 C 
ATOM     31  C   UNL     1       4.619   2.362  20.203  0.00  0.00    +0.000 C 
ATOM     32  C   UNL     1       4.828   3.626  19.364  0.00  0.00    +0.000 C 
ENDBRANCH   9  27
TORSDOF 4
ENDMDL
MODEL 3
REMARK VINA RESULT:      -7.3      1.597      2.290
REMARK  Name = 
REMARK  6 active torsions:
REMARK  status: ('A' for Active; 'I' for Inactive)
REMARK    1  A    between atoms: C_1  and  C_2
REMARK    2  A    between atoms: C_3  and  C_4
REMARK    3  A    between atoms: C_7  and  O_8
REMARK    4  A    between atoms: C_15  and  C_16
REMARK    5  A    between atoms: C_22  and  N_23
REMARK    6  A    between atoms: N_30  and  C_31
REMARK                            x       y       z     vdW  Elec       q    Type
REMARK                         _______ _______ _______ _____ _____    ______ ____
ROOT
ATOM      1  C   UNL     1      -0.388  10.322  21.249  0.00  0.00    +0.000 C 
ATOM      2  C   UNL     1       0.622   9.795  20.236  0.00  0.00    +0.000 A 
ATOM      3  C   UNL     1       1.188  10.637  19.336  0.00  0.00    +0.000 A 
ATOM      4  C   UNL     1       2.168  10.083  18.355  0.00  0.00    +0.000 A 
ATOM      5  O   UNL     1       2.734  10.757  17.500  0.00  0.00    +0.000 OA
ATOM      6  N   UNL     1       2.409   8.706  18.475  0.00  0.00    +0.000 N 
ATOM      7  N   UNL     1       3.258   8.099  17.623  0.00  0.00    +0.000 NA
ATOM      8  C   UNL     1       3.253   6.807  17.970  0.00  0.00    +0.000 A 
ATOM      9  C   UNL     1       2.375   6.588  19.107  0.00  0.00    +0.000 A 
ATOM     10  C   UNL     1       1.835   7.848  19.402  0.00  0.00    +0.000 A 
ATOM     11  N   UNL     1       0.919   8.402  20.282  0.00  0.00    +0.000 N 
ATOM     12  C   UNL     1       0.229   7.536  21.244  0.00  0.00    +0.000 C 
ENDROOT
BRANCH   3  13
ATOM     13  C   UNL     1       0.907  12.088  19.268  0.00  0.00    +0.000 A 
ATOM     14  C   UNL     1      -0.196  12.563  18.540  0.00  0.00    +0.000 A 
ATOM     15  C   UNL     1      -0.478  13.933  18.494  0.00  0.00    +0.000 A 
ATOM     16  C   UNL     1       0.351  14.825  19.168  0.00  0.00    +0.000 A 
ATOM     17  C   UNL     1       1.445  14.370  19.893  0.00  0.00    +0.000 A 
ATOM     18  C   UNL     1       1.727  13.003  19.944  0.00  0.00    +0.000 A 
BRANCH  16  19
ATOM     19  O   UNL     1       0.107  16.167  19.157  0.00  0.00    +0.000 OA
ATOM     20  H   UNL     1      -0.842  16.308  19.016  0.00  0.00    +0.000 HD
ENDBRANCH  16  19
ENDBRANCH   3  13
BRANCH   8  21
ATOM     21  C   UNL     1       4.076   5.894  17.161  0.00  0.00    +0.000 A 
ATOM     22  C   UNL     1       4.042   4.507  17.327  0.00  0.00    +0.000 A 
ATOM     23  C   UNL     1       4.728   3.664  16.446  0.00  0.00    +0.000 A 
ATOM     24  C   UNL     1       5.544   4.202  15.454  0.00  0.00    +0.000 A 
ATOM     25  C   UNL     1       5.681   5.584  15.350  0.00  0.00    +0.000 A 
ATOM     26  C   UNL     1       4.944   6.423  16.189  0.00  0.00    +0.000 A 
ENDBRANCH   8  21
BRANCH   9  27
ATOM     27  N   UNL     1       2.075   5.400  19.759  0.00  0.00    +0.000 N 
ATOM     28  C   UNL     1       1.351   4.338  19.021  0.00  0.00    +0.000 C 
ATOM     29  C   UNL     1       0.746   3.297  19.959  0.00  0.00    +0.000 C 
ATOM     30  C   UNL     1       1.807   2.721  20.891  0.00  0.00    +0.000 C 
ATOM     31  C   UNL     1       2.518   3.846  21.633  0.00  0.00    +0.000 C 
ATOM     32  C   UNL     1       3.119   4.863  20.657  0.00  0.00    +0.000 C 
ENDBRANCH   9  27
TORSDOF 4
ENDMDL
MODEL 4
REMARK VINA RESULT:      -7.1      1.529      2.154
REMARK  Name = 
REMARK  6 active torsions:
REMARK  status: ('A' for Active; 'I' for Inactive)
REMARK    1  A    between atoms: C_1  and  C_2
REMARK    2  A    between atoms: C_3  and  C_4
REMARK    3  A    between atoms: C_7  and  O_8
REMARK    4  A    between atoms: C_15  and  C_16
REMARK    5  A    between atoms: C_22  and  N_23
REMARK    6  A    between atoms: N_30  and  C_31
REMARK                            x       y       z     vdW  Elec       q    Type
REMARK                         _______ _______ _______ _____ _____    ______ ____
ROOT
ATOM      1  C   UNL     1      -0.314   9.987  21.254  0.00  0.00    +0.000 C 
ATOM      2  C   UNL     1       0.697   9.506  20.220  0.00  0.00    +0.000 A 
ATOM      3  C   UNL     1       1.216  10.377  19.318  0.00  0.00    +0.000 A 
ATOM      4  C   UNL     1       2.198   9.867  18.316  0.00  0.00    +0.000 A 
ATOM      5  O   UNL     1       2.724  10.569  17.458  0.00  0.00    +0.000 OA
ATOM      6  N   UNL     1       2.493   8.499  18.420  0.00  0.00    +0.000 N 
ATOM      7  N   UNL     1       3.350   7.931  17.548  0.00  0.00    +0.000 NA
ATOM      8  C   UNL     1       3.398   6.638  17.884  0.00  0.00    +0.000 A 
ATOM      9  C   UNL     1       2.548   6.377  19.034  0.00  0.00    +0.000 A 
ATOM     10  C   UNL     1       1.967   7.613  19.348  0.00  0.00    +0.000 A 
ATOM     11  N   UNL     1       1.046   8.126  20.249  0.00  0.00    +0.000 N 
ATOM     12  C   UNL     1       0.406   7.226  21.215  0.00  0.00    +0.000 C 
ENDROOT
BRANCH   3  13
ATOM     13  C   UNL     1       0.880  11.817  19.267  0.00  0.00    +0.000 A 
ATOM     14  C   UNL     1       1.664  12.754  19.958  0.00  0.00    +0.000 A 
ATOM     15  C   UNL     1       1.361  14.118  19.892  0.00  0.00    +0.000 A 
ATOM     16  C   UNL     1       0.267  14.540  19.142  0.00  0.00    +0.000 A 
ATOM     17  C   UNL     1      -0.517  13.625  18.452  0.00  0.00    +0.000 A 
ATOM     18  C   UNL     1      -0.216  12.263  18.513  0.00  0.00    +0.000 A 
BRANCH  16  19
ATOM     19  O   UNL     1      -0.057  15.862  19.042  0.00  0.00    +0.000 OA
ATOM     20  H   UNL     1      -1.020  15.951  19.112  0.00  0.00    +0.000 HD
ENDBRANCH  16  19
ENDBRANCH   3  13
BRANCH   8  21
ATOM     21  C   UNL     1       4.241   5.762  17.053  0.00  0.00    +0.000 A 
ATOM     22  C   UNL     1       4.297   4.379  17.238  0.00  0.00    +0.000 A 
ATOM     23  C   UNL     1       4.996   3.565  16.340  0.00  0.00    +0.000 A 
ATOM     24  C   UNL     1       5.736   4.135  15.309  0.00  0.00    +0.000 A 
ATOM     25  C   UNL     1       5.786   5.520  15.181  0.00  0.00    +0.000 A 
ATOM     26  C   UNL     1       5.035   6.327  16.039  0.00  0.00    +0.000 A 
ENDBRANCH   8  21
BRANCH   9  27
ATOM     27  N   UNL     1       2.304   5.173  19.680  0.00  0.00    +0.000 N 
ATOM     28  C   UNL     1       2.385   5.122  21.159  0.00  0.00    +0.000 C 
ATOM     29  C   UNL     1       2.501   3.692  21.679  0.00  0.00    +0.000 C 
ATOM     30  C   UNL     1       1.370   2.822  21.140  0.00  0.00    +0.000 C 
ATOM     31  C   UNL     1       1.331   2.899  19.618  0.00  0.00    +0.000 C 
ATOM     32  C   UNL     1       1.204   4.348  19.137  0.00  0.00    +0.000 C 
ENDBRANCH   9  27
TORSDOF 4
ENDMDL
MODEL 5
REMARK VINA RESULT:      -7.0      1.548      2.287
REMARK  Name = 
REMARK  6 active torsions:
REMARK  status: ('A' for Active; 'I' for Inactive)
REMARK    1  A    between atoms: C_1  and  C_2
REMARK    2  A    between atoms: C_3  and  C_4
REMARK    3  A    between atoms: C_7  and  O_8
REMARK    4  A    between atoms: C_15  and  C_16
REMARK    5  A    between atoms: C_22  and  N_23
REMARK    6  A    between atoms: N_30  and  C_31
REMARK                            x       y       z     vdW  Elec       q    Type
REMARK                         _______ _______ _______ _____ _____    ______ ____
ROOT
ATOM      1  C   UNL     1      -0.294  10.045  21.270  0.00  0.00    +0.000 C 
ATOM      2  C   UNL     1       0.705   9.553  20.228  0.00  0.00    +0.000 A 
ATOM      3  C   UNL     1       1.220  10.416  19.317  0.00  0.00    +0.000 A 
ATOM      4  C   UNL     1       2.189   9.896  18.308  0.00  0.00    +0.000 A 
ATOM      5  O   UNL     1       2.711  10.591  17.441  0.00  0.00    +0.000 OA
ATOM      6  N   UNL     1       2.476   8.527  18.415  0.00  0.00    +0.000 N 
ATOM      7  N   UNL     1       3.321   7.950  17.538  0.00  0.00    +0.000 NA
ATOM      8  C   UNL     1       3.365   6.658  17.879  0.00  0.00    +0.000 A 
ATOM      9  C   UNL     1       2.525   6.407  19.039  0.00  0.00    +0.000 A 
ATOM     10  C   UNL     1       1.955   7.648  19.353  0.00  0.00    +0.000 A 
ATOM     11  N   UNL     1       1.045   8.170  20.260  0.00  0.00    +0.000 N 
ATOM     12  C   UNL     1       0.410   7.279  21.236  0.00  0.00    +0.000 C 
ENDROOT
BRANCH   3  13
ATOM     13  C   UNL     1       0.891  11.858  19.262  0.00  0.00    +0.000 A 
ATOM     14  C   UNL     1      -0.219  12.305  18.529  0.00  0.00    +0.000 A 
ATOM     15  C   UNL     1      -0.546  13.665  18.496  0.00  0.00    +0.000 A 
ATOM     16  C   UNL     1       0.247  14.576  19.189  0.00  0.00    +0.000 A 
ATOM     17  C   UNL     1       1.348  14.148  19.920  0.00  0.00    +0.000 A 
ATOM     18  C   UNL     1       1.674  12.791  19.957  0.00  0.00    +0.000 A 
BRANCH  16  19
ATOM     19  O   UNL     1      -0.042  15.909  19.191  0.00  0.00    +0.000 OA
ATOM     20  H   UNL     1      -0.922  16.035  19.578  0.00  0.00    +0.000 HD
ENDBRANCH  16  19
ENDBRANCH   3  13
BRANCH   8  21
ATOM     21  C   UNL     1       4.194   5.773  17.044  0.00  0.00    +0.000 A 
ATOM     22  C   UNL     1       5.085   6.264  16.087  0.00  0.00    +0.000 A 
ATOM     23  C   UNL     1       5.958   5.402  15.414  0.00  0.00    +0.000 A 
ATOM     24  C   UNL     1       5.875   4.026  15.613  0.00  0.00    +0.000 A 
ATOM     25  C   UNL     1       4.913   3.512  16.477  0.00  0.00    +0.000 A 
ATOM     26  C   UNL     1       4.087   4.379  17.196  0.00  0.00    +0.000 A 
ENDBRANCH   8  21
BRANCH   9  27
ATOM     27  N   UNL     1       2.281   5.207  19.693  0.00  0.00    +0.000 N 
ATOM     28  C   UNL     1       2.430   5.149  21.167  0.00  0.00    +0.000 C 
ATOM     29  C   UNL     1       2.533   3.715  21.677  0.00  0.00    +0.000 C 
ATOM     30  C   UNL     1       1.355   2.877  21.190  0.00  0.00    +0.000 C 
ATOM     31  C   UNL     1       1.245   2.961  19.672  0.00  0.00    +0.000 C 
ATOM     32  C   UNL     1       1.134   4.414  19.202  0.00  0.00    +0.000 C 
ENDBRANCH   9  27
TORSDOF 4
ENDMDL
MODEL 6
REMARK VINA RESULT:      -6.6      4.454     10.952
REMARK  Name = 
REMARK  6 active torsions:
REMARK  status: ('A' for Active; 'I' for Inactive)
REMARK    1  A    between atoms: C_1  and  C_2
REMARK    2  A    between atoms: C_3  and  C_4
REMARK    3  A    between atoms: C_7  and  O_8
REMARK    4  A    between atoms: C_15  and  C_16
REMARK    5  A    between atoms: C_22  and  N_23
REMARK    6  A    between atoms: N_30  and  C_31
REMARK                            x       y       z     vdW  Elec       q    Type
REMARK                         _______ _______ _______ _____ _____    ______ ____
ROOT
ATOM      1  C   UNL     1      -1.488   9.897  17.801  0.00  0.00    +0.000 C 
ATOM      2  C   UNL     1      -1.119  10.679  19.057  0.00  0.00    +0.000 A 
ATOM      3  C   UNL     1       0.041  10.414  19.708  0.00  0.00    +0.000 A 
ATOM      4  C   UNL     1       0.364  11.195  20.938  0.00  0.00    +0.000 A 
ATOM      5  O   UNL     1       1.383  11.033  21.602  0.00  0.00    +0.000 OA
ATOM      6  N   UNL     1      -0.595  12.154  21.298  0.00  0.00    +0.000 N 
ATOM      7  N   UNL     1      -0.413  12.899  22.407  0.00  0.00    +0.000 NA
ATOM      8  C   UNL     1      -1.492  13.684  22.493  0.00  0.00    +0.000 A 
ATOM      9  C   UNL     1      -2.391  13.440  21.377  0.00  0.00    +0.000 A 
ATOM     10  C   UNL     1      -1.776  12.429  20.626  0.00  0.00    +0.000 A 
ATOM     11  N   UNL     1      -2.044  11.668  19.498  0.00  0.00    +0.000 N 
ATOM     12  C   UNL     1      -3.307  11.867  18.779  0.00  0.00    +0.000 C 
ENDROOT
BRANCH   3  13
ATOM     13  C   UNL     1       1.024   9.398  19.271  0.00  0.00    +0.000 A 
ATOM     14  C   UNL     1       1.303   8.286  20.080  0.00  0.00    +0.000 A 
ATOM     15  C   UNL     1       2.215   7.313  19.658  0.00  0.00    +0.000 A 
ATOM     16  C   UNL     1       2.853   7.461  18.429  0.00  0.00    +0.000 A 
ATOM     17  C   UNL     1       2.586   8.555  17.617  0.00  0.00    +0.000 A 
ATOM     18  C   UNL     1       1.674   9.527  18.035  0.00  0.00    +0.000 A 
BRANCH  16  19
ATOM     19  O   UNL     1       3.741   6.530  17.974  0.00  0.00    +0.000 OA
ATOM     20  H   UNL     1       3.315   6.011  17.275  0.00  0.00    +0.000 HD
ENDBRANCH  16  19
ENDBRANCH   3  13
BRANCH   8  21
ATOM     21  C   UNL     1      -1.574  14.583  23.656  0.00  0.00    +0.000 A 
ATOM     22  C   UNL     1      -2.588  14.483  24.611  0.00  0.00    +0.000 A 
ATOM     23  C   UNL     1      -2.553  15.259  25.775  0.00  0.00    +0.000 A 
ATOM     24  C   UNL     1      -1.561  16.222  25.946  0.00  0.00    +0.000 A 
ATOM     25  C   UNL     1      -0.610  16.415  24.948  0.00  0.00    +0.000 A 
ATOM     26  C   UNL     1      -0.610  15.594  23.817  0.00  0.00    +0.000 A 
ENDBRANCH   8  21
BRANCH   9  27
ATOM     27  N   UNL     1      -3.619  14.028  21.105  0.00  0.00    +0.000 N 
ATOM     28  C   UNL     1      -4.837  13.478  21.747  0.00  0.00    +0.000 C 
ATOM     29  C   UNL     1      -6.112  13.943  21.051  0.00  0.00    +0.000 C 
ATOM     30  C   UNL     1      -6.157  15.465  20.954  0.00  0.00    +0.000 C 
ATOM     31  C   UNL     1      -4.891  15.983  20.281  0.00  0.00    +0.000 C 
ATOM     32  C   UNL     1      -3.635  15.503  21.015  0.00  0.00    +0.000 C 
ENDBRANCH   9  27
TORSDOF 4
ENDMDL
MODEL 7
REMARK VINA RESULT:      -6.5      4.451     10.943
REMARK  Name = 
REMARK  6 active torsions:
REMARK  status: ('A' for Active; 'I' for Inactive)
REMARK    1  A    between atoms: C_1  and  C_2
REMARK    2  A    between atoms: C_3  and  C_4
REMARK    3  A    between atoms: C_7  and  O_8
REMARK    4  A    between atoms: C_15  and  C_16
REMARK    5  A    between atoms: C_22  and  N_23
REMARK    6  A    between atoms: N_30  and  C_31
REMARK                            x       y       z     vdW  Elec       q    Type
REMARK                         _______ _______ _______ _____ _____    ______ ____
ROOT
ATOM      1  C   UNL     1      -1.526   9.888  17.794  0.00  0.00    +0.000 C 
ATOM      2  C   UNL     1      -1.139  10.663  19.048  0.00  0.00    +0.000 A 
ATOM      3  C   UNL     1       0.023  10.384  19.691  0.00  0.00    +0.000 A 
ATOM      4  C   UNL     1       0.364  11.159  20.920  0.00  0.00    +0.000 A 
ATOM      5  O   UNL     1       1.387  10.984  21.575  0.00  0.00    +0.000 OA
ATOM      6  N   UNL     1      -0.582  12.127  21.289  0.00  0.00    +0.000 N 
ATOM      7  N   UNL     1      -0.383  12.868  22.398  0.00  0.00    +0.000 NA
ATOM      8  C   UNL     1      -1.453  13.664  22.494  0.00  0.00    +0.000 A 
ATOM      9  C   UNL     1      -2.364  13.432  21.385  0.00  0.00    +0.000 A 
ATOM     10  C   UNL     1      -1.765  12.417  20.626  0.00  0.00    +0.000 A 
ATOM     11  N   UNL     1      -2.050  11.661  19.499  0.00  0.00    +0.000 N 
ATOM     12  C   UNL     1      -3.316  11.875  18.790  0.00  0.00    +0.000 C 
ENDROOT
BRANCH   3  13
ATOM     13  C   UNL     1       0.992   9.359  19.243  0.00  0.00    +0.000 A 
ATOM     14  C   UNL     1       1.649   9.495  18.011  0.00  0.00    +0.000 A 
ATOM     15  C   UNL     1       2.583   8.539  17.596  0.00  0.00    +0.000 A 
ATOM     16  C   UNL     1       2.850   7.444  18.414  0.00  0.00    +0.000 A 
ATOM     17  C   UNL     1       2.208   7.298  19.637  0.00  0.00    +0.000 A 
ATOM     18  C   UNL     1       1.278   8.251  20.054  0.00  0.00    +0.000 A 
BRANCH  16  19
ATOM     19  O   UNL     1       3.761   6.495  18.053  0.00  0.00    +0.000 OA
ATOM     20  H   UNL     1       4.632   6.914  17.979  0.00  0.00    +0.000 HD
ENDBRANCH  16  19
ENDBRANCH   3  13
BRANCH   8  21
ATOM     21  C   UNL     1      -1.517  14.561  23.659  0.00  0.00    +0.000 A 
ATOM     22  C   UNL     1      -0.597  15.593  23.863  0.00  0.00    +0.000 A 
ATOM     23  C   UNL     1      -0.773  16.513  24.903  0.00  0.00    +0.000 A 
ATOM     24  C   UNL     1      -1.810  16.347  25.816  0.00  0.00    +0.000 A 
ATOM     25  C   UNL     1      -2.666  15.256  25.696  0.00  0.00    +0.000 A 
ATOM     26  C   UNL     1      -2.528  14.376  24.620  0.00  0.00    +0.000 A 
ENDBRANCH   8  21
BRANCH   9  27
ATOM     27  N   UNL     1      -3.587  14.033  21.123  0.00  0.00    +0.000 N 
ATOM     28  C   UNL     1      -4.813  13.460  21.728  0.00  0.00    +0.000 C 
ATOM     29  C   UNL     1      -6.080  13.957  21.037  0.00  0.00    +0.000 C 
ATOM     30  C   UNL     1      -6.121  15.481  21.003  0.00  0.00    +0.000 C 
ATOM     31  C   UNL     1      -4.846  16.024  20.367  0.00  0.00    +0.000 C 
ATOM     32  C   UNL     1      -3.599  15.511  21.094  0.00  0.00    +0.000 C 
ENDBRANCH   9  27
TORSDOF 4
ENDMDL
MODEL 8
REMARK VINA RESULT:      -6.4      4.570     11.079
REMARK  Name = 
REMARK  6 active torsions:
REMARK  status: ('A' for Active; 'I' for Inactive)
REMARK    1  A    between atoms: C_1  and  C_2
REMARK    2  A    between atoms: C_3  and  C_4
REMARK    3  A    between atoms: C_7  and  O_8
REMARK    4  A    between atoms: C_15  and  C_16
REMARK    5  A    between atoms: C_22  and  N_23
REMARK    6  A    between atoms: N_30  and  C_31
REMARK                            x       y       z     vdW  Elec       q    Type
REMARK                         _______ _______ _______ _____ _____    ______ ____
ROOT
ATOM      1  C   UNL     1      -1.770  10.025  18.206  0.00  0.00    +0.000 C 
ATOM      2  C   UNL     1      -1.233  10.910  19.325  0.00  0.00    +0.000 A 
ATOM      3  C   UNL     1       0.004  10.685  19.837  0.00  0.00    +0.000 A 
ATOM      4  C   UNL     1       0.493  11.568  20.937  0.00  0.00    +0.000 A 
ATOM      5  O   UNL     1       1.592  11.449  21.470  0.00  0.00    +0.000 OA
ATOM      6  N   UNL     1      -0.406  12.569  21.335  0.00  0.00    +0.000 N 
ATOM      7  N   UNL     1      -0.073  13.407  22.337  0.00  0.00    +0.000 NA
ATOM      8  C   UNL     1      -1.128  14.213  22.496  0.00  0.00    +0.000 A 
ATOM      9  C   UNL     1      -2.170  13.886  21.537  0.00  0.00    +0.000 A 
ATOM     10  C   UNL     1      -1.666  12.803  20.804  0.00  0.00    +0.000 A 
ATOM     11  N   UNL     1      -2.086  11.949  19.796  0.00  0.00    +0.000 N 
ATOM     12  C   UNL     1      -3.433  12.102  19.237  0.00  0.00    +0.000 C 
ENDROOT
BRANCH   3  13
ATOM     13  C   UNL     1       0.916   9.620  19.365  0.00  0.00    +0.000 A 
ATOM     14  C   UNL     1       1.202   8.517  20.184  0.00  0.00    +0.000 A 
ATOM     15  C   UNL     1       2.046   7.497  19.730  0.00  0.00    +0.000 A 
ATOM     16  C   UNL     1       2.608   7.589  18.460  0.00  0.00    +0.000 A 
ATOM     17  C   UNL     1       2.332   8.674  17.638  0.00  0.00    +0.000 A 
ATOM     18  C   UNL     1       1.489   9.692  18.087  0.00  0.00    +0.000 A 
BRANCH  16  19
ATOM     19  O   UNL     1       3.427   6.612  17.975  0.00  0.00    +0.000 OA
ATOM     20  H   UNL     1       3.058   6.284  17.140  0.00  0.00    +0.000 HD
ENDBRANCH  16  19
ENDBRANCH   3  13
BRANCH   8  21
ATOM     21  C   UNL     1      -1.049  15.213  23.574  0.00  0.00    +0.000 A 
ATOM     22  C   UNL     1      -0.342  16.410  23.437  0.00  0.00    +0.000 A 
ATOM     23  C   UNL     1      -0.408  17.397  24.426  0.00  0.00    +0.000 A 
ATOM     24  C   UNL     1      -1.095  17.154  25.613  0.00  0.00    +0.000 A 
ATOM     25  C   UNL     1      -1.707  15.920  25.814  0.00  0.00    +0.000 A 
ATOM     26  C   UNL     1      -1.694  14.962  24.798  0.00  0.00    +0.000 A 
ENDBRANCH   8  21
BRANCH   9  27
ATOM     27  N   UNL     1      -3.421  14.465  21.380  0.00  0.00    +0.000 N 
ATOM     28  C   UNL     1      -4.491  14.140  22.353  0.00  0.00    +0.000 C 
ATOM     29  C   UNL     1      -5.876  14.510  21.829  0.00  0.00    +0.000 C 
ATOM     30  C   UNL     1      -5.923  15.972  21.397  0.00  0.00    +0.000 C 
ATOM     31  C   UNL     1      -4.812  16.257  20.393  0.00  0.00    +0.000 C 
ATOM     32  C   UNL     1      -3.440  15.883  20.960  0.00  0.00    +0.000 C 
ENDBRANCH   9  27
TORSDOF 4
ENDMDL
MODEL 9
REMARK VINA RESULT:      -6.4      0.318      1.266
REMARK  Name = 
REMARK  6 active torsions:
REMARK  status: ('A' for Active; 'I' for Inactive)
REMARK    1  A    between atoms: C_1  and  C_2
REMARK    2  A    between atoms: C_3  and  C_4
REMARK    3  A    between atoms: C_7  and  O_8
REMARK    4  A    between atoms: C_15  and  C_16
REMARK    5  A    between atoms: C_22  and  N_23
REMARK    6  A    between atoms: N_30  and  C_31
REMARK                            x       y       z     vdW  Elec       q    Type
REMARK                         _______ _______ _______ _____ _____    ______ ____
ROOT
ATOM      1  C   UNL     1       0.255   7.804  21.255  0.00  0.00    +0.000 C 
ATOM      2  C   UNL     1       1.249   7.763  20.100  0.00  0.00    +0.000 A 
ATOM      3  C   UNL     1       1.479   8.875  19.358  0.00  0.00    +0.000 A 
ATOM      4  C   UNL     1       2.454   8.794  18.231  0.00  0.00    +0.000 A 
ATOM      5  O   UNL     1       2.732   9.740  17.500  0.00  0.00    +0.000 OA
ATOM      6  N   UNL     1       3.050   7.537  18.055  0.00  0.00    +0.000 N 
ATOM      7  N   UNL     1       3.928   7.347  17.050  0.00  0.00    +0.000 NA
ATOM      8  C   UNL     1       4.291   6.063  17.127  0.00  0.00    +0.000 A 
ATOM      9  C   UNL     1       3.628   5.411  18.245  0.00  0.00    +0.000 A 
ATOM     10  C   UNL     1       2.820   6.402  18.820  0.00  0.00    +0.000 A 
ATOM     11  N   UNL     1       1.895   6.519  19.845  0.00  0.00    +0.000 N 
ATOM     12  C   UNL     1       1.559   5.339  20.650  0.00  0.00    +0.000 C 
ENDROOT
BRANCH   3  13
ATOM     13  C   UNL     1       0.830  10.183  19.602  0.00  0.00    +0.000 A 
ATOM     14  C   UNL     1      -0.340  10.534  18.911  0.00  0.00    +0.000 A 
ATOM     15  C   UNL     1      -0.968  11.760  19.157  0.00  0.00    +0.000 A 
ATOM     16  C   UNL     1      -0.417  12.635  20.088  0.00  0.00    +0.000 A 
ATOM     17  C   UNL     1       0.739  12.301  20.781  0.00  0.00    +0.000 A 
ATOM     18  C   UNL     1       1.367  11.077  20.540  0.00  0.00    +0.000 A 
BRANCH  16  19
ATOM     19  O   UNL     1      -1.003  13.836  20.366  0.00  0.00    +0.000 OA
ATOM     20  H   UNL     1      -0.442  14.317  20.994  0.00  0.00    +0.000 HD
ENDBRANCH  16  19
ENDBRANCH   3  13
BRANCH   8  21
ATOM     21  C   UNL     1       5.226   5.568  16.104  0.00  0.00    +0.000 A 
ATOM     22  C   UNL     1       6.592   5.859  16.133  0.00  0.00    +0.000 A 
ATOM     23  C   UNL     1       7.471   5.256  15.226  0.00  0.00    +0.000 A 
ATOM     24  C   UNL     1       6.979   4.439  14.212  0.00  0.00    +0.000 A 
ATOM     25  C   UNL     1       5.607   4.234  14.097  0.00  0.00    +0.000 A 
ATOM     26  C   UNL     1       4.739   4.784  15.043  0.00  0.00    +0.000 A 
ENDBRANCH   8  21
BRANCH   9  27
ATOM     27  N   UNL     1       3.715   4.089  18.658  0.00  0.00    +0.000 N 
ATOM     28  C   UNL     1       4.094   3.798  20.062  0.00  0.00    +0.000 C 
ATOM     29  C   UNL     1       4.541   2.351  20.247  0.00  0.00    +0.000 C 
ATOM     30  C   UNL     1       3.481   1.383  19.731  0.00  0.00    +0.000 C 
ATOM     31  C   UNL     1       3.130   1.715  18.285  0.00  0.00    +0.000 C 
ATOM     32  C   UNL     1       2.677   3.171  18.143  0.00  0.00    +0.000 C 
ENDBRANCH   9  27
TORSDOF 4
ENDMDL
