MODEL 1
REMARK VINA RESULT:      -6.4      0.000      0.000
REMARK  Name = 
REMARK  12 active torsions:
REMARK  status: ('A' for Active; 'I' for Inactive)
REMARK    1  A    between atoms: C_2  and  C_3
REMARK    2  A    between atoms: C_3  and  C_4
REMARK    3  A    between atoms: C_4  and  C_5
REMARK    4  A    between atoms: C_5  and  C_6
REMARK    5  A    between atoms: C_6  and  C_7
REMARK    6  A    between atoms: C_7  and  C_8
REMARK    7  A    between atoms: C_8  and  C_9
REMARK    8  A    between atoms: C_9  and  C_10
REMARK    9  A    between atoms: C_10  and  C_11
REMARK   10  A    between atoms: N_13  and  C_14
REMARK   11  A    between atoms: C_17  and  O_18
REMARK   12  A    between atoms: O_18  and  C_19
REMARK                            x       y       z     vdW  Elec       q    Type
REMARK                         _______ _______ _______ _____ _____    ______ ____
ROOT
ATOM      1  C   UNL     1       2.951   3.112  17.562  0.00  0.00    +0.000 C 
ATOM      2  O   UNL     1       2.370   4.072  17.063  0.00  0.00    +0.000 OA
ATOM      3  N   UNL     1       4.320   3.016  17.754  0.00  0.00    +0.000 N 
ATOM      4  H   UNL     1       4.701   2.105  17.975  0.00  0.00    +0.000 HD
ENDROOT
BRANCH   3   5
ATOM      5  C   UNL     1       5.240   4.059  17.494  0.00  0.00    +0.000 A 
ATOM      6  C   UNL     1       5.594   5.013  18.453  0.00  0.00    +0.000 A 
ATOM      7  C   UNL     1       6.474   6.047  18.141  0.00  0.00    +0.000 A 
ATOM      8  C   UNL     1       7.035   6.136  16.872  0.00  0.00    +0.000 A 
ATOM      9  C   UNL     1       6.704   5.182  15.908  0.00  0.00    +0.000 A 
ATOM     10  C   UNL     1       5.817   4.139  16.221  0.00  0.00    +0.000 A 
BRANCH   8  11
ATOM     11  O   UNL     1       7.848   7.216  16.681  0.00  0.00    +0.000 OA
ATOM     12  C   UNL     1       7.718   8.256  17.641  0.00  0.00    +0.000 C 
ENDBRANCH   8  11
ENDBRANCH   3   5
BRANCH   1  13
ATOM     13  C   UNL     1       2.183   1.882  18.014  0.00  0.00    +0.000 C 
BRANCH  13  14
ATOM     14  C   UNL     1       1.239   2.279  19.151  0.00  0.00    +0.000 C 
BRANCH  14  15
ATOM     15  C   UNL     1       1.912   2.362  20.512  0.00  0.00    +0.000 C 
BRANCH  15  16
ATOM     16  C   UNL     1       1.513   3.671  21.200  0.00  0.00    +0.000 C 
BRANCH  16  17
ATOM     17  C   UNL     1       2.375   4.837  20.732  0.00  0.00    +0.000 C 
BRANCH  17  18
ATOM     18  C   UNL     1       1.550   6.118  20.625  0.00  0.00    +0.000 C 
BRANCH  18  19
ATOM     19  C   UNL     1       2.357   7.235  19.965  0.00  0.00    +0.000 C 
BRANCH  19  20
ATOM     20  C   UNL     1       2.323   7.114  18.441  0.00  0.00    +0.000 C 
BRANCH  20  22
ATOM     21  C   UNL     1       1.560   9.420  17.814  0.00  0.00    +0.000 C 
ATOM     22  C   UNL     1       2.488   8.456  17.789  0.00  0.00    +0.000 C 
ENDBRANCH  20  22
ENDBRANCH  19  20
ENDBRANCH  18  19
ENDBRANCH  17  18
ENDBRANCH  16  17
ENDBRANCH  15  16
ENDBRANCH  14  15
ENDBRANCH  13  14
ENDBRANCH   1  13
TORSDOF 11
ENDMDL
MODEL 2
REMARK VINA RESULT:      -6.1      0.868      1.337
REMARK  Name = 
REMARK  12 active torsions:
REMARK  status: ('A' for Active; 'I' for Inactive)
REMARK    1  A    between atoms: C_2  and  C_3
REMARK    2  A    between atoms: C_3  and  C_4
REMARK    3  A    between atoms: C_4  and  C_5
REMARK    4  A    between atoms: C_5  and  C_6
REMARK    5  A    between atoms: C_6  and  C_7
REMARK    6  A    between atoms: C_7  and  C_8
REMARK    7  A    between atoms: C_8  and  C_9
REMARK    8  A    between atoms: C_9  and  C_10
REMARK    9  A    between atoms: C_10  and  C_11
REMARK   10  A    between atoms: N_13  and  C_14
REMARK   11  A    between atoms: C_17  and  O_18
REMARK   12  A    between atoms: O_18  and  C_19
REMARK                            x       y       z     vdW  Elec       q    Type
REMARK                         _______ _______ _______ _____ _____    ______ ____
ROOT
ATOM      1  C   UNL     1       3.587   2.848  17.960  0.00  0.00    +0.000 C 
ATOM      2  O   UNL     1       3.110   3.302  16.923  0.00  0.00    +0.000 OA
ATOM      3  N   UNL     1       4.737   3.309  18.580  0.00  0.00    +0.000 N 
ATOM      4  H   UNL     1       5.146   2.731  19.303  0.00  0.00    +0.000 HD
ENDROOT
BRANCH   3   5
ATOM      5  C   UNL     1       5.475   4.440  18.160  0.00  0.00    +0.000 A 
ATOM      6  C   UNL     1       5.312   5.027  16.901  0.00  0.00    +0.000 A 
ATOM      7  C   UNL     1       6.089   6.117  16.514  0.00  0.00    +0.000 A 
ATOM      8  C   UNL     1       7.029   6.656  17.384  0.00  0.00    +0.000 A 
ATOM      9  C   UNL     1       7.194   6.091  18.651  0.00  0.00    +0.000 A 
ATOM     10  C   UNL     1       6.411   4.993  19.042  0.00  0.00    +0.000 A 
BRANCH   8  11
ATOM     11  O   UNL     1       7.754   7.693  16.871  0.00  0.00    +0.000 OA
ATOM     12  C   UNL     1       8.043   8.746  17.782  0.00  0.00    +0.000 C 
ENDBRANCH   8  11
ENDBRANCH   3   5
BRANCH   1  13
ATOM     13  C   UNL     1       2.935   1.676  18.674  0.00  0.00    +0.000 C 
BRANCH  13  14
ATOM     14  C   UNL     1       1.422   1.895  18.702  0.00  0.00    +0.000 C 
BRANCH  14  15
ATOM     15  C   UNL     1       0.933   2.670  19.916  0.00  0.00    +0.000 C 
BRANCH  15  16
ATOM     16  C   UNL     1       2.050   2.738  20.962  0.00  0.00    +0.000 C 
BRANCH  16  17
ATOM     17  C   UNL     1       2.388   4.178  21.330  0.00  0.00    +0.000 C 
BRANCH  17  18
ATOM     18  C   UNL     1       1.527   5.161  20.539  0.00  0.00    +0.000 C 
BRANCH  18  19
ATOM     19  C   UNL     1       2.331   5.807  19.412  0.00  0.00    +0.000 C 
BRANCH  19  20
ATOM     20  C   UNL     1       2.318   7.332  19.527  0.00  0.00    +0.000 C 
BRANCH  20  22
ATOM     21  C   UNL     1       2.009   9.098  17.773  0.00  0.00    +0.000 C 
ATOM     22  C   UNL     1       2.600   7.977  18.201  0.00  0.00    +0.000 C 
ENDBRANCH  20  22
ENDBRANCH  19  20
ENDBRANCH  18  19
ENDBRANCH  17  18
ENDBRANCH  16  17
ENDBRANCH  15  16
ENDBRANCH  14  15
ENDBRANCH  13  14
ENDBRANCH   1  13
TORSDOF 11
ENDMDL
MODEL 3
REMARK VINA RESULT:      -6.0      2.282      5.106
REMARK  Name = 
REMARK  12 active torsions:
REMARK  status: ('A' for Active; 'I' for Inactive)
REMARK    1  A    between atoms: C_2  and  C_3
REMARK    2  A    between atoms: C_3  and  C_4
REMARK    3  A    between atoms: C_4  and  C_5
REMARK    4  A    between atoms: C_5  and  C_6
REMARK    5  A    between atoms: C_6  and  C_7
REMARK    6  A    between atoms: C_7  and  C_8
REMARK    7  A    between atoms: C_8  and  C_9
REMARK    8  A    between atoms: C_9  and  C_10
REMARK    9  A    between atoms: C_10  and  C_11
REMARK   10  A    between atoms: N_13  and  C_14
REMARK   11  A    between atoms: C_17  and  O_18
REMARK   12  A    between atoms: O_18  and  C_19
REMARK                            x       y       z     vdW  Elec       q    Type
REMARK                         _______ _______ _______ _____ _____    ______ ____
ROOT
ATOM      1  C   UNL     1       1.763   4.561  20.723  0.00  0.00    +0.000 C 
ATOM      2  O   UNL     1       0.684   4.411  20.155  0.00  0.00    +0.000 OA
ATOM      3  N   UNL     1       2.557   5.694  20.647  0.00  0.00    +0.000 N 
ATOM      4  H   UNL     1       3.509   5.624  20.980  0.00  0.00    +0.000 HD
ENDROOT
BRANCH   3   5
ATOM      5  C   UNL     1       2.188   6.886  19.980  0.00  0.00    +0.000 A 
ATOM      6  C   UNL     1       2.467   7.116  18.630  0.00  0.00    +0.000 A 
ATOM      7  C   UNL     1       2.121   8.323  18.024  0.00  0.00    +0.000 A 
ATOM      8  C   UNL     1       1.471   9.314  18.749  0.00  0.00    +0.000 A 
ATOM      9  C   UNL     1       1.171   9.094  20.095  0.00  0.00    +0.000 A 
ATOM     10  C   UNL     1       1.519   7.879  20.706  0.00  0.00    +0.000 A 
BRANCH   8  11
ATOM     11  O   UNL     1       1.224  10.463  18.053  0.00  0.00    +0.000 OA
ATOM     12  C   UNL     1       1.357  11.667  18.796  0.00  0.00    +0.000 C 
ENDBRANCH   8  11
ENDBRANCH   3   5
BRANCH   1  13
ATOM     13  C   UNL     1       2.353   3.457  21.584  0.00  0.00    +0.000 C 
BRANCH  13  14
ATOM     14  C   UNL     1       2.730   2.278  20.686  0.00  0.00    +0.000 C 
BRANCH  14  15
ATOM     15  C   UNL     1       3.691   2.639  19.563  0.00  0.00    +0.000 C 
BRANCH  15  16
ATOM     16  C   UNL     1       3.022   2.369  18.212  0.00  0.00    +0.000 C 
BRANCH  16  17
ATOM     17  C   UNL     1       3.143   3.565  17.276  0.00  0.00    +0.000 C 
BRANCH  17  18
ATOM     18  C   UNL     1       4.482   4.275  17.467  0.00  0.00    +0.000 C 
BRANCH  18  19
ATOM     19  C   UNL     1       5.058   4.724  16.125  0.00  0.00    +0.000 C 
BRANCH  19  20
ATOM     20  C   UNL     1       5.235   6.242  16.079  0.00  0.00    +0.000 C 
BRANCH  20  22
ATOM     21  C   UNL     1       7.279   6.909  17.372  0.00  0.00    +0.000 C 
ATOM     22  C   UNL     1       5.953   6.739  17.300  0.00  0.00    +0.000 C 
ENDBRANCH  20  22
ENDBRANCH  19  20
ENDBRANCH  18  19
ENDBRANCH  17  18
ENDBRANCH  16  17
ENDBRANCH  15  16
ENDBRANCH  14  15
ENDBRANCH  13  14
ENDBRANCH   1  13
TORSDOF 11
ENDMDL
MODEL 4
REMARK VINA RESULT:      -6.0      2.716      5.244
REMARK  Name = 
REMARK  12 active torsions:
REMARK  status: ('A' for Active; 'I' for Inactive)
REMARK    1  A    between atoms: C_2  and  C_3
REMARK    2  A    between atoms: C_3  and  C_4
REMARK    3  A    between atoms: C_4  and  C_5
REMARK    4  A    between atoms: C_5  and  C_6
REMARK    5  A    between atoms: C_6  and  C_7
REMARK    6  A    between atoms: C_7  and  C_8
REMARK    7  A    between atoms: C_8  and  C_9
REMARK    8  A    between atoms: C_9  and  C_10
REMARK    9  A    between atoms: C_10  and  C_11
REMARK   10  A    between atoms: N_13  and  C_14
REMARK   11  A    between atoms: C_17  and  O_18
REMARK   12  A    between atoms: O_18  and  C_19
REMARK                            x       y       z     vdW  Elec       q    Type
REMARK                         _______ _______ _______ _____ _____    ______ ____
ROOT
ATOM      1  C   UNL     1       7.534   5.238  17.187  0.00  0.00    +0.000 C 
ATOM      2  O   UNL     1       8.102   4.149  17.172  0.00  0.00    +0.000 OA
ATOM      3  N   UNL     1       6.758   5.750  16.160  0.00  0.00    +0.000 N 
ATOM      4  H   UNL     1       6.518   6.732  16.197  0.00  0.00    +0.000 HD
ENDROOT
BRANCH   3   5
ATOM      5  C   UNL     1       6.423   5.045  14.981  0.00  0.00    +0.000 A 
ATOM      6  C   UNL     1       5.226   4.336  14.835  0.00  0.00    +0.000 A 
ATOM      7  C   UNL     1       4.956   3.622  13.669  0.00  0.00    +0.000 A 
ATOM      8  C   UNL     1       5.865   3.619  12.618  0.00  0.00    +0.000 A 
ATOM      9  C   UNL     1       7.058   4.334  12.741  0.00  0.00    +0.000 A 
ATOM     10  C   UNL     1       7.332   5.054  13.916  0.00  0.00    +0.000 A 
BRANCH   8  11
ATOM     11  O   UNL     1       5.502   2.849  11.550  0.00  0.00    +0.000 OA
ATOM     12  C   UNL     1       4.155   2.996  11.121  0.00  0.00    +0.000 C 
ENDBRANCH   8  11
ENDBRANCH   3   5
BRANCH   1  13
ATOM     13  C   UNL     1       7.656   6.166  18.383  0.00  0.00    +0.000 C 
BRANCH  13  14
ATOM     14  C   UNL     1       6.758   5.646  19.506  0.00  0.00    +0.000 C 
BRANCH  14  15
ATOM     15  C   UNL     1       5.673   4.689  19.036  0.00  0.00    +0.000 C 
BRANCH  15  16
ATOM     16  C   UNL     1       4.298   5.312  19.293  0.00  0.00    +0.000 C 
BRANCH  16  17
ATOM     17  C   UNL     1       3.563   5.606  17.990  0.00  0.00    +0.000 C 
BRANCH  17  18
ATOM     18  C   UNL     1       2.188   4.942  17.976  0.00  0.00    +0.000 C 
BRANCH  18  19
ATOM     19  C   UNL     1       2.265   3.538  17.378  0.00  0.00    +0.000 C 
BRANCH  19  20
ATOM     20  C   UNL     1       2.172   2.468  18.466  0.00  0.00    +0.000 C 
BRANCH  20  22
ATOM     21  C   UNL     1       1.174   3.003  20.704  0.00  0.00    +0.000 C 
ATOM     22  C   UNL     1       1.029   2.743  19.399  0.00  0.00    +0.000 C 
ENDBRANCH  20  22
ENDBRANCH  19  20
ENDBRANCH  18  19
ENDBRANCH  17  18
ENDBRANCH  16  17
ENDBRANCH  15  16
ENDBRANCH  14  15
ENDBRANCH  13  14
ENDBRANCH   1  13
TORSDOF 11
ENDMDL
MODEL 5
REMARK VINA RESULT:      -6.0      1.460      1.950
REMARK  Name = 
REMARK  12 active torsions:
REMARK  status: ('A' for Active; 'I' for Inactive)
REMARK    1  A    between atoms: C_2  and  C_3
REMARK    2  A    between atoms: C_3  and  C_4
REMARK    3  A    between atoms: C_4  and  C_5
REMARK    4  A    between atoms: C_5  and  C_6
REMARK    5  A    between atoms: C_6  and  C_7
REMARK    6  A    between atoms: C_7  and  C_8
REMARK    7  A    between atoms: C_8  and  C_9
REMARK    8  A    between atoms: C_9  and  C_10
REMARK    9  A    between atoms: C_10  and  C_11
REMARK   10  A    between atoms: N_13  and  C_14
REMARK   11  A    between atoms: C_17  and  O_18
REMARK   12  A    between atoms: O_18  and  C_19
REMARK                            x       y       z     vdW  Elec       q    Type
REMARK                         _______ _______ _______ _____ _____    ______ ____
ROOT
ATOM      1  C   UNL     1       4.564   2.828  18.713  0.00  0.00    +0.000 C 
ATOM      2  O   UNL     1       4.889   2.891  19.896  0.00  0.00    +0.000 OA
ATOM      3  N   UNL     1       4.971   3.707  17.723  0.00  0.00    +0.000 N 
ATOM      4  H   UNL     1       4.479   3.682  16.840  0.00  0.00    +0.000 HD
ENDROOT
BRANCH   3   5
ATOM      5  C   UNL     1       5.906   4.751  17.915  0.00  0.00    +0.000 A 
ATOM      6  C   UNL     1       6.704   4.854  19.058  0.00  0.00    +0.000 A 
ATOM      7  C   UNL     1       7.584   5.922  19.223  0.00  0.00    +0.000 A 
ATOM      8  C   UNL     1       7.700   6.897  18.239  0.00  0.00    +0.000 A 
ATOM      9  C   UNL     1       6.922   6.801  17.084  0.00  0.00    +0.000 A 
ATOM     10  C   UNL     1       6.035   5.725  16.917  0.00  0.00    +0.000 A 
BRANCH   8  11
ATOM     11  O   UNL     1       8.564   7.911  18.538  0.00  0.00    +0.000 OA
ATOM     12  C   UNL     1       8.230   9.180  17.991  0.00  0.00    +0.000 C 
ENDBRANCH   8  11
ENDBRANCH   3   5
BRANCH   1  13
ATOM     13  C   UNL     1       3.629   1.739  18.216  0.00  0.00    +0.000 C 
BRANCH  13  14
ATOM     14  C   UNL     1       2.505   2.384  17.403  0.00  0.00    +0.000 C 
BRANCH  14  15
ATOM     15  C   UNL     1       1.362   2.922  18.250  0.00  0.00    +0.000 C 
BRANCH  15  16
ATOM     16  C   UNL     1       1.380   2.244  19.623  0.00  0.00    +0.000 C 
BRANCH  16  17
ATOM     17  C   UNL     1       1.572   3.256  20.746  0.00  0.00    +0.000 C 
BRANCH  17  18
ATOM     18  C   UNL     1       0.897   4.584  20.407  0.00  0.00    +0.000 C 
BRANCH  18  19
ATOM     19  C   UNL     1       1.804   5.762  20.754  0.00  0.00    +0.000 C 
BRANCH  19  20
ATOM     20  C   UNL     1       2.862   5.984  19.673  0.00  0.00    +0.000 C 
BRANCH  20  22
ATOM     21  C   UNL     1       3.142   7.537  17.723  0.00  0.00    +0.000 C 
ATOM     22  C   UNL     1       2.355   6.905  18.602  0.00  0.00    +0.000 C 
ENDBRANCH  20  22
ENDBRANCH  19  20
ENDBRANCH  18  19
ENDBRANCH  17  18
ENDBRANCH  16  17
ENDBRANCH  15  16
ENDBRANCH  14  15
ENDBRANCH  13  14
ENDBRANCH   1  13
TORSDOF 11
ENDMDL
MODEL 6
REMARK VINA RESULT:      -5.9      2.308      5.103
REMARK  Name = 
REMARK  12 active torsions:
REMARK  status: ('A' for Active; 'I' for Inactive)
REMARK    1  A    between atoms: C_2  and  C_3
REMARK    2  A    between atoms: C_3  and  C_4
REMARK    3  A    between atoms: C_4  and  C_5
REMARK    4  A    between atoms: C_5  and  C_6
REMARK    5  A    between atoms: C_6  and  C_7
REMARK    6  A    between atoms: C_7  and  C_8
REMARK    7  A    between atoms: C_8  and  C_9
REMARK    8  A    between atoms: C_9  and  C_10
REMARK    9  A    between atoms: C_10  and  C_11
REMARK   10  A    between atoms: N_13  and  C_14
REMARK   11  A    between atoms: C_17  and  O_18
REMARK   12  A    between atoms: O_18  and  C_19
REMARK                            x       y       z     vdW  Elec       q    Type
REMARK                         _______ _______ _______ _____ _____    ______ ____
ROOT
ATOM      1  C   UNL     1       1.928   4.466  20.512  0.00  0.00    +0.000 C 
ATOM      2  O   UNL     1       0.702   4.480  20.440  0.00  0.00    +0.000 OA
ATOM      3  N   UNL     1       2.763   5.517  20.171  0.00  0.00    +0.000 N 
ATOM      4  H   UNL     1       3.750   5.321  20.071  0.00  0.00    +0.000 HD
ENDROOT
BRANCH   3   5
ATOM      5  C   UNL     1       2.315   6.801  19.782  0.00  0.00    +0.000 A 
ATOM      6  C   UNL     1       1.674   7.679  20.662  0.00  0.00    +0.000 A 
ATOM      7  C   UNL     1       1.213   8.920  20.225  0.00  0.00    +0.000 A 
ATOM      8  C   UNL     1       1.403   9.317  18.907  0.00  0.00    +0.000 A 
ATOM      9  C   UNL     1       2.055   8.459  18.019  0.00  0.00    +0.000 A 
ATOM     10  C   UNL     1       2.519   7.209  18.458  0.00  0.00    +0.000 A 
BRANCH   8  11
ATOM     11  O   UNL     1       0.869  10.535  18.594  0.00  0.00    +0.000 OA
ATOM     12  C   UNL     1       0.774  11.455  19.674  0.00  0.00    +0.000 C 
ENDBRANCH   8  11
ENDBRANCH   3   5
BRANCH   1  13
ATOM     13  C   UNL     1       2.669   3.227  20.989  0.00  0.00    +0.000 C 
BRANCH  13  14
ATOM     14  C   UNL     1       3.340   2.560  19.788  0.00  0.00    +0.000 C 
BRANCH  14  15
ATOM     15  C   UNL     1       2.381   2.207  18.662  0.00  0.00    +0.000 C 
BRANCH  15  16
ATOM     16  C   UNL     1       2.715   3.046  17.425  0.00  0.00    +0.000 C 
BRANCH  16  17
ATOM     17  C   UNL     1       4.212   3.308  17.311  0.00  0.00    +0.000 C 
BRANCH  17  18
ATOM     18  C   UNL     1       4.487   4.770  16.963  0.00  0.00    +0.000 C 
BRANCH  18  19
ATOM     19  C   UNL     1       5.826   5.226  17.539  0.00  0.00    +0.000 C 
BRANCH  19  20
ATOM     20  C   UNL     1       6.232   6.591  16.981  0.00  0.00    +0.000 C 
BRANCH  20  22
ATOM     21  C   UNL     1       7.836   8.400  17.648  0.00  0.00    +0.000 C 
ATOM     22  C   UNL     1       7.452   7.118  17.678  0.00  0.00    +0.000 C 
ENDBRANCH  20  22
ENDBRANCH  19  20
ENDBRANCH  18  19
ENDBRANCH  17  18
ENDBRANCH  16  17
ENDBRANCH  15  16
ENDBRANCH  14  15
ENDBRANCH  13  14
ENDBRANCH   1  13
TORSDOF 11
ENDMDL
MODEL 7
REMARK VINA RESULT:      -5.9      2.660      5.561
REMARK  Name = 
REMARK  12 active torsions:
REMARK  status: ('A' for Active; 'I' for Inactive)
REMARK    1  A    between atoms: C_2  and  C_3
REMARK    2  A    between atoms: C_3  and  C_4
REMARK    3  A    between atoms: C_4  and  C_5
REMARK    4  A    between atoms: C_5  and  C_6
REMARK    5  A    between atoms: C_6  and  C_7
REMARK    6  A    between atoms: C_7  and  C_8
REMARK    7  A    between atoms: C_8  and  C_9
REMARK    8  A    between atoms: C_9  and  C_10
REMARK    9  A    between atoms: C_10  and  C_11
REMARK   10  A    between atoms: N_13  and  C_14
REMARK   11  A    between atoms: C_17  and  O_18
REMARK   12  A    between atoms: O_18  and  C_19
REMARK                            x       y       z     vdW  Elec       q    Type
REMARK                         _______ _______ _______ _____ _____    ______ ____
ROOT
ATOM      1  C   UNL     1       1.844   4.793  20.527  0.00  0.00    +0.000 C 
ATOM      2  O   UNL     1       0.635   4.735  20.315  0.00  0.00    +0.000 OA
ATOM      3  N   UNL     1       2.645   5.898  20.292  0.00  0.00    +0.000 N 
ATOM      4  H   UNL     1       3.648   5.764  20.304  0.00  0.00    +0.000 HD
ENDROOT
BRANCH   3   5
ATOM      5  C   UNL     1       2.165   7.159  19.867  0.00  0.00    +0.000 A 
ATOM      6  C   UNL     1       1.461   8.025  20.709  0.00  0.00    +0.000 A 
ATOM      7  C   UNL     1       0.971   9.241  20.236  0.00  0.00    +0.000 A 
ATOM      8  C   UNL     1       1.196   9.626  18.919  0.00  0.00    +0.000 A 
ATOM      9  C   UNL     1       1.912   8.780  18.070  0.00  0.00    +0.000 A 
ATOM     10  C   UNL     1       2.405   7.555  18.546  0.00  0.00    +0.000 A 
BRANCH   8  11
ATOM     11  O   UNL     1       0.631  10.819  18.568  0.00  0.00    +0.000 OA
ATOM     12  C   UNL     1       0.074  11.570  19.639  0.00  0.00    +0.000 C 
ENDBRANCH   8  11
ENDBRANCH   3   5
BRANCH   1  13
ATOM     13  C   UNL     1       2.601   3.594  21.073  0.00  0.00    +0.000 C 
BRANCH  13  14
ATOM     14  C   UNL     1       3.379   2.939  19.931  0.00  0.00    +0.000 C 
BRANCH  14  15
ATOM     15  C   UNL     1       2.545   2.000  19.074  0.00  0.00    +0.000 C 
BRANCH  15  16
ATOM     16  C   UNL     1       2.614   2.448  17.611  0.00  0.00    +0.000 C 
BRANCH  16  17
ATOM     17  C   UNL     1       3.171   3.861  17.482  0.00  0.00    +0.000 C 
BRANCH  17  18
ATOM     18  C   UNL     1       4.490   3.860  16.710  0.00  0.00    +0.000 C 
BRANCH  18  19
ATOM     19  C   UNL     1       4.967   5.286  16.442  0.00  0.00    +0.000 C 
BRANCH  19  20
ATOM     20  C   UNL     1       5.695   5.383  15.102  0.00  0.00    +0.000 C 
BRANCH  20  22
ATOM     21  C   UNL     1       6.101   3.729  13.260  0.00  0.00    +0.000 C 
ATOM     22  C   UNL     1       6.020   4.020  14.564  0.00  0.00    +0.000 C 
ENDBRANCH  20  22
ENDBRANCH  19  20
ENDBRANCH  18  19
ENDBRANCH  17  18
ENDBRANCH  16  17
ENDBRANCH  15  16
ENDBRANCH  14  15
ENDBRANCH  13  14
ENDBRANCH   1  13
TORSDOF 11
ENDMDL
MODEL 8
REMARK VINA RESULT:      -5.7      0.999      1.221
REMARK  Name = 
REMARK  12 active torsions:
REMARK  status: ('A' for Active; 'I' for Inactive)
REMARK    1  A    between atoms: C_2  and  C_3
REMARK    2  A    between atoms: C_3  and  C_4
REMARK    3  A    between atoms: C_4  and  C_5
REMARK    4  A    between atoms: C_5  and  C_6
REMARK    5  A    between atoms: C_6  and  C_7
REMARK    6  A    between atoms: C_7  and  C_8
REMARK    7  A    between atoms: C_8  and  C_9
REMARK    8  A    between atoms: C_9  and  C_10
REMARK    9  A    between atoms: C_10  and  C_11
REMARK   10  A    between atoms: N_13  and  C_14
REMARK   11  A    between atoms: C_17  and  O_18
REMARK   12  A    between atoms: O_18  and  C_19
REMARK                            x       y       z     vdW  Elec       q    Type
REMARK                         _______ _______ _______ _____ _____    ______ ____
ROOT
ATOM      1  C   UNL     1       4.012   2.949  18.044  0.00  0.00    +0.000 C 
ATOM      2  O   UNL     1       3.547   3.385  16.994  0.00  0.00    +0.000 OA
ATOM      3  N   UNL     1       5.164   3.407  18.661  0.00  0.00    +0.000 N 
ATOM      4  H   UNL     1       5.560   2.840  19.399  0.00  0.00    +0.000 HD
ENDROOT
BRANCH   3   5
ATOM      5  C   UNL     1       5.922   4.517  18.219  0.00  0.00    +0.000 A 
ATOM      6  C   UNL     1       6.694   5.300  19.083  0.00  0.00    +0.000 A 
ATOM      7  C   UNL     1       7.393   6.409  18.610  0.00  0.00    +0.000 A 
ATOM      8  C   UNL     1       7.353   6.744  17.262  0.00  0.00    +0.000 A 
ATOM      9  C   UNL     1       6.598   5.964  16.383  0.00  0.00    +0.000 A 
ATOM     10  C   UNL     1       5.894   4.847  16.859  0.00  0.00    +0.000 A 
BRANCH   8  11
ATOM     11  O   UNL     1       8.045   7.875  16.933  0.00  0.00    +0.000 OA
ATOM     12  C   UNL     1       8.062   8.891  17.926  0.00  0.00    +0.000 C 
ENDBRANCH   8  11
ENDBRANCH   3   5
BRANCH   1  13
ATOM     13  C   UNL     1       3.337   1.804  18.781  0.00  0.00    +0.000 C 
BRANCH  13  14
ATOM     14  C   UNL     1       2.825   2.317  20.128  0.00  0.00    +0.000 C 
BRANCH  14  15
ATOM     15  C   UNL     1       1.760   3.397  20.013  0.00  0.00    +0.000 C 
BRANCH  15  16
ATOM     16  C   UNL     1       2.053   4.511  21.023  0.00  0.00    +0.000 C 
BRANCH  16  17
ATOM     17  C   UNL     1       1.853   5.892  20.409  0.00  0.00    +0.000 C 
BRANCH  17  18
ATOM     18  C   UNL     1       3.064   6.298  19.571  0.00  0.00    +0.000 C 
BRANCH  18  19
ATOM     19  C   UNL     1       2.689   6.424  18.095  0.00  0.00    +0.000 C 
BRANCH  19  20
ATOM     20  C   UNL     1       1.718   7.583  17.868  0.00  0.00    +0.000 C 
BRANCH  20  22
ATOM     21  C   UNL     1       1.791  10.088  17.964  0.00  0.00    +0.000 C 
ATOM     22  C   UNL     1       2.364   8.900  18.188  0.00  0.00    +0.000 C 
ENDBRANCH  20  22
ENDBRANCH  19  20
ENDBRANCH  18  19
ENDBRANCH  17  18
ENDBRANCH  16  17
ENDBRANCH  15  16
ENDBRANCH  14  15
ENDBRANCH  13  14
ENDBRANCH   1  13
TORSDOF 11
ENDMDL
MODEL 9
REMARK VINA RESULT:      -5.7      2.768      5.293
REMARK  Name = 
REMARK  12 active torsions:
REMARK  status: ('A' for Active; 'I' for Inactive)
REMARK    1  A    between atoms: C_2  and  C_3
REMARK    2  A    between atoms: C_3  and  C_4
REMARK    3  A    between atoms: C_4  and  C_5
REMARK    4  A    between atoms: C_5  and  C_6
REMARK    5  A    between atoms: C_6  and  C_7
REMARK    6  A    between atoms: C_7  and  C_8
REMARK    7  A    between atoms: C_8  and  C_9
REMARK    8  A    between atoms: C_9  and  C_10
REMARK    9  A    between atoms: C_10  and  C_11
REMARK   10  A    between atoms: N_13  and  C_14
REMARK   11  A    between atoms: C_17  and  O_18
REMARK   12  A    between atoms: O_18  and  C_19
REMARK                            x       y       z     vdW  Elec       q    Type
REMARK                         _______ _______ _______ _____ _____    ______ ____
ROOT
ATOM      1  C   UNL     1       6.756   6.361  16.628  0.00  0.00    +0.000 C 
ATOM      2  O   UNL     1       5.803   7.023  16.227  0.00  0.00    +0.000 OA
ATOM      3  N   UNL     1       7.246   5.214  16.025  0.00  0.00    +0.000 N 
ATOM      4  H   UNL     1       7.892   4.643  16.554  0.00  0.00    +0.000 HD
ENDROOT
BRANCH   3   5
ATOM      5  C   UNL     1       6.777   4.694  14.796  0.00  0.00    +0.000 A 
ATOM      6  C   UNL     1       5.539   4.058  14.665  0.00  0.00    +0.000 A 
ATOM      7  C   UNL     1       5.134   3.524  13.443  0.00  0.00    +0.000 A 
ATOM      8  C   UNL     1       5.948   3.636  12.322  0.00  0.00    +0.000 A 
ATOM      9  C   UNL     1       7.181   4.283  12.432  0.00  0.00    +0.000 A 
ATOM     10  C   UNL     1       7.589   4.820  13.663  0.00  0.00    +0.000 A 
BRANCH   8  11
ATOM     11  O   UNL     1       5.458   3.037  11.197  0.00  0.00    +0.000 OA
ATOM     12  C   UNL     1       4.043   3.050  11.066  0.00  0.00    +0.000 C 
ENDBRANCH   8  11
ENDBRANCH   3   5
BRANCH   1  13
ATOM     13  C   UNL     1       7.504   6.754  17.891  0.00  0.00    +0.000 C 
BRANCH  13  14
ATOM     14  C   UNL     1       7.305   5.663  18.944  0.00  0.00    +0.000 C 
BRANCH  14  15
ATOM     15  C   UNL     1       6.049   4.830  18.739  0.00  0.00    +0.000 C 
BRANCH  15  16
ATOM     16  C   UNL     1       4.871   5.498  19.454  0.00  0.00    +0.000 C 
BRANCH  16  17
ATOM     17  C   UNL     1       3.659   5.628  18.539  0.00  0.00    +0.000 C 
BRANCH  17  18
ATOM     18  C   UNL     1       3.599   4.470  17.544  0.00  0.00    +0.000 C 
BRANCH  18  19
ATOM     19  C   UNL     1       2.608   3.403  18.006  0.00  0.00    +0.000 C 
BRANCH  19  20
ATOM     20  C   UNL     1       1.397   4.033  18.693  0.00  0.00    +0.000 C 
BRANCH  20  22
ATOM     21  C   UNL     1       1.477   3.177  21.050  0.00  0.00    +0.000 C 
ATOM     22  C   UNL     1       0.919   3.182  19.834  0.00  0.00    +0.000 C 
ENDBRANCH  20  22
ENDBRANCH  19  20
ENDBRANCH  18  19
ENDBRANCH  17  18
ENDBRANCH  16  17
ENDBRANCH  15  16
ENDBRANCH  14  15
ENDBRANCH  13  14
ENDBRANCH   1  13
TORSDOF 11
ENDMDL
