MODEL 1
REMARK VINA RESULT:      -5.8      0.000      0.000
REMARK  Name = 
REMARK  10 active torsions:
REMARK  status: ('A' for Active; 'I' for Inactive)
REMARK    1  A    between atoms: C_1  and  O_2
REMARK    2  A    between atoms: O_2  and  C_3
REMARK    3  A    between atoms: C_3  and  C_4
REMARK    4  A    between atoms: C_4  and  N_5
REMARK    5  A    between atoms: N_5  and  C_6
REMARK    6  A    between atoms: C_6  and  C_7
REMARK    7  A    between atoms: C_7  and  O_8
REMARK    8  A    between atoms: O_8  and  C_9
REMARK    9  A    between atoms: C_10  and  C_12
REMARK   10  A    between atoms: C_16  and  C_17
REMARK                            x       y       z     vdW  Elec       q    Type
REMARK                         _______ _______ _______ _____ _____    ______ ____
ROOT
ATOM      1  N   UNL     1       3.840   5.110  18.623  0.00  0.00    +0.000 N 
ATOM      2  C   UNL     1       5.185   4.707  18.461  0.00  0.00    +0.000 C 
ATOM      3  O   UNL     1       5.724   4.000  19.318  0.00  0.00    +0.000 OA
ENDROOT
BRANCH   2   4
ATOM      4  C   UNL     1       5.981   5.024  17.257  0.00  0.00    +0.000 A 
ATOM      5  C   UNL     1       6.038   4.113  16.140  0.00  0.00    +0.000 A 
ATOM      6  C   UNL     1       6.882   4.644  15.205  0.00  0.00    +0.000 A 
ATOM      7  O   UNL     1       7.378   5.815  15.652  0.00  0.00    +0.000 OA
ATOM      8  C   UNL     1       6.879   6.033  16.909  0.00  0.00    +0.000 A 
ATOM      9  C   UNL     1       7.481   7.233  17.539  0.00  0.00    +0.000 C 
ENDBRANCH   2   4
BRANCH   1  10
ATOM     10  C   UNL     1       3.196   4.777  19.912  0.00  0.00    +0.000 C 
BRANCH  10  11
ATOM     11  C   UNL     1       1.669   4.582  19.884  0.00  0.00    +0.000 C 
BRANCH  11  13
ATOM     12  C   UNL     1       2.208   2.989  21.565  0.00  0.00    +0.000 C 
ATOM     13  O   UNL     1       1.183   3.575  20.773  0.00  0.00    +0.000 OA
ENDBRANCH  11  13
ENDBRANCH  10  11
ENDBRANCH   1  10
BRANCH   1  14
ATOM     14  C   UNL     1       3.203   6.058  17.713  0.00  0.00    +0.000 C 
BRANCH  14  15
ATOM     15  C   UNL     1       3.230   7.570  17.948  0.00  0.00    +0.000 C 
BRANCH  15  16
ATOM     16  O   UNL     1       1.918   8.111  17.780  0.00  0.00    +0.000 OA
ATOM     17  C   UNL     1       1.916   9.529  17.866  0.00  0.00    +0.000 C 
ENDBRANCH  15  16
ENDBRANCH  14  15
ENDBRANCH   1  14
TORSDOF 7
ENDMDL
MODEL 2
REMARK VINA RESULT:      -5.8      1.991      3.302
REMARK  Name = 
REMARK  10 active torsions:
REMARK  status: ('A' for Active; 'I' for Inactive)
REMARK    1  A    between atoms: C_1  and  O_2
REMARK    2  A    between atoms: O_2  and  C_3
REMARK    3  A    between atoms: C_3  and  C_4
REMARK    4  A    between atoms: C_4  and  N_5
REMARK    5  A    between atoms: N_5  and  C_6
REMARK    6  A    between atoms: C_6  and  C_7
REMARK    7  A    between atoms: C_7  and  O_8
REMARK    8  A    between atoms: O_8  and  C_9
REMARK    9  A    between atoms: C_10  and  C_12
REMARK   10  A    between atoms: C_16  and  C_17
REMARK                            x       y       z     vdW  Elec       q    Type
REMARK                         _______ _______ _______ _____ _____    ______ ____
ROOT
ATOM      1  N   UNL     1       3.543   4.800  17.681  0.00  0.00    +0.000 N 
ATOM      2  C   UNL     1       4.401   5.751  17.083  0.00  0.00    +0.000 C 
ATOM      3  O   UNL     1       4.200   6.957  17.257  0.00  0.00    +0.000 OA
ENDROOT
BRANCH   2   4
ATOM      4  C   UNL     1       5.601   5.377  16.307  0.00  0.00    +0.000 A 
ATOM      5  C   UNL     1       5.553   5.261  14.869  0.00  0.00    +0.000 A 
ATOM      6  C   UNL     1       6.785   4.856  14.437  0.00  0.00    +0.000 A 
ATOM      7  O   UNL     1       7.606   4.691  15.494  0.00  0.00    +0.000 OA
ATOM      8  C   UNL     1       6.891   4.956  16.632  0.00  0.00    +0.000 A 
ATOM      9  C   UNL     1       7.676   4.665  17.855  0.00  0.00    +0.000 C 
ENDBRANCH   2   4
BRANCH   1  10
ATOM     10  C   UNL     1       2.344   5.325  18.369  0.00  0.00    +0.000 C 
BRANCH  10  11
ATOM     11  C   UNL     1       2.377   5.313  19.909  0.00  0.00    +0.000 C 
BRANCH  11  13
ATOM     12  C   UNL     1       2.008   3.668  21.585  0.00  0.00    +0.000 C 
ATOM     13  O   UNL     1       1.446   4.417  20.515  0.00  0.00    +0.000 OA
ENDBRANCH  11  13
ENDBRANCH  10  11
ENDBRANCH   1  10
BRANCH   1  14
ATOM     14  C   UNL     1       3.652   3.373  17.394  0.00  0.00    +0.000 C 
BRANCH  14  15
ATOM     15  C   UNL     1       2.490   2.400  17.607  0.00  0.00    +0.000 C 
BRANCH  15  16
ATOM     16  O   UNL     1       2.684   1.671  18.821  0.00  0.00    +0.000 OA
ATOM     17  C   UNL     1       4.033   1.730  19.265  0.00  0.00    +0.000 C 
ENDBRANCH  15  16
ENDBRANCH  14  15
ENDBRANCH   1  14
TORSDOF 7
ENDMDL
MODEL 3
REMARK VINA RESULT:      -5.7      1.906      2.632
REMARK  Name = 
REMARK  10 active torsions:
REMARK  status: ('A' for Active; 'I' for Inactive)
REMARK    1  A    between atoms: C_1  and  O_2
REMARK    2  A    between atoms: O_2  and  C_3
REMARK    3  A    between atoms: C_3  and  C_4
REMARK    4  A    between atoms: C_4  and  N_5
REMARK    5  A    between atoms: N_5  and  C_6
REMARK    6  A    between atoms: C_6  and  C_7
REMARK    7  A    between atoms: C_7  and  O_8
REMARK    8  A    between atoms: O_8  and  C_9
REMARK    9  A    between atoms: C_10  and  C_12
REMARK   10  A    between atoms: C_16  and  C_17
REMARK                            x       y       z     vdW  Elec       q    Type
REMARK                         _______ _______ _______ _____ _____    ______ ____
ROOT
ATOM      1  N   UNL     1       4.122   4.795  18.904  0.00  0.00    +0.000 N 
ATOM      2  C   UNL     1       5.500   5.102  18.835  0.00  0.00    +0.000 C 
ATOM      3  O   UNL     1       6.174   5.142  19.869  0.00  0.00    +0.000 OA
ENDROOT
BRANCH   2   4
ATOM      4  C   UNL     1       6.218   5.303  17.559  0.00  0.00    +0.000 A 
ATOM      5  C   UNL     1       6.280   4.259  16.566  0.00  0.00    +0.000 A 
ATOM      6  C   UNL     1       7.044   4.711  15.527  0.00  0.00    +0.000 A 
ATOM      7  O   UNL     1       7.486   5.956  15.794  0.00  0.00    +0.000 OA
ATOM      8  C   UNL     1       7.033   6.308  17.038  0.00  0.00    +0.000 A 
ATOM      9  C   UNL     1       7.587   7.612  17.476  0.00  0.00    +0.000 C 
ENDBRANCH   2   4
BRANCH   1  10
ATOM     10  C   UNL     1       3.530   4.689  20.255  0.00  0.00    +0.000 C 
BRANCH  10  11
ATOM     11  C   UNL     1       2.084   5.197  20.410  0.00  0.00    +0.000 C 
BRANCH  11  13
ATOM     12  C   UNL     1       1.626   3.070  21.368  0.00  0.00    +0.000 C 
ATOM     13  O   UNL     1       1.115   4.171  20.627  0.00  0.00    +0.000 OA
ENDBRANCH  11  13
ENDBRANCH  10  11
ENDBRANCH   1  10
BRANCH   1  14
ATOM     14  C   UNL     1       3.255   4.871  17.731  0.00  0.00    +0.000 C 
BRANCH  14  15
ATOM     15  C   UNL     1       2.786   3.627  16.974  0.00  0.00    +0.000 C 
BRANCH  15  16
ATOM     16  O   UNL     1       2.330   2.638  17.899  0.00  0.00    +0.000 OA
ATOM     17  C   UNL     1       3.310   1.637  18.130  0.00  0.00    +0.000 C 
ENDBRANCH  15  16
ENDBRANCH  14  15
ENDBRANCH   1  14
TORSDOF 7
ENDMDL
MODEL 4
REMARK VINA RESULT:      -5.7      1.343      5.012
REMARK  Name = 
REMARK  10 active torsions:
REMARK  status: ('A' for Active; 'I' for Inactive)
REMARK    1  A    between atoms: C_1  and  O_2
REMARK    2  A    between atoms: O_2  and  C_3
REMARK    3  A    between atoms: C_3  and  C_4
REMARK    4  A    between atoms: C_4  and  N_5
REMARK    5  A    between atoms: N_5  and  C_6
REMARK    6  A    between atoms: C_6  and  C_7
REMARK    7  A    between atoms: C_7  and  O_8
REMARK    8  A    between atoms: O_8  and  C_9
REMARK    9  A    between atoms: C_10  and  C_12
REMARK   10  A    between atoms: C_16  and  C_17
REMARK                            x       y       z     vdW  Elec       q    Type
REMARK                         _______ _______ _______ _____ _____    ______ ____
ROOT
ATOM      1  N   UNL     1       4.968   4.987  18.272  0.00  0.00    +0.000 N 
ATOM      2  C   UNL     1       4.509   3.883  19.025  0.00  0.00    +0.000 C 
ATOM      3  O   UNL     1       5.305   3.225  19.701  0.00  0.00    +0.000 OA
ENDROOT
BRANCH   2   4
ATOM      4  C   UNL     1       3.083   3.507  19.117  0.00  0.00    +0.000 A 
ATOM      5  C   UNL     1       2.542   2.433  18.319  0.00  0.00    +0.000 A 
ATOM      6  C   UNL     1       1.202   2.351  18.576  0.00  0.00    +0.000 A 
ATOM      7  O   UNL     1       0.849   3.303  19.464  0.00  0.00    +0.000 OA
ATOM      8  C   UNL     1       1.966   4.038  19.762  0.00  0.00    +0.000 A 
ATOM      9  C   UNL     1       1.645   5.198  20.627  0.00  0.00    +0.000 C 
ENDBRANCH   2   4
BRANCH   1  10
ATOM     10  C   UNL     1       6.431   5.197  18.221  0.00  0.00    +0.000 C 
BRANCH  10  11
ATOM     11  C   UNL     1       7.180   4.511  17.063  0.00  0.00    +0.000 C 
BRANCH  11  13
ATOM     12  C   UNL     1       6.909   4.826  14.721  0.00  0.00    +0.000 C 
ATOM     13  O   UNL     1       7.428   5.353  15.936  0.00  0.00    +0.000 OA
ENDBRANCH  11  13
ENDBRANCH  10  11
ENDBRANCH   1  10
BRANCH   1  14
ATOM     14  C   UNL     1       4.095   5.710  17.350  0.00  0.00    +0.000 C 
BRANCH  14  15
ATOM     15  C   UNL     1       3.810   7.206  17.491  0.00  0.00    +0.000 C 
BRANCH  15  16
ATOM     16  O   UNL     1       2.476   7.403  17.964  0.00  0.00    +0.000 OA
ATOM     17  C   UNL     1       2.128   8.780  18.011  0.00  0.00    +0.000 C 
ENDBRANCH  15  16
ENDBRANCH  14  15
ENDBRANCH   1  14
TORSDOF 7
ENDMDL
MODEL 5
REMARK VINA RESULT:      -5.6      2.377      5.659
REMARK  Name = 
REMARK  10 active torsions:
REMARK  status: ('A' for Active; 'I' for Inactive)
REMARK    1  A    between atoms: C_1  and  O_2
REMARK    2  A    between atoms: O_2  and  C_3
REMARK    3  A    between atoms: C_3  and  C_4
REMARK    4  A    between atoms: C_4  and  N_5
REMARK    5  A    between atoms: N_5  and  C_6
REMARK    6  A    between atoms: C_6  and  C_7
REMARK    7  A    between atoms: C_7  and  O_8
REMARK    8  A    between atoms: O_8  and  C_9
REMARK    9  A    between atoms: C_10  and  C_12
REMARK   10  A    between atoms: C_16  and  C_17
REMARK                            x       y       z     vdW  Elec       q    Type
REMARK                         _______ _______ _______ _____ _____    ______ ____
ROOT
ATOM      1  N   UNL     1       5.994   4.553  17.319  0.00  0.00    +0.000 N 
ATOM      2  C   UNL     1       5.229   3.965  18.353  0.00  0.00    +0.000 C 
ATOM      3  O   UNL     1       5.714   3.841  19.482  0.00  0.00    +0.000 OA
ENDROOT
BRANCH   2   4
ATOM      4  C   UNL     1       3.821   3.553  18.179  0.00  0.00    +0.000 A 
ATOM      5  C   UNL     1       3.470   2.170  17.971  0.00  0.00    +0.000 A 
ATOM      6  C   UNL     1       2.116   2.101  17.794  0.00  0.00    +0.000 A 
ATOM      7  O   UNL     1       1.585   3.338  17.857  0.00  0.00    +0.000 OA
ATOM      8  C   UNL     1       2.609   4.229  18.042  0.00  0.00    +0.000 A 
ATOM      9  C   UNL     1       2.133   5.632  17.984  0.00  0.00    +0.000 C 
ENDBRANCH   2   4
BRANCH   1  10
ATOM     10  C   UNL     1       7.410   4.849  17.625  0.00  0.00    +0.000 C 
BRANCH  10  11
ATOM     11  C   UNL     1       7.705   6.236  18.227  0.00  0.00    +0.000 C 
BRANCH  11  13
ATOM     12  C   UNL     1       7.958   8.551  17.747  0.00  0.00    +0.000 C 
ATOM     13  O   UNL     1       7.301   7.336  17.410  0.00  0.00    +0.000 OA
ENDBRANCH  11  13
ENDBRANCH  10  11
ENDBRANCH   1  10
BRANCH   1  14
ATOM     14  C   UNL     1       5.521   4.596  15.938  0.00  0.00    +0.000 C 
BRANCH  14  15
ATOM     15  C   UNL     1       6.256   3.892  14.796  0.00  0.00    +0.000 C 
BRANCH  15  16
ATOM     16  O   UNL     1       5.508   4.023  13.584  0.00  0.00    +0.000 OA
ATOM     17  C   UNL     1       6.180   3.432  12.481  0.00  0.00    +0.000 C 
ENDBRANCH  15  16
ENDBRANCH  14  15
ENDBRANCH   1  14
TORSDOF 7
ENDMDL
MODEL 6
REMARK VINA RESULT:      -5.6      2.158      5.851
REMARK  Name = 
REMARK  10 active torsions:
REMARK  status: ('A' for Active; 'I' for Inactive)
REMARK    1  A    between atoms: C_1  and  O_2
REMARK    2  A    between atoms: O_2  and  C_3
REMARK    3  A    between atoms: C_3  and  C_4
REMARK    4  A    between atoms: C_4  and  N_5
REMARK    5  A    between atoms: N_5  and  C_6
REMARK    6  A    between atoms: C_6  and  C_7
REMARK    7  A    between atoms: C_7  and  O_8
REMARK    8  A    between atoms: O_8  and  C_9
REMARK    9  A    between atoms: C_10  and  C_12
REMARK   10  A    between atoms: C_16  and  C_17
REMARK                            x       y       z     vdW  Elec       q    Type
REMARK                         _______ _______ _______ _____ _____    ______ ____
ROOT
ATOM      1  N   UNL     1       4.340   3.861  17.732  0.00  0.00    +0.000 N 
ATOM      2  C   UNL     1       2.946   3.776  17.951  0.00  0.00    +0.000 C 
ATOM      3  O   UNL     1       2.172   3.761  16.989  0.00  0.00    +0.000 OA
ENDROOT
BRANCH   2   4
ATOM      4  C   UNL     1       2.349   3.620  19.293  0.00  0.00    +0.000 A 
ATOM      5  C   UNL     1       1.937   2.326  19.780  0.00  0.00    +0.000 A 
ATOM      6  C   UNL     1       1.381   2.498  21.017  0.00  0.00    +0.000 A 
ATOM      7  O   UNL     1       1.393   3.806  21.343  0.00  0.00    +0.000 OA
ATOM      8  C   UNL     1       1.932   4.500  20.292  0.00  0.00    +0.000 A 
ATOM      9  C   UNL     1       1.859   5.965  20.505  0.00  0.00    +0.000 C 
ENDBRANCH   2   4
BRANCH   1  10
ATOM     10  C   UNL     1       4.783   4.084  16.340  0.00  0.00    +0.000 C 
BRANCH  10  11
ATOM     11  C   UNL     1       5.053   5.545  15.933  0.00  0.00    +0.000 C 
BRANCH  11  13
ATOM     12  C   UNL     1       7.057   4.709  14.964  0.00  0.00    +0.000 C 
ATOM     13  O   UNL     1       6.407   5.820  15.569  0.00  0.00    +0.000 OA
ENDBRANCH  11  13
ENDBRANCH  10  11
ENDBRANCH   1  10
BRANCH   1  14
ATOM     14  C   UNL     1       5.286   4.023  18.833  0.00  0.00    +0.000 C 
BRANCH  14  15
ATOM     15  C   UNL     1       5.777   5.395  19.300  0.00  0.00    +0.000 C 
BRANCH  15  16
ATOM     16  O   UNL     1       7.183   5.346  19.556  0.00  0.00    +0.000 OA
ATOM     17  C   UNL     1       7.895   6.305  18.787  0.00  0.00    +0.000 C 
ENDBRANCH  15  16
ENDBRANCH  14  15
ENDBRANCH   1  14
TORSDOF 7
ENDMDL
MODEL 7
REMARK VINA RESULT:      -5.6      2.039      3.588
REMARK  Name = 
REMARK  10 active torsions:
REMARK  status: ('A' for Active; 'I' for Inactive)
REMARK    1  A    between atoms: C_1  and  O_2
REMARK    2  A    between atoms: O_2  and  C_3
REMARK    3  A    between atoms: C_3  and  C_4
REMARK    4  A    between atoms: C_4  and  N_5
REMARK    5  A    between atoms: N_5  and  C_6
REMARK    6  A    between atoms: C_6  and  C_7
REMARK    7  A    between atoms: C_7  and  O_8
REMARK    8  A    between atoms: O_8  and  C_9
REMARK    9  A    between atoms: C_10  and  C_12
REMARK   10  A    between atoms: C_16  and  C_17
REMARK                            x       y       z     vdW  Elec       q    Type
REMARK                         _______ _______ _______ _____ _____    ______ ____
ROOT
ATOM      1  N   UNL     1       3.506   4.812  17.660  0.00  0.00    +0.000 N 
ATOM      2  C   UNL     1       4.425   5.752  17.140  0.00  0.00    +0.000 C 
ATOM      3  O   UNL     1       4.293   6.952  17.404  0.00  0.00    +0.000 OA
ENDROOT
BRANCH   2   4
ATOM      4  C   UNL     1       5.609   5.367  16.346  0.00  0.00    +0.000 A 
ATOM      5  C   UNL     1       5.535   5.242  14.910  0.00  0.00    +0.000 A 
ATOM      6  C   UNL     1       6.757   4.828  14.460  0.00  0.00    +0.000 A 
ATOM      7  O   UNL     1       7.596   4.665  15.503  0.00  0.00    +0.000 OA
ATOM      8  C   UNL     1       6.902   4.942  16.651  0.00  0.00    +0.000 A 
ATOM      9  C   UNL     1       7.707   4.654  17.862  0.00  0.00    +0.000 C 
ENDBRANCH   2   4
BRANCH   1  10
ATOM     10  C   UNL     1       2.332   5.354  18.377  0.00  0.00    +0.000 C 
BRANCH  10  11
ATOM     11  C   UNL     1       2.419   5.373  19.915  0.00  0.00    +0.000 C 
BRANCH  11  13
ATOM     12  C   UNL     1       1.975   7.709  19.918  0.00  0.00    +0.000 C 
ATOM     13  O   UNL     1       1.721   6.454  20.535  0.00  0.00    +0.000 OA
ENDBRANCH  11  13
ENDBRANCH  10  11
ENDBRANCH   1  10
BRANCH   1  14
ATOM     14  C   UNL     1       3.534   3.406  17.266  0.00  0.00    +0.000 C 
BRANCH  14  15
ATOM     15  C   UNL     1       2.819   2.314  18.065  0.00  0.00    +0.000 C 
BRANCH  15  16
ATOM     16  O   UNL     1       3.778   1.503  18.746  0.00  0.00    +0.000 OA
ATOM     17  C   UNL     1       4.309   2.157  19.890  0.00  0.00    +0.000 C 
ENDBRANCH  15  16
ENDBRANCH  14  15
ENDBRANCH   1  14
TORSDOF 7
ENDMDL
MODEL 8
REMARK VINA RESULT:      -5.6      1.492      2.994
REMARK  Name = 
REMARK  10 active torsions:
REMARK  status: ('A' for Active; 'I' for Inactive)
REMARK    1  A    between atoms: C_1  and  O_2
REMARK    2  A    between atoms: O_2  and  C_3
REMARK    3  A    between atoms: C_3  and  C_4
REMARK    4  A    between atoms: C_4  and  N_5
REMARK    5  A    between atoms: N_5  and  C_6
REMARK    6  A    between atoms: C_6  and  C_7
REMARK    7  A    between atoms: C_7  and  O_8
REMARK    8  A    between atoms: O_8  and  C_9
REMARK    9  A    between atoms: C_10  and  C_12
REMARK   10  A    between atoms: C_16  and  C_17
REMARK                            x       y       z     vdW  Elec       q    Type
REMARK                         _______ _______ _______ _____ _____    ______ ____
ROOT
ATOM      1  N   UNL     1       4.120   5.830  18.932  0.00  0.00    +0.000 N 
ATOM      2  C   UNL     1       4.302   6.382  17.643  0.00  0.00    +0.000 C 
ATOM      3  O   UNL     1       3.482   7.190  17.198  0.00  0.00    +0.000 OA
ENDROOT
BRANCH   2   4
ATOM      4  C   UNL     1       5.489   6.103  16.808  0.00  0.00    +0.000 A 
ATOM      5  C   UNL     1       5.426   5.162  15.716  0.00  0.00    +0.000 A 
ATOM      6  C   UNL     1       6.674   5.074  15.164  0.00  0.00    +0.000 A 
ATOM      7  O   UNL     1       7.526   5.876  15.834  0.00  0.00    +0.000 OA
ATOM      8  C   UNL     1       6.834   6.467  16.858  0.00  0.00    +0.000 A 
ATOM      9  C   UNL     1       7.725   7.261  17.737  0.00  0.00    +0.000 C 
ENDBRANCH   2   4
BRANCH   1  10
ATOM     10  C   UNL     1       2.850   6.147  19.619  0.00  0.00    +0.000 C 
BRANCH  10  11
ATOM     11  C   UNL     1       1.864   4.979  19.808  0.00  0.00    +0.000 C 
BRANCH  11  13
ATOM     12  C   UNL     1       1.593   3.095  21.234  0.00  0.00    +0.000 C 
ATOM     13  O   UNL     1       1.756   4.505  21.151  0.00  0.00    +0.000 OA
ENDBRANCH  11  13
ENDBRANCH  10  11
ENDBRANCH   1  10
BRANCH   1  14
ATOM     14  C   UNL     1       4.982   4.769  19.446  0.00  0.00    +0.000 C 
BRANCH  14  15
ATOM     15  C   UNL     1       4.655   3.284  19.266  0.00  0.00    +0.000 C 
BRANCH  15  16
ATOM     16  O   UNL     1       4.054   3.072  17.987  0.00  0.00    +0.000 OA
ATOM     17  C   UNL     1       3.234   1.911  17.973  0.00  0.00    +0.000 C 
ENDBRANCH  15  16
ENDBRANCH  14  15
ENDBRANCH   1  14
TORSDOF 7
ENDMDL
MODEL 9
REMARK VINA RESULT:      -5.6      0.736      1.580
REMARK  Name = 
REMARK  10 active torsions:
REMARK  status: ('A' for Active; 'I' for Inactive)
REMARK    1  A    between atoms: C_1  and  O_2
REMARK    2  A    between atoms: O_2  and  C_3
REMARK    3  A    between atoms: C_3  and  C_4
REMARK    4  A    between atoms: C_4  and  N_5
REMARK    5  A    between atoms: N_5  and  C_6
REMARK    6  A    between atoms: C_6  and  C_7
REMARK    7  A    between atoms: C_7  and  O_8
REMARK    8  A    between atoms: O_8  and  C_9
REMARK    9  A    between atoms: C_10  and  C_12
REMARK   10  A    between atoms: C_16  and  C_17
REMARK                            x       y       z     vdW  Elec       q    Type
REMARK                         _______ _______ _______ _____ _____    ______ ____
ROOT
ATOM      1  N   UNL     1       3.770   4.753  18.728  0.00  0.00    +0.000 N 
ATOM      2  C   UNL     1       5.162   4.511  18.734  0.00  0.00    +0.000 C 
ATOM      3  O   UNL     1       5.636   3.663  19.496  0.00  0.00    +0.000 OA
ENDROOT
BRANCH   2   4
ATOM      4  C   UNL     1       6.100   5.172  17.802  0.00  0.00    +0.000 A 
ATOM      5  C   UNL     1       6.765   6.401  18.162  0.00  0.00    +0.000 A 
ATOM      6  C   UNL     1       7.521   6.798  17.095  0.00  0.00    +0.000 A 
ATOM      7  O   UNL     1       7.373   5.923  16.080  0.00  0.00    +0.000 OA
ATOM      8  C   UNL     1       6.481   4.962  16.477  0.00  0.00    +0.000 A 
ATOM      9  C   UNL     1       6.148   4.031  15.373  0.00  0.00    +0.000 C 
ENDBRANCH   2   4
BRANCH   1  10
ATOM     10  C   UNL     1       2.970   4.068  19.765  0.00  0.00    +0.000 C 
BRANCH  10  11
ATOM     11  C   UNL     1       1.554   3.623  19.355  0.00  0.00    +0.000 C 
BRANCH  11  13
ATOM     12  C   UNL     1       1.598   2.716  21.553  0.00  0.00    +0.000 C 
ATOM     13  O   UNL     1       0.839   2.912  20.367  0.00  0.00    +0.000 OA
ENDBRANCH  11  13
ENDBRANCH  10  11
ENDBRANCH   1  10
BRANCH   1  14
ATOM     14  C   UNL     1       3.179   5.839  17.950  0.00  0.00    +0.000 C 
BRANCH  14  15
ATOM     15  C   UNL     1       2.677   7.133  18.594  0.00  0.00    +0.000 C 
BRANCH  15  16
ATOM     16  O   UNL     1       2.749   8.205  17.651  0.00  0.00    +0.000 OA
ATOM     17  C   UNL     1       1.775   9.205  17.910  0.00  0.00    +0.000 C 
ENDBRANCH  15  16
ENDBRANCH  14  15
ENDBRANCH   1  14
TORSDOF 7
ENDMDL
