MODEL 1
REMARK VINA RESULT:      -9.2      0.000      0.000
REMARK  Name = 
REMARK  9 active torsions:
REMARK  status: ('A' for Active; 'I' for Inactive)
REMARK    1  A    between atoms: C_1  and  C_2
REMARK    2  A    between atoms: C_4  and  N_5
REMARK    3  A    between atoms: C_6  and  C_8
REMARK    4  A    between atoms: C_8  and  O_9
REMARK    5  A    between atoms: C_8  and  C_10
REMARK    6  A    between atoms: C_20  and  C_21
REMARK    7  A    between atoms: C_24  and  N_25
REMARK    8  A    between atoms: C_26  and  C_27
REMARK    9  A    between atoms: N_29  and  C_30
REMARK                            x       y       z     vdW  Elec       q    Type
REMARK                         _______ _______ _______ _____ _____    ______ ____
ROOT
ATOM      1  C   UNL     1       0.649   8.976  21.538  0.00  0.00    +0.000 C 
ATOM      2  C   UNL     1       1.250   8.833  20.164  0.00  0.00    +0.000 A 
ATOM      3  C   UNL     1       1.944   7.626  19.926  0.00  0.00    +0.000 A 
ATOM      4  C   UNL     1       2.492   7.304  18.687  0.00  0.00    +0.000 A 
ATOM      5  C   UNL     1       2.400   8.249  17.669  0.00  0.00    +0.000 A 
ATOM      6  C   UNL     1       1.741   9.470  17.891  0.00  0.00    +0.000 A 
ATOM      7  C   UNL     1       1.141   9.799  19.131  0.00  0.00    +0.000 A 
ENDROOT
BRANCH   7   8
ATOM      8  C   UNL     1       0.441  11.103  19.282  0.00  0.00    +0.000 A 
ATOM      9  C   UNL     1       1.100  12.329  19.194  0.00  0.00    +0.000 A 
ATOM     10  N   UNL     1       0.524  13.552  19.352  0.00  0.00    +0.000 NA
ATOM     11  C   UNL     1      -0.804  13.595  19.577  0.00  0.00    +0.000 A 
ATOM     12  C   UNL     1      -1.587  12.445  19.635  0.00  0.00    +0.000 A 
ATOM     13  C   UNL     1      -0.932  11.206  19.537  0.00  0.00    +0.000 A 
BRANCH  12  14
ATOM     14  C   UNL     1      -3.071  12.419  19.773  0.00  0.00    +0.000 C 
ATOM     15  O   UNL     1      -3.585  12.595  20.876  0.00  0.00    +0.000 OA
ATOM     16  N   UNL     1      -3.812  12.163  18.637  0.00  0.00    +0.000 N 
ATOM     17  H   UNL     1      -3.314  11.858  17.802  0.00  0.00    +0.000 HD
BRANCH  16  18
ATOM     18  C   UNL     1      -5.236  12.094  18.657  0.00  0.00    +0.000 C 
ATOM     19  C   UNL     1      -6.031  12.231  17.387  0.00  0.00    +0.000 C 
ATOM     20  C   UNL     1      -5.950  10.903  18.081  0.00  0.00    +0.000 C 
ENDBRANCH  16  18
ENDBRANCH  12  14
BRANCH  11  21
ATOM     21  N   UNL     1      -1.301  14.886  19.795  0.00  0.00    +0.000 N 
ATOM     22  H   UNL     1      -0.869  15.462  19.071  0.00  0.00    +0.000 HD
ATOM     23  H   UNL     1      -0.991  15.214  20.709  0.00  0.00    +0.000 HD
ENDBRANCH  11  21
ENDBRANCH   7   8
BRANCH   4  24
ATOM     24  N   UNL     1       3.125   6.069  18.422  0.00  0.00    +0.000 N 
ATOM     25  C   UNL     1       2.494   4.919  17.965  0.00  0.00    +0.000 C 
ATOM     26  O   UNL     1       1.304   4.822  17.657  0.00  0.00    +0.000 OA
ATOM     27  H   UNL     1       4.140   6.076  18.423  0.00  0.00    +0.000 HD
BRANCH  25  28
ATOM     28  C   UNL     1       3.422   3.704  17.768  0.00  0.00    +0.000 C 
BRANCH  28  29
ATOM     29  C   UNL     1       4.808   4.063  17.264  0.00  0.00    +0.000 A 
ATOM     30  C   UNL     1       5.069   4.146  15.886  0.00  0.00    +0.000 A 
ATOM     31  C   UNL     1       6.346   4.453  15.420  0.00  0.00    +0.000 A 
ATOM     32  F   UNL     1       6.569   4.500  14.100  0.00  0.00    +0.000 F 
ATOM     33  C   UNL     1       7.388   4.704  16.298  0.00  0.00    +0.000 A 
ATOM     34  C   UNL     1       7.133   4.661  17.659  0.00  0.00    +0.000 A 
ATOM     35  F   UNL     1       8.127   4.908  18.521  0.00  0.00    +0.000 F 
ATOM     36  C   UNL     1       5.866   4.353  18.146  0.00  0.00    +0.000 A 
ENDBRANCH  28  29
BRANCH  28  37
ATOM     37  O   UNL     1       3.530   3.109  19.069  0.00  0.00    +0.000 OA
ATOM     38  H   UNL     1       4.444   2.758  19.112  0.00  0.00    +0.000 HD
ENDBRANCH  28  37
ENDBRANCH  25  28
ENDBRANCH   4  24
TORSDOF 8
ENDMDL
MODEL 2
REMARK VINA RESULT:      -9.1      2.631      3.394
REMARK  Name = 
REMARK  9 active torsions:
REMARK  status: ('A' for Active; 'I' for Inactive)
REMARK    1  A    between atoms: C_1  and  C_2
REMARK    2  A    between atoms: C_4  and  N_5
REMARK    3  A    between atoms: C_6  and  C_8
REMARK    4  A    between atoms: C_8  and  O_9
REMARK    5  A    between atoms: C_8  and  C_10
REMARK    6  A    between atoms: C_20  and  C_21
REMARK    7  A    between atoms: C_24  and  N_25
REMARK    8  A    between atoms: C_26  and  C_27
REMARK    9  A    between atoms: N_29  and  C_30
REMARK                            x       y       z     vdW  Elec       q    Type
REMARK                         _______ _______ _______ _____ _____    ______ ____
ROOT
ATOM      1  C   UNL     1       1.484   6.629  20.976  0.00  0.00    +0.000 C 
ATOM      2  C   UNL     1       2.182   7.050  19.708  0.00  0.00    +0.000 A 
ATOM      3  C   UNL     1       3.110   6.121  19.187  0.00  0.00    +0.000 A 
ATOM      4  C   UNL     1       3.782   6.321  17.985  0.00  0.00    +0.000 A 
ATOM      5  C   UNL     1       3.568   7.520  17.312  0.00  0.00    +0.000 A 
ATOM      6  C   UNL     1       2.673   8.473  17.826  0.00  0.00    +0.000 A 
ATOM      7  C   UNL     1       1.947   8.271  19.025  0.00  0.00    +0.000 A 
ENDROOT
BRANCH   7   8
ATOM      8  C   UNL     1       1.000   9.317  19.493  0.00  0.00    +0.000 A 
ATOM      9  C   UNL     1       1.115   9.940  20.736  0.00  0.00    +0.000 A 
ATOM     10  N   UNL     1       0.265  10.881  21.233  0.00  0.00    +0.000 NA
ATOM     11  C   UNL     1      -0.757  11.278  20.451  0.00  0.00    +0.000 A 
ATOM     12  C   UNL     1      -0.954  10.772  19.169  0.00  0.00    +0.000 A 
ATOM     13  C   UNL     1      -0.092   9.752  18.731  0.00  0.00    +0.000 A 
BRANCH  12  14
ATOM     14  C   UNL     1      -1.994  11.239  18.208  0.00  0.00    +0.000 C 
ATOM     15  O   UNL     1      -2.934  11.923  18.611  0.00  0.00    +0.000 OA
ATOM     16  N   UNL     1      -1.867  10.849  16.891  0.00  0.00    +0.000 N 
ATOM     17  H   UNL     1      -1.163  10.146  16.668  0.00  0.00    +0.000 HD
BRANCH  16  18
ATOM     18  C   UNL     1      -2.814  11.221  15.892  0.00  0.00    +0.000 C 
ATOM     19  C   UNL     1      -3.012  10.373  14.665  0.00  0.00    +0.000 C 
ATOM     20  C   UNL     1      -4.083  10.434  15.714  0.00  0.00    +0.000 C 
ENDBRANCH  16  18
ENDBRANCH  12  14
BRANCH  11  21
ATOM     21  N   UNL     1      -1.619  12.195  21.065  0.00  0.00    +0.000 N 
ATOM     22  H   UNL     1      -1.009  12.930  21.427  0.00  0.00    +0.000 HD
ATOM     23  H   UNL     1      -2.090  11.740  21.847  0.00  0.00    +0.000 HD
ENDBRANCH  11  21
ENDBRANCH   7   8
BRANCH   4  24
ATOM     24  N   UNL     1       4.658   5.366  17.424  0.00  0.00    +0.000 N 
ATOM     25  C   UNL     1       5.925   5.631  16.915  0.00  0.00    +0.000 C 
ATOM     26  O   UNL     1       6.498   6.722  16.938  0.00  0.00    +0.000 OA
ATOM     27  H   UNL     1       4.399   4.393  17.545  0.00  0.00    +0.000 HD
BRANCH  25  28
ATOM     28  C   UNL     1       6.668   4.404  16.353  0.00  0.00    +0.000 C 
BRANCH  28  29
ATOM     29  C   UNL     1       6.771   4.387  14.839  0.00  0.00    +0.000 A 
ATOM     30  C   UNL     1       7.659   5.248  14.172  0.00  0.00    +0.000 A 
ATOM     31  C   UNL     1       7.739   5.250  12.781  0.00  0.00    +0.000 A 
ATOM     32  F   UNL     1       8.577   6.101  12.174  0.00  0.00    +0.000 F 
ATOM     33  C   UNL     1       6.962   4.395  12.016  0.00  0.00    +0.000 A 
ATOM     34  C   UNL     1       6.109   3.516  12.665  0.00  0.00    +0.000 A 
ATOM     35  F   UNL     1       5.357   2.678  11.942  0.00  0.00    +0.000 F 
ATOM     36  C   UNL     1       6.011   3.499  14.053  0.00  0.00    +0.000 A 
ENDBRANCH  28  29
BRANCH  28  37
ATOM     37  O   UNL     1       7.985   4.482  16.917  0.00  0.00    +0.000 OA
ATOM     38  H   UNL     1       8.021   3.757  17.576  0.00  0.00    +0.000 HD
ENDBRANCH  28  37
ENDBRANCH  25  28
ENDBRANCH   4  24
TORSDOF 8
ENDMDL
MODEL 3
REMARK VINA RESULT:      -8.9      0.489      1.491
REMARK  Name = 
REMARK  9 active torsions:
REMARK  status: ('A' for Active; 'I' for Inactive)
REMARK    1  A    between atoms: C_1  and  C_2
REMARK    2  A    between atoms: C_4  and  N_5
REMARK    3  A    between atoms: C_6  and  C_8
REMARK    4  A    between atoms: C_8  and  O_9
REMARK    5  A    between atoms: C_8  and  C_10
REMARK    6  A    between atoms: C_20  and  C_21
REMARK    7  A    between atoms: C_24  and  N_25
REMARK    8  A    between atoms: C_26  and  C_27
REMARK    9  A    between atoms: N_29  and  C_30
REMARK                            x       y       z     vdW  Elec       q    Type
REMARK                         _______ _______ _______ _____ _____    ______ ____
ROOT
ATOM      1  C   UNL     1       0.589   8.975  21.578  0.00  0.00    +0.000 C 
ATOM      2  C   UNL     1       1.235   8.805  20.227  0.00  0.00    +0.000 A 
ATOM      3  C   UNL     1       1.933   7.591  20.035  0.00  0.00    +0.000 A 
ATOM      4  C   UNL     1       2.521   7.244  18.822  0.00  0.00    +0.000 A 
ATOM      5  C   UNL     1       2.465   8.169  17.783  0.00  0.00    +0.000 A 
ATOM      6  C   UNL     1       1.802   9.395  17.959  0.00  0.00    +0.000 A 
ATOM      7  C   UNL     1       1.162   9.750  19.172  0.00  0.00    +0.000 A 
ENDROOT
BRANCH   7   8
ATOM      8  C   UNL     1       0.461  11.058  19.274  0.00  0.00    +0.000 A 
ATOM      9  C   UNL     1       1.112  12.280  19.106  0.00  0.00    +0.000 A 
ATOM     10  N   UNL     1       0.535  13.508  19.216  0.00  0.00    +0.000 NA
ATOM     11  C   UNL     1      -0.787  13.558  19.473  0.00  0.00    +0.000 A 
ATOM     12  C   UNL     1      -1.563  12.411  19.610  0.00  0.00    +0.000 A 
ATOM     13  C   UNL     1      -0.906  11.170  19.559  0.00  0.00    +0.000 A 
BRANCH  12  14
ATOM     14  C   UNL     1      -3.043  12.387  19.786  0.00  0.00    +0.000 C 
ATOM     15  O   UNL     1      -3.525  12.476  20.915  0.00  0.00    +0.000 OA
ATOM     16  N   UNL     1      -3.818  12.234  18.655  0.00  0.00    +0.000 N 
ATOM     17  H   UNL     1      -3.346  11.995  17.783  0.00  0.00    +0.000 HD
BRANCH  16  18
ATOM     18  C   UNL     1      -5.241  12.177  18.710  0.00  0.00    +0.000 C 
ATOM     19  C   UNL     1      -6.047  11.860  17.479  0.00  0.00    +0.000 C 
ATOM     20  C   UNL     1      -5.957  10.860  18.594  0.00  0.00    +0.000 C 
ENDBRANCH  16  18
ENDBRANCH  12  14
BRANCH  11  21
ATOM     21  N   UNL     1      -1.284  14.857  19.637  0.00  0.00    +0.000 N 
ATOM     22  H   UNL     1      -0.607  15.461  19.168  0.00  0.00    +0.000 HD
ATOM     23  H   UNL     1      -1.299  15.086  20.631  0.00  0.00    +0.000 HD
ENDBRANCH  11  21
ENDBRANCH   7   8
BRANCH   4  24
ATOM     24  N   UNL     1       3.160   6.003  18.603  0.00  0.00    +0.000 N 
ATOM     25  C   UNL     1       2.625   4.756  18.902  0.00  0.00    +0.000 C 
ATOM     26  O   UNL     1       1.492   4.541  19.338  0.00  0.00    +0.000 OA
ATOM     27  H   UNL     1       4.007   6.027  18.046  0.00  0.00    +0.000 HD
BRANCH  25  28
ATOM     28  C   UNL     1       3.541   3.561  18.570  0.00  0.00    +0.000 C 
BRANCH  28  29
ATOM     29  C   UNL     1       4.788   3.939  17.792  0.00  0.00    +0.000 A 
ATOM     30  C   UNL     1       5.923   4.433  18.457  0.00  0.00    +0.000 A 
ATOM     31  C   UNL     1       7.062   4.802  17.743  0.00  0.00    +0.000 A 
ATOM     32  F   UNL     1       8.119   5.293  18.403  0.00  0.00    +0.000 F 
ATOM     33  C   UNL     1       7.116   4.677  16.364  0.00  0.00    +0.000 A 
ATOM     34  C   UNL     1       6.015   4.157  15.702  0.00  0.00    +0.000 A 
ATOM     35  F   UNL     1       6.053   4.022  14.371  0.00  0.00    +0.000 F 
ATOM     36  C   UNL     1       4.866   3.785  16.395  0.00  0.00    +0.000 A 
ENDBRANCH  28  29
BRANCH  28  37
ATOM     37  O   UNL     1       3.922   3.025  19.845  0.00  0.00    +0.000 OA
ATOM     38  H   UNL     1       4.676   3.578  20.138  0.00  0.00    +0.000 HD
ENDBRANCH  28  37
ENDBRANCH  25  28
ENDBRANCH   4  24
TORSDOF 8
ENDMDL
MODEL 4
REMARK VINA RESULT:      -8.9      0.978      1.133
REMARK  Name = 
REMARK  9 active torsions:
REMARK  status: ('A' for Active; 'I' for Inactive)
REMARK    1  A    between atoms: C_1  and  C_2
REMARK    2  A    between atoms: C_4  and  N_5
REMARK    3  A    between atoms: C_6  and  C_8
REMARK    4  A    between atoms: C_8  and  O_9
REMARK    5  A    between atoms: C_8  and  C_10
REMARK    6  A    between atoms: C_20  and  C_21
REMARK    7  A    between atoms: C_24  and  N_25
REMARK    8  A    between atoms: C_26  and  C_27
REMARK    9  A    between atoms: N_29  and  C_30
REMARK                            x       y       z     vdW  Elec       q    Type
REMARK                         _______ _______ _______ _____ _____    ______ ____
ROOT
ATOM      1  C   UNL     1       0.554   8.898  21.868  0.00  0.00    +0.000 C 
ATOM      2  C   UNL     1       1.120   8.713  20.484  0.00  0.00    +0.000 A 
ATOM      3  C   UNL     1       1.878   7.537  20.289  0.00  0.00    +0.000 A 
ATOM      4  C   UNL     1       2.407   7.178  19.052  0.00  0.00    +0.000 A 
ATOM      5  C   UNL     1       2.226   8.056  17.987  0.00  0.00    +0.000 A 
ATOM      6  C   UNL     1       1.502   9.247  18.164  0.00  0.00    +0.000 A 
ATOM      7  C   UNL     1       0.921   9.610  19.403  0.00  0.00    +0.000 A 
ENDROOT
BRANCH   7   8
ATOM      8  C   UNL     1       0.148  10.877  19.506  0.00  0.00    +0.000 A 
ATOM      9  C   UNL     1       0.746  12.108  19.774  0.00  0.00    +0.000 A 
ATOM     10  N   UNL     1       0.093  13.295  19.909  0.00  0.00    +0.000 NA
ATOM     11  C   UNL     1      -1.243  13.298  19.735  0.00  0.00    +0.000 A 
ATOM     12  C   UNL     1      -1.955  12.146  19.412  0.00  0.00    +0.000 A 
ATOM     13  C   UNL     1      -1.243  10.935  19.355  0.00  0.00    +0.000 A 
BRANCH  12  14
ATOM     14  C   UNL     1      -3.412  12.091  19.100  0.00  0.00    +0.000 C 
ATOM     15  O   UNL     1      -3.782  11.811  17.961  0.00  0.00    +0.000 OA
ATOM     16  N   UNL     1      -4.293  12.393  20.117  0.00  0.00    +0.000 N 
ATOM     17  H   UNL     1      -3.912  12.781  20.979  0.00  0.00    +0.000 HD
BRANCH  16  18
ATOM     18  C   UNL     1      -5.706  12.392  19.924  0.00  0.00    +0.000 C 
ATOM     19  C   UNL     1      -6.618  13.073  20.908  0.00  0.00    +0.000 C 
ATOM     20  C   UNL     1      -6.425  13.655  19.539  0.00  0.00    +0.000 C 
ENDBRANCH  16  18
ENDBRANCH  12  14
BRANCH  11  21
ATOM     21  N   UNL     1      -1.842  14.544  19.959  0.00  0.00    +0.000 N 
ATOM     22  H   UNL     1      -2.277  14.792  19.069  0.00  0.00    +0.000 HD
ATOM     23  H   UNL     1      -1.118  15.229  20.176  0.00  0.00    +0.000 HD
ENDBRANCH  11  21
ENDBRANCH   7   8
BRANCH   4  24
ATOM     24  N   UNL     1       3.106   5.970  18.835  0.00  0.00    +0.000 N 
ATOM     25  C   UNL     1       2.588   4.836  18.221  0.00  0.00    +0.000 C 
ATOM     26  O   UNL     1       1.468   4.736  17.715  0.00  0.00    +0.000 OA
ATOM     27  H   UNL     1       4.106   5.993  19.005  0.00  0.00    +0.000 HD
BRANCH  25  28
ATOM     28  C   UNL     1       3.565   3.649  18.120  0.00  0.00    +0.000 C 
BRANCH  28  29
ATOM     29  C   UNL     1       4.907   4.007  17.507  0.00  0.00    +0.000 A 
ATOM     30  C   UNL     1       5.103   3.924  16.118  0.00  0.00    +0.000 A 
ATOM     31  C   UNL     1       6.341   4.230  15.554  0.00  0.00    +0.000 A 
ATOM     32  F   UNL     1       6.504   4.118  14.229  0.00  0.00    +0.000 F 
ATOM     33  C   UNL     1       7.405   4.641  16.341  0.00  0.00    +0.000 A 
ATOM     34  C   UNL     1       7.212   4.760  17.708  0.00  0.00    +0.000 A 
ATOM     35  F   UNL     1       8.228   5.163  18.481  0.00  0.00    +0.000 F 
ATOM     36  C   UNL     1       5.986   4.457  18.292  0.00  0.00    +0.000 A 
ENDBRANCH  28  29
BRANCH  28  37
ATOM     37  O   UNL     1       3.763   3.219  19.475  0.00  0.00    +0.000 OA
ATOM     38  H   UNL     1       4.223   3.967  19.913  0.00  0.00    +0.000 HD
ENDBRANCH  28  37
ENDBRANCH  25  28
ENDBRANCH   4  24
TORSDOF 8
ENDMDL
MODEL 5
REMARK VINA RESULT:      -8.8      1.096      1.863
REMARK  Name = 
REMARK  9 active torsions:
REMARK  status: ('A' for Active; 'I' for Inactive)
REMARK    1  A    between atoms: C_1  and  C_2
REMARK    2  A    between atoms: C_4  and  N_5
REMARK    3  A    between atoms: C_6  and  C_8
REMARK    4  A    between atoms: C_8  and  O_9
REMARK    5  A    between atoms: C_8  and  C_10
REMARK    6  A    between atoms: C_20  and  C_21
REMARK    7  A    between atoms: C_24  and  N_25
REMARK    8  A    between atoms: C_26  and  C_27
REMARK    9  A    between atoms: N_29  and  C_30
REMARK                            x       y       z     vdW  Elec       q    Type
REMARK                         _______ _______ _______ _____ _____    ______ ____
ROOT
ATOM      1  C   UNL     1       0.497   8.851  21.885  0.00  0.00    +0.000 C 
ATOM      2  C   UNL     1       1.075   8.682  20.503  0.00  0.00    +0.000 A 
ATOM      3  C   UNL     1       1.862   7.524  20.311  0.00  0.00    +0.000 A 
ATOM      4  C   UNL     1       2.406   7.180  19.076  0.00  0.00    +0.000 A 
ATOM      5  C   UNL     1       2.210   8.056  18.012  0.00  0.00    +0.000 A 
ATOM      6  C   UNL     1       1.456   9.228  18.186  0.00  0.00    +0.000 A 
ATOM      7  C   UNL     1       0.859   9.576  19.423  0.00  0.00    +0.000 A 
ENDROOT
BRANCH   7   8
ATOM      8  C   UNL     1       0.056  10.823  19.523  0.00  0.00    +0.000 A 
ATOM      9  C   UNL     1       0.615  12.059  19.850  0.00  0.00    +0.000 A 
ATOM     10  N   UNL     1      -0.069  13.227  19.986  0.00  0.00    +0.000 NA
ATOM     11  C   UNL     1      -1.396  13.208  19.752  0.00  0.00    +0.000 A 
ATOM     12  C   UNL     1      -2.067  12.051  19.368  0.00  0.00    +0.000 A 
ATOM     13  C   UNL     1      -1.328  10.857  19.311  0.00  0.00    +0.000 A 
BRANCH  12  14
ATOM     14  C   UNL     1      -3.507  11.975  18.988  0.00  0.00    +0.000 C 
ATOM     15  O   UNL     1      -3.821  11.648  17.845  0.00  0.00    +0.000 OA
ATOM     16  N   UNL     1      -4.438  12.311  19.949  0.00  0.00    +0.000 N 
ATOM     17  H   UNL     1      -4.100  12.735  20.813  0.00  0.00    +0.000 HD
BRANCH  16  18
ATOM     18  C   UNL     1      -5.840  12.293  19.689  0.00  0.00    +0.000 C 
ATOM     19  C   UNL     1      -6.768  11.460  20.531  0.00  0.00    +0.000 C 
ATOM     20  C   UNL     1      -6.800  12.956  20.638  0.00  0.00    +0.000 C 
ENDBRANCH  16  18
ENDBRANCH  12  14
BRANCH  11  21
ATOM     21  N   UNL     1      -2.031  14.435  19.981  0.00  0.00    +0.000 N 
ATOM     22  H   UNL     1      -2.371  14.733  19.065  0.00  0.00    +0.000 HD
ATOM     23  H   UNL     1      -1.343  15.110  20.315  0.00  0.00    +0.000 HD
ENDBRANCH  11  21
ENDBRANCH   7   8
BRANCH   4  24
ATOM     24  N   UNL     1       3.135   5.990  18.861  0.00  0.00    +0.000 N 
ATOM     25  C   UNL     1       2.599   4.707  18.838  0.00  0.00    +0.000 C 
ATOM     26  O   UNL     1       1.404   4.422  18.933  0.00  0.00    +0.000 OA
ATOM     27  H   UNL     1       4.094   6.101  18.549  0.00  0.00    +0.000 HD
BRANCH  25  28
ATOM     28  C   UNL     1       3.622   3.581  18.592  0.00  0.00    +0.000 C 
BRANCH  28  29
ATOM     29  C   UNL     1       4.832   4.014  17.782  0.00  0.00    +0.000 A 
ATOM     30  C   UNL     1       6.017   4.412  18.424  0.00  0.00    +0.000 A 
ATOM     31  C   UNL     1       7.121   4.832  17.684  0.00  0.00    +0.000 A 
ATOM     32  F   UNL     1       8.228   5.228  18.325  0.00  0.00    +0.000 F 
ATOM     33  C   UNL     1       7.090   4.852  16.299  0.00  0.00    +0.000 A 
ATOM     34  C   UNL     1       5.938   4.427  15.655  0.00  0.00    +0.000 A 
ATOM     35  F   UNL     1       5.895   4.433  14.317  0.00  0.00    +0.000 F 
ATOM     36  C   UNL     1       4.823   4.007  16.374  0.00  0.00    +0.000 A 
ENDBRANCH  28  29
BRANCH  28  37
ATOM     37  O   UNL     1       4.048   3.179  19.901  0.00  0.00    +0.000 OA
ATOM     38  H   UNL     1       4.748   3.820  20.148  0.00  0.00    +0.000 HD
ENDBRANCH  28  37
ENDBRANCH  25  28
ENDBRANCH   4  24
TORSDOF 8
ENDMDL
MODEL 6
REMARK VINA RESULT:      -8.8      1.891      3.488
REMARK  Name = 
REMARK  9 active torsions:
REMARK  status: ('A' for Active; 'I' for Inactive)
REMARK    1  A    between atoms: C_1  and  C_2
REMARK    2  A    between atoms: C_4  and  N_5
REMARK    3  A    between atoms: C_6  and  C_8
REMARK    4  A    between atoms: C_8  and  O_9
REMARK    5  A    between atoms: C_8  and  C_10
REMARK    6  A    between atoms: C_20  and  C_21
REMARK    7  A    between atoms: C_24  and  N_25
REMARK    8  A    between atoms: C_26  and  C_27
REMARK    9  A    between atoms: N_29  and  C_30
REMARK                            x       y       z     vdW  Elec       q    Type
REMARK                         _______ _______ _______ _____ _____    ______ ____
ROOT
ATOM      1  C   UNL     1       0.582   8.864  21.879  0.00  0.00    +0.000 C 
ATOM      2  C   UNL     1       1.144   8.711  20.489  0.00  0.00    +0.000 A 
ATOM      3  C   UNL     1       1.881   7.528  20.257  0.00  0.00    +0.000 A 
ATOM      4  C   UNL     1       2.402   7.198  19.009  0.00  0.00    +0.000 A 
ATOM      5  C   UNL     1       2.237   8.111  17.972  0.00  0.00    +0.000 A 
ATOM      6  C   UNL     1       1.534   9.309  18.186  0.00  0.00    +0.000 A 
ATOM      7  C   UNL     1       0.961   9.645  19.437  0.00  0.00    +0.000 A 
ENDROOT
BRANCH   7   8
ATOM      8  C   UNL     1       0.211  10.922  19.579  0.00  0.00    +0.000 A 
ATOM      9  C   UNL     1      -1.163  10.970  19.816  0.00  0.00    +0.000 A 
ATOM     10  N   UNL     1      -1.909  12.103  19.926  0.00  0.00    +0.000 NA
ATOM     11  C   UNL     1      -1.270  13.285  19.837  0.00  0.00    +0.000 A 
ATOM     12  C   UNL     1       0.107  13.376  19.653  0.00  0.00    +0.000 A 
ATOM     13  C   UNL     1       0.820  12.178  19.474  0.00  0.00    +0.000 A 
BRANCH  12  14
ATOM     14  C   UNL     1       0.895  14.641  19.652  0.00  0.00    +0.000 C 
ATOM     15  O   UNL     1       0.623  15.531  20.457  0.00  0.00    +0.000 OA
ATOM     16  N   UNL     1       1.895  14.769  18.711  0.00  0.00    +0.000 N 
ATOM     17  H   UNL     1       1.948  14.067  17.973  0.00  0.00    +0.000 HD
BRANCH  16  18
ATOM     18  C   UNL     1       2.697  15.943  18.607  0.00  0.00    +0.000 C 
ATOM     19  C   UNL     1       3.385  16.293  17.315  0.00  0.00    +0.000 C 
ATOM     20  C   UNL     1       2.227  17.118  17.794  0.00  0.00    +0.000 C 
ENDBRANCH  16  18
ENDBRANCH  12  14
BRANCH  11  21
ATOM     21  N   UNL     1      -2.121  14.396  19.892  0.00  0.00    +0.000 N 
ATOM     22  H   UNL     1      -2.238  14.591  20.888  0.00  0.00    +0.000 HD
ATOM     23  H   UNL     1      -3.026  14.144  19.495  0.00  0.00    +0.000 HD
ENDBRANCH  11  21
ENDBRANCH   7   8
BRANCH   4  24
ATOM     24  N   UNL     1       3.079   5.984  18.754  0.00  0.00    +0.000 N 
ATOM     25  C   UNL     1       2.527   4.865  18.141  0.00  0.00    +0.000 C 
ATOM     26  O   UNL     1       1.391   4.786  17.669  0.00  0.00    +0.000 OA
ATOM     27  H   UNL     1       4.083   5.993  18.893  0.00  0.00    +0.000 HD
BRANCH  25  28
ATOM     28  C   UNL     1       3.486   3.668  17.994  0.00  0.00    +0.000 C 
BRANCH  28  29
ATOM     29  C   UNL     1       4.835   4.028  17.398  0.00  0.00    +0.000 A 
ATOM     30  C   UNL     1       5.031   4.006  16.007  0.00  0.00    +0.000 A 
ATOM     31  C   UNL     1       6.274   4.314  15.458  0.00  0.00    +0.000 A 
ATOM     32  F   UNL     1       6.437   4.259  14.129  0.00  0.00    +0.000 F 
ATOM     33  C   UNL     1       7.345   4.670  16.262  0.00  0.00    +0.000 A 
ATOM     34  C   UNL     1       7.152   4.731  17.633  0.00  0.00    +0.000 A 
ATOM     35  F   UNL     1       8.174   5.080  18.424  0.00  0.00    +0.000 F 
ATOM     36  C   UNL     1       5.920   4.423  18.203  0.00  0.00    +0.000 A 
ENDBRANCH  28  29
BRANCH  28  37
ATOM     37  O   UNL     1       3.674   3.180  19.331  0.00  0.00    +0.000 OA
ATOM     38  H   UNL     1       3.825   2.217  19.230  0.00  0.00    +0.000 HD
ENDBRANCH  28  37
ENDBRANCH  25  28
ENDBRANCH   4  24
TORSDOF 8
ENDMDL
MODEL 7
REMARK VINA RESULT:      -8.8      2.338      3.286
REMARK  Name = 
REMARK  9 active torsions:
REMARK  status: ('A' for Active; 'I' for Inactive)
REMARK    1  A    between atoms: C_1  and  C_2
REMARK    2  A    between atoms: C_4  and  N_5
REMARK    3  A    between atoms: C_6  and  C_8
REMARK    4  A    between atoms: C_8  and  O_9
REMARK    5  A    between atoms: C_8  and  C_10
REMARK    6  A    between atoms: C_20  and  C_21
REMARK    7  A    between atoms: C_24  and  N_25
REMARK    8  A    between atoms: C_26  and  C_27
REMARK    9  A    between atoms: N_29  and  C_30
REMARK                            x       y       z     vdW  Elec       q    Type
REMARK                         _______ _______ _______ _____ _____    ______ ____
ROOT
ATOM      1  C   UNL     1       2.192   9.572  17.686  0.00  0.00    +0.000 C 
ATOM      2  C   UNL     1       2.373   8.280  18.440  0.00  0.00    +0.000 A 
ATOM      3  C   UNL     1       3.145   7.296  17.783  0.00  0.00    +0.000 A 
ATOM      4  C   UNL     1       3.471   6.077  18.372  0.00  0.00    +0.000 A 
ATOM      5  C   UNL     1       2.955   5.806  19.635  0.00  0.00    +0.000 A 
ATOM      6  C   UNL     1       2.159   6.757  20.296  0.00  0.00    +0.000 A 
ATOM      7  C   UNL     1       1.851   8.019  19.732  0.00  0.00    +0.000 A 
ENDROOT
BRANCH   7   8
ATOM      8  C   UNL     1       1.021   8.983  20.504  0.00  0.00    +0.000 A 
ATOM      9  C   UNL     1       1.183   9.192  21.874  0.00  0.00    +0.000 A 
ATOM     10  N   UNL     1       0.438  10.035  22.640  0.00  0.00    +0.000 NA
ATOM     11  C   UNL     1      -0.517  10.762  22.027  0.00  0.00    +0.000 A 
ATOM     12  C   UNL     1      -0.745  10.684  20.656  0.00  0.00    +0.000 A 
ATOM     13  C   UNL     1       0.002   9.747  19.922  0.00  0.00    +0.000 A 
BRANCH  12  14
ATOM     14  C   UNL     1      -1.706  11.532  19.892  0.00  0.00    +0.000 C 
ATOM     15  O   UNL     1      -2.052  12.621  20.346  0.00  0.00    +0.000 OA
ATOM     16  N   UNL     1      -2.193  11.030  18.703  0.00  0.00    +0.000 N 
ATOM     17  H   UNL     1      -1.995  10.055  18.480  0.00  0.00    +0.000 HD
BRANCH  16  18
ATOM     18  C   UNL     1      -3.131  11.746  17.903  0.00  0.00    +0.000 C 
ATOM     19  C   UNL     1      -4.015  11.025  16.922  0.00  0.00    +0.000 C 
ATOM     20  C   UNL     1      -4.607  11.623  18.164  0.00  0.00    +0.000 C 
ENDBRANCH  16  18
ENDBRANCH  12  14
BRANCH  11  21
ATOM     21  N   UNL     1      -1.279  11.549  22.898  0.00  0.00    +0.000 N 
ATOM     22  H   UNL     1      -1.388  12.445  22.419  0.00  0.00    +0.000 HD
ATOM     23  H   UNL     1      -0.755  11.696  23.761  0.00  0.00    +0.000 HD
ENDBRANCH  11  21
ENDBRANCH   7   8
BRANCH   4  24
ATOM     24  N   UNL     1       4.300   5.118  17.748  0.00  0.00    +0.000 N 
ATOM     25  C   UNL     1       5.537   5.374  17.169  0.00  0.00    +0.000 C 
ATOM     26  O   UNL     1       6.126   6.457  17.171  0.00  0.00    +0.000 OA
ATOM     27  H   UNL     1       4.035   4.147  17.873  0.00  0.00    +0.000 HD
BRANCH  25  28
ATOM     28  C   UNL     1       6.229   4.145  16.548  0.00  0.00    +0.000 C 
BRANCH  28  29
ATOM     29  C   UNL     1       6.468   4.262  15.053  0.00  0.00    +0.000 A 
ATOM     30  C   UNL     1       5.648   3.575  14.142  0.00  0.00    +0.000 A 
ATOM     31  C   UNL     1       5.879   3.663  12.770  0.00  0.00    +0.000 A 
ATOM     32  F   UNL     1       5.095   2.976  11.928  0.00  0.00    +0.000 F 
ATOM     33  C   UNL     1       6.907   4.441  12.265  0.00  0.00    +0.000 A 
ATOM     34  C   UNL     1       7.699   5.152  13.152  0.00  0.00    +0.000 A 
ATOM     35  F   UNL     1       8.692   5.915  12.680  0.00  0.00    +0.000 F 
ATOM     36  C   UNL     1       7.488   5.077  14.526  0.00  0.00    +0.000 A 
ENDBRANCH  28  29
BRANCH  28  37
ATOM     37  O   UNL     1       7.492   4.054  17.223  0.00  0.00    +0.000 OA
ATOM     38  H   UNL     1       8.060   4.725  16.790  0.00  0.00    +0.000 HD
ENDBRANCH  28  37
ENDBRANCH  25  28
ENDBRANCH   4  24
TORSDOF 8
ENDMDL
MODEL 8
REMARK VINA RESULT:      -8.7      4.507     11.065
REMARK  Name = 
REMARK  9 active torsions:
REMARK  status: ('A' for Active; 'I' for Inactive)
REMARK    1  A    between atoms: C_1  and  C_2
REMARK    2  A    between atoms: C_4  and  N_5
REMARK    3  A    between atoms: C_6  and  C_8
REMARK    4  A    between atoms: C_8  and  O_9
REMARK    5  A    between atoms: C_8  and  C_10
REMARK    6  A    between atoms: C_20  and  C_21
REMARK    7  A    between atoms: C_24  and  N_25
REMARK    8  A    between atoms: C_26  and  C_27
REMARK    9  A    between atoms: N_29  and  C_30
REMARK                            x       y       z     vdW  Elec       q    Type
REMARK                         _______ _______ _______ _____ _____    ______ ____
ROOT
ATOM      1  C   UNL     1       2.730   7.944  17.363  0.00  0.00    +0.000 C 
ATOM      2  C   UNL     1       2.140   8.199  18.726  0.00  0.00    +0.000 A 
ATOM      3  C   UNL     1       1.494   9.445  18.886  0.00  0.00    +0.000 A 
ATOM      4  C   UNL     1       0.831   9.804  20.057  0.00  0.00    +0.000 A 
ATOM      5  C   UNL     1       0.871   8.916  21.127  0.00  0.00    +0.000 A 
ATOM      6  C   UNL     1       1.534   7.683  21.002  0.00  0.00    +0.000 A 
ATOM      7  C   UNL     1       2.177   7.280  19.806  0.00  0.00    +0.000 A 
ENDROOT
BRANCH   7   8
ATOM      8  C   UNL     1       2.839   5.949  19.744  0.00  0.00    +0.000 A 
ATOM      9  C   UNL     1       2.349   4.829  20.416  0.00  0.00    +0.000 A 
ATOM     10  N   UNL     1       2.923   3.595  20.423  0.00  0.00    +0.000 NA
ATOM     11  C   UNL     1       4.040   3.419  19.691  0.00  0.00    +0.000 A 
ATOM     12  C   UNL     1       4.602   4.442  18.932  0.00  0.00    +0.000 A 
ATOM     13  C   UNL     1       4.012   5.715  19.017  0.00  0.00    +0.000 A 
BRANCH  12  14
ATOM     14  C   UNL     1       5.769   4.295  18.017  0.00  0.00    +0.000 C 
ATOM     15  O   UNL     1       6.908   4.481  18.444  0.00  0.00    +0.000 OA
ATOM     16  N   UNL     1       5.510   3.981  16.699  0.00  0.00    +0.000 N 
ATOM     17  H   UNL     1       4.542   4.012  16.383  0.00  0.00    +0.000 HD
BRANCH  16  18
ATOM     18  C   UNL     1       6.549   3.836  15.733  0.00  0.00    +0.000 C 
ATOM     19  C   UNL     1       6.244   3.892  14.260  0.00  0.00    +0.000 C 
ATOM     20  C   UNL     1       6.997   5.014  14.913  0.00  0.00    +0.000 C 
ENDBRANCH  16  18
ENDBRANCH  12  14
BRANCH  11  21
ATOM     21  N   UNL     1       4.600   2.141  19.809  0.00  0.00    +0.000 N 
ATOM     22  H   UNL     1       4.996   1.940  18.889  0.00  0.00    +0.000 HD
ATOM     23  H   UNL     1       3.860   1.468  20.006  0.00  0.00    +0.000 HD
ENDBRANCH  11  21
ENDBRANCH   7   8
BRANCH   4  24
ATOM     24  N   UNL     1       0.124  11.020  20.199  0.00  0.00    +0.000 N 
ATOM     25  C   UNL     1      -1.075  11.335  19.571  0.00  0.00    +0.000 C 
ATOM     26  O   UNL     1      -1.734  10.580  18.852  0.00  0.00    +0.000 OA
ATOM     27  H   UNL     1       0.443  11.641  20.934  0.00  0.00    +0.000 HD
BRANCH  25  28
ATOM     28  C   UNL     1      -1.628  12.736  19.894  0.00  0.00    +0.000 C 
BRANCH  28  29
ATOM     29  C   UNL     1      -2.834  12.724  20.815  0.00  0.00    +0.000 A 
ATOM     30  C   UNL     1      -2.670  12.619  22.207  0.00  0.00    +0.000 A 
ATOM     31  C   UNL     1      -3.777  12.585  23.054  0.00  0.00    +0.000 A 
ATOM     32  F   UNL     1      -3.589  12.459  24.374  0.00  0.00    +0.000 F 
ATOM     33  C   UNL     1      -5.066  12.672  22.553  0.00  0.00    +0.000 A 
ATOM     34  C   UNL     1      -5.237  12.813  21.185  0.00  0.00    +0.000 A 
ATOM     35  F   UNL     1      -6.476  12.907  20.686  0.00  0.00    +0.000 F 
ATOM     36  C   UNL     1      -4.147  12.846  20.321  0.00  0.00    +0.000 A 
ENDBRANCH  28  29
BRANCH  28  37
ATOM     37  O   UNL     1      -0.544  13.419  20.540  0.00  0.00    +0.000 OA
ATOM     38  H   UNL     1       0.117  13.571  19.832  0.00  0.00    +0.000 HD
ENDBRANCH  28  37
ENDBRANCH  25  28
ENDBRANCH   4  24
TORSDOF 8
ENDMDL
MODEL 9
REMARK VINA RESULT:      -8.7      4.490     10.973
REMARK  Name = 
REMARK  9 active torsions:
REMARK  status: ('A' for Active; 'I' for Inactive)
REMARK    1  A    between atoms: C_1  and  C_2
REMARK    2  A    between atoms: C_4  and  N_5
REMARK    3  A    between atoms: C_6  and  C_8
REMARK    4  A    between atoms: C_8  and  O_9
REMARK    5  A    between atoms: C_8  and  C_10
REMARK    6  A    between atoms: C_20  and  C_21
REMARK    7  A    between atoms: C_24  and  N_25
REMARK    8  A    between atoms: C_26  and  C_27
REMARK    9  A    between atoms: N_29  and  C_30
REMARK                            x       y       z     vdW  Elec       q    Type
REMARK                         _______ _______ _______ _____ _____    ______ ____
ROOT
ATOM      1  C   UNL     1       2.733   7.994  17.352  0.00  0.00    +0.000 C 
ATOM      2  C   UNL     1       2.137   8.237  18.715  0.00  0.00    +0.000 A 
ATOM      3  C   UNL     1       1.478   9.477  18.877  0.00  0.00    +0.000 A 
ATOM      4  C   UNL     1       0.809   9.826  20.048  0.00  0.00    +0.000 A 
ATOM      5  C   UNL     1       0.854   8.933  21.114  0.00  0.00    +0.000 A 
ATOM      6  C   UNL     1       1.528   7.707  20.986  0.00  0.00    +0.000 A 
ATOM      7  C   UNL     1       2.179   7.315  19.791  0.00  0.00    +0.000 A 
ENDROOT
BRANCH   7   8
ATOM      8  C   UNL     1       2.852   5.990  19.726  0.00  0.00    +0.000 A 
ATOM      9  C   UNL     1       2.383   4.869  20.410  0.00  0.00    +0.000 A 
ATOM     10  N   UNL     1       2.969   3.640  20.414  0.00  0.00    +0.000 NA
ATOM     11  C   UNL     1       4.078   3.472  19.667  0.00  0.00    +0.000 A 
ATOM     12  C   UNL     1       4.619   4.497  18.896  0.00  0.00    +0.000 A 
ATOM     13  C   UNL     1       4.018   5.764  18.983  0.00  0.00    +0.000 A 
BRANCH  12  14
ATOM     14  C   UNL     1       5.775   4.357  17.965  0.00  0.00    +0.000 C 
ATOM     15  O   UNL     1       6.915   4.585  18.368  0.00  0.00    +0.000 OA
ATOM     16  N   UNL     1       5.503   4.000  16.661  0.00  0.00    +0.000 N 
ATOM     17  H   UNL     1       4.529   3.996  16.360  0.00  0.00    +0.000 HD
BRANCH  16  18
ATOM     18  C   UNL     1       6.530   3.857  15.681  0.00  0.00    +0.000 C 
ATOM     19  C   UNL     1       6.200   3.874  14.213  0.00  0.00    +0.000 C 
ATOM     20  C   UNL     1       6.938   5.027  14.829  0.00  0.00    +0.000 C 
ENDBRANCH  16  18
ENDBRANCH  12  14
BRANCH  11  21
ATOM     21  N   UNL     1       4.653   2.200  19.783  0.00  0.00    +0.000 N 
ATOM     22  H   UNL     1       4.355   1.858  20.699  0.00  0.00    +0.000 HD
ATOM     23  H   UNL     1       5.668   2.290  19.777  0.00  0.00    +0.000 HD
ENDBRANCH  11  21
ENDBRANCH   7   8
BRANCH   4  24
ATOM     24  N   UNL     1       0.091  11.034  20.192  0.00  0.00    +0.000 N 
ATOM     25  C   UNL     1      -1.101  11.347  19.549  0.00  0.00    +0.000 C 
ATOM     26  O   UNL     1      -1.743  10.595  18.812  0.00  0.00    +0.000 OA
ATOM     27  H   UNL     1       0.394  11.650  20.939  0.00  0.00    +0.000 HD
BRANCH  25  28
ATOM     28  C   UNL     1      -1.670  12.740  19.879  0.00  0.00    +0.000 C 
BRANCH  28  29
ATOM     29  C   UNL     1      -2.844  12.714  20.842  0.00  0.00    +0.000 A 
ATOM     30  C   UNL     1      -4.157  12.881  20.372  0.00  0.00    +0.000 A 
ATOM     31  C   UNL     1      -5.235  12.880  21.256  0.00  0.00    +0.000 A 
ATOM     32  F   UNL     1      -6.473  13.067  20.781  0.00  0.00    +0.000 F 
ATOM     33  C   UNL     1      -5.046  12.697  22.617  0.00  0.00    +0.000 A 
ATOM     34  C   UNL     1      -3.758  12.495  23.086  0.00  0.00    +0.000 A 
ATOM     35  F   UNL     1      -3.559  12.309  24.396  0.00  0.00    +0.000 F 
ATOM     36  C   UNL     1      -2.667  12.495  22.222  0.00  0.00    +0.000 A 
ENDBRANCH  28  29
BRANCH  28  37
ATOM     37  O   UNL     1      -0.578  13.449  20.483  0.00  0.00    +0.000 OA
ATOM     38  H   UNL     1      -0.275  14.079  19.795  0.00  0.00    +0.000 HD
ENDBRANCH  28  37
ENDBRANCH  25  28
ENDBRANCH   4  24
TORSDOF 8
ENDMDL
