MODEL 1
REMARK VINA RESULT:      -6.9      0.000      0.000
REMARK  Name = 
REMARK  6 active torsions:
REMARK  status: ('A' for Active; 'I' for Inactive)
REMARK    1  A    between atoms: C_1  and  C_2
REMARK    2  A    between atoms: C_2  and  C_3
REMARK    3  A    between atoms: C_3  and  O_4
REMARK    4  A    between atoms: O_4  and  C_5
REMARK    5  A    between atoms: C_11  and  C_12
REMARK    6  A    between atoms: C_15  and  O_16
REMARK                            x       y       z     vdW  Elec       q    Type
REMARK                         _______ _______ _______ _____ _____    ______ ____
ROOT
ATOM      1  C   UNL     1       3.677   4.952  18.906  0.00  0.00    +0.000 A 
ATOM      2  C   UNL     1       3.868   5.667  17.720  0.00  0.00    +0.000 A 
ATOM      3  C   UNL     1       3.303   6.934  17.563  0.00  0.00    +0.000 A 
ATOM      4  C   UNL     1       2.542   7.490  18.593  0.00  0.00    +0.000 A 
ATOM      5  C   UNL     1       1.914   8.813  18.430  0.00  0.00    +0.000 A 
ATOM      6  O   UNL     1       2.058   9.456  17.394  0.00  0.00    +0.000 OA
ATOM      7  C   UNL     1       1.108   9.308  19.574  0.00  0.00    +0.000 A 
ATOM      8  C   UNL     1       1.022   8.519  20.657  0.00  0.00    +0.000 A 
ATOM      9  O   UNL     1       1.610   7.286  20.823  0.00  0.00    +0.000 OA
ATOM     10  C   UNL     1       2.354   6.789  19.780  0.00  0.00    +0.000 A 
ATOM     11  C   UNL     1       2.927   5.525  19.940  0.00  0.00    +0.000 A 
ENDROOT
BRANCH   7  12
ATOM     12  C   UNL     1       0.430  10.609  19.541  0.00  0.00    +0.000 A 
ATOM     13  C   UNL     1      -0.902  10.700  19.113  0.00  0.00    +0.000 A 
ATOM     14  C   UNL     1      -1.541  11.942  19.038  0.00  0.00    +0.000 A 
ATOM     15  C   UNL     1      -0.842  13.092  19.392  0.00  0.00    +0.000 A 
ATOM     16  C   UNL     1       0.473  13.018  19.835  0.00  0.00    +0.000 A 
ATOM     17  C   UNL     1       1.112  11.777  19.910  0.00  0.00    +0.000 A 
BRANCH  15  18
ATOM     18  O   UNL     1      -1.418  14.326  19.310  0.00  0.00    +0.000 OA
ATOM     19  H   UNL     1      -2.011  14.442  20.070  0.00  0.00    +0.000 HD
ENDBRANCH  15  18
ENDBRANCH   7  12
BRANCH   1  20
ATOM     20  O   UNL     1       4.163   3.698  19.160  0.00  0.00    +0.000 OA
BRANCH  20  21
ATOM     21  C   UNL     1       3.244   2.761  19.732  0.00  0.00    +0.000 C 
BRANCH  21  23
ATOM     22  C   UNL     1       0.957   2.424  18.735  0.00  0.00    +0.000 C 
ATOM     23  C   UNL     1       2.441   2.129  18.602  0.00  0.00    +0.000 C 
ENDBRANCH  21  23
ENDBRANCH  20  21
ENDBRANCH   1  20
TORSDOF 5
ENDMDL
MODEL 2
REMARK VINA RESULT:      -6.9      0.114      1.032
REMARK  Name = 
REMARK  6 active torsions:
REMARK  status: ('A' for Active; 'I' for Inactive)
REMARK    1  A    between atoms: C_1  and  C_2
REMARK    2  A    between atoms: C_2  and  C_3
REMARK    3  A    between atoms: C_3  and  O_4
REMARK    4  A    between atoms: O_4  and  C_5
REMARK    5  A    between atoms: C_11  and  C_12
REMARK    6  A    between atoms: C_15  and  O_16
REMARK                            x       y       z     vdW  Elec       q    Type
REMARK                         _______ _______ _______ _____ _____    ______ ____
ROOT
ATOM      1  C   UNL     1       3.644   4.889  18.999  0.00  0.00    +0.000 A 
ATOM      2  C   UNL     1       3.866   5.578  17.804  0.00  0.00    +0.000 A 
ATOM      3  C   UNL     1       3.320   6.849  17.612  0.00  0.00    +0.000 A 
ATOM      4  C   UNL     1       2.548   7.434  18.618  0.00  0.00    +0.000 A 
ATOM      5  C   UNL     1       1.941   8.762  18.418  0.00  0.00    +0.000 A 
ATOM      6  O   UNL     1       2.112   9.382  17.372  0.00  0.00    +0.000 OA
ATOM      7  C   UNL     1       1.121   9.290  19.537  0.00  0.00    +0.000 A 
ATOM      8  C   UNL     1       1.005   8.523  20.633  0.00  0.00    +0.000 A 
ATOM      9  O   UNL     1       1.574   7.286  20.833  0.00  0.00    +0.000 OA
ATOM     10  C   UNL     1       2.330   6.759  19.814  0.00  0.00    +0.000 A 
ATOM     11  C   UNL     1       2.883   5.491  20.009  0.00  0.00    +0.000 A 
ENDROOT
BRANCH   7  12
ATOM     12  C   UNL     1       0.461  10.597  19.467  0.00  0.00    +0.000 A 
ATOM     13  C   UNL     1       1.084  11.732  20.006  0.00  0.00    +0.000 A 
ATOM     14  C   UNL     1       0.441  12.974  19.982  0.00  0.00    +0.000 A 
ATOM     15  C   UNL     1      -0.827  13.077  19.417  0.00  0.00    +0.000 A 
ATOM     16  C   UNL     1      -1.451  11.965  18.864  0.00  0.00    +0.000 A 
ATOM     17  C   UNL     1      -0.809  10.724  18.888  0.00  0.00    +0.000 A 
BRANCH  15  18
ATOM     18  O   UNL     1      -1.501  14.263  19.395  0.00  0.00    +0.000 OA
ATOM     19  H   UNL     1      -1.123  14.821  18.696  0.00  0.00    +0.000 HD
ENDBRANCH  15  18
ENDBRANCH   7  12
BRANCH   1  20
ATOM     20  O   UNL     1       4.108   3.634  19.286  0.00  0.00    +0.000 OA
BRANCH  20  21
ATOM     21  C   UNL     1       3.154   2.703  19.808  0.00  0.00    +0.000 C 
BRANCH  21  23
ATOM     22  C   UNL     1       0.874   2.443  18.773  0.00  0.00    +0.000 C 
ATOM     23  C   UNL     1       2.355   2.134  18.642  0.00  0.00    +0.000 C 
ENDBRANCH  21  23
ENDBRANCH  20  21
ENDBRANCH   1  20
TORSDOF 5
ENDMDL
MODEL 3
REMARK VINA RESULT:      -6.8      2.143      7.835
REMARK  Name = 
REMARK  6 active torsions:
REMARK  status: ('A' for Active; 'I' for Inactive)
REMARK    1  A    between atoms: C_1  and  C_2
REMARK    2  A    between atoms: C_2  and  C_3
REMARK    3  A    between atoms: C_3  and  O_4
REMARK    4  A    between atoms: O_4  and  C_5
REMARK    5  A    between atoms: C_11  and  C_12
REMARK    6  A    between atoms: C_15  and  O_16
REMARK                            x       y       z     vdW  Elec       q    Type
REMARK                         _______ _______ _______ _____ _____    ______ ____
ROOT
ATOM      1  C   UNL     1      -0.282  10.350  21.139  0.00  0.00    +0.000 A 
ATOM      2  C   UNL     1      -0.077   9.234  21.954  0.00  0.00    +0.000 A 
ATOM      3  C   UNL     1       0.733   8.183  21.519  0.00  0.00    +0.000 A 
ATOM      4  C   UNL     1       1.341   8.247  20.263  0.00  0.00    +0.000 A 
ATOM      5  C   UNL     1       2.175   7.133  19.778  0.00  0.00    +0.000 A 
ATOM      6  O   UNL     1       2.360   6.136  20.471  0.00  0.00    +0.000 OA
ATOM      7  C   UNL     1       2.761   7.287  18.423  0.00  0.00    +0.000 A 
ATOM      8  C   UNL     1       2.490   8.421  17.758  0.00  0.00    +0.000 A 
ATOM      9  O   UNL     1       1.720   9.470  18.205  0.00  0.00    +0.000 OA
ATOM     10  C   UNL     1       1.151   9.359  19.450  0.00  0.00    +0.000 A 
ATOM     11  C   UNL     1       0.346  10.414  19.889  0.00  0.00    +0.000 A 
ENDROOT
BRANCH   7  12
ATOM     12  C   UNL     1       3.608   6.252  17.822  0.00  0.00    +0.000 A 
ATOM     13  C   UNL     1       4.901   6.567  17.379  0.00  0.00    +0.000 A 
ATOM     14  C   UNL     1       5.698   5.596  16.765  0.00  0.00    +0.000 A 
ATOM     15  C   UNL     1       5.198   4.308  16.594  0.00  0.00    +0.000 A 
ATOM     16  C   UNL     1       3.925   3.975  17.042  0.00  0.00    +0.000 A 
ATOM     17  C   UNL     1       3.128   4.946  17.655  0.00  0.00    +0.000 A 
BRANCH  15  18
ATOM     18  O   UNL     1       5.932   3.337  15.978  0.00  0.00    +0.000 OA
ATOM     19  H   UNL     1       6.333   3.713  15.178  0.00  0.00    +0.000 HD
ENDBRANCH  15  18
ENDBRANCH   7  12
BRANCH   1  20
ATOM     20  O   UNL     1      -1.071  11.424  21.452  0.00  0.00    +0.000 OA
BRANCH  20  21
ATOM     21  C   UNL     1      -1.062  11.845  22.820  0.00  0.00    +0.000 C 
BRANCH  21  23
ATOM     22  C   UNL     1      -3.375  12.713  22.335  0.00  0.00    +0.000 C 
ATOM     23  C   UNL     1      -2.504  11.932  23.304  0.00  0.00    +0.000 C 
ENDBRANCH  21  23
ENDBRANCH  20  21
ENDBRANCH   1  20
TORSDOF 5
ENDMDL
MODEL 4
REMARK VINA RESULT:      -6.8      2.385      3.808
REMARK  Name = 
REMARK  6 active torsions:
REMARK  status: ('A' for Active; 'I' for Inactive)
REMARK    1  A    between atoms: C_1  and  C_2
REMARK    2  A    between atoms: C_2  and  C_3
REMARK    3  A    between atoms: C_3  and  O_4
REMARK    4  A    between atoms: O_4  and  C_5
REMARK    5  A    between atoms: C_11  and  C_12
REMARK    6  A    between atoms: C_15  and  O_16
REMARK                            x       y       z     vdW  Elec       q    Type
REMARK                         _______ _______ _______ _____ _____    ______ ____
ROOT
ATOM      1  C   UNL     1       4.752   4.316  17.123  0.00  0.00    +0.000 A 
ATOM      2  C   UNL     1       4.227   3.659  18.240  0.00  0.00    +0.000 A 
ATOM      3  C   UNL     1       3.393   4.341  19.130  0.00  0.00    +0.000 A 
ATOM      4  C   UNL     1       3.083   5.684  18.903  0.00  0.00    +0.000 A 
ATOM      5  C   UNL     1       2.229   6.424  19.848  0.00  0.00    +0.000 A 
ATOM      6  O   UNL     1       1.765   5.873  20.843  0.00  0.00    +0.000 OA
ATOM      7  C   UNL     1       1.974   7.851  19.531  0.00  0.00    +0.000 A 
ATOM      8  C   UNL     1       2.533   8.346  18.415  0.00  0.00    +0.000 A 
ATOM      9  O   UNL     1       3.325   7.661  17.522  0.00  0.00    +0.000 OA
ATOM     10  C   UNL     1       3.594   6.341  17.788  0.00  0.00    +0.000 A 
ATOM     11  C   UNL     1       4.421   5.657  16.895  0.00  0.00    +0.000 A 
ENDROOT
BRANCH   7  12
ATOM     12  C   UNL     1       1.142   8.701  20.389  0.00  0.00    +0.000 A 
ATOM     13  C   UNL     1       0.288   9.658  19.822  0.00  0.00    +0.000 A 
ATOM     14  C   UNL     1      -0.475  10.501  20.635  0.00  0.00    +0.000 A 
ATOM     15  C   UNL     1      -0.382  10.384  22.019  0.00  0.00    +0.000 A 
ATOM     16  C   UNL     1       0.447   9.429  22.598  0.00  0.00    +0.000 A 
ATOM     17  C   UNL     1       1.210   8.587  21.785  0.00  0.00    +0.000 A 
BRANCH  15  18
ATOM     18  O   UNL     1      -1.089  11.202  22.850  0.00  0.00    +0.000 OA
ATOM     19  H   UNL     1      -1.317  10.707  23.653  0.00  0.00    +0.000 HD
ENDBRANCH  15  18
ENDBRANCH   7  12
BRANCH   1  20
ATOM     20  O   UNL     1       5.595   3.755  16.201  0.00  0.00    +0.000 OA
BRANCH  20  21
ATOM     21  C   UNL     1       6.853   4.408  16.007  0.00  0.00    +0.000 C 
BRANCH  21  23
ATOM     22  C   UNL     1       6.041   3.905  13.678  0.00  0.00    +0.000 C 
ATOM     23  C   UNL     1       7.011   4.713  14.523  0.00  0.00    +0.000 C 
ENDBRANCH  21  23
ENDBRANCH  20  21
ENDBRANCH   1  20
TORSDOF 5
ENDMDL
MODEL 5
REMARK VINA RESULT:      -6.8      2.046      7.815
REMARK  Name = 
REMARK  6 active torsions:
REMARK  status: ('A' for Active; 'I' for Inactive)
REMARK    1  A    between atoms: C_1  and  C_2
REMARK    2  A    between atoms: C_2  and  C_3
REMARK    3  A    between atoms: C_3  and  O_4
REMARK    4  A    between atoms: O_4  and  C_5
REMARK    5  A    between atoms: C_11  and  C_12
REMARK    6  A    between atoms: C_15  and  O_16
REMARK                            x       y       z     vdW  Elec       q    Type
REMARK                         _______ _______ _______ _____ _____    ______ ____
ROOT
ATOM      1  C   UNL     1      -0.371  10.748  21.119  0.00  0.00    +0.000 A 
ATOM      2  C   UNL     1      -0.119   9.685  21.990  0.00  0.00    +0.000 A 
ATOM      3  C   UNL     1       0.665   8.606  21.575  0.00  0.00    +0.000 A 
ATOM      4  C   UNL     1       1.199   8.589  20.285  0.00  0.00    +0.000 A 
ATOM      5  C   UNL     1       2.004   7.444  19.823  0.00  0.00    +0.000 A 
ATOM      6  O   UNL     1       2.230   6.493  20.565  0.00  0.00    +0.000 OA
ATOM      7  C   UNL     1       2.509   7.510  18.429  0.00  0.00    +0.000 A 
ATOM      8  C   UNL     1       2.199   8.601  17.710  0.00  0.00    +0.000 A 
ATOM      9  O   UNL     1       1.456   9.679  18.134  0.00  0.00    +0.000 OA
ATOM     10  C   UNL     1       0.961   9.648  19.415  0.00  0.00    +0.000 A 
ATOM     11  C   UNL     1       0.182  10.731  19.833  0.00  0.00    +0.000 A 
ENDROOT
BRANCH   7  12
ATOM     12  C   UNL     1       3.321   6.437  17.846  0.00  0.00    +0.000 A 
ATOM     13  C   UNL     1       2.848   5.117  17.839  0.00  0.00    +0.000 A 
ATOM     14  C   UNL     1       3.635   4.083  17.323  0.00  0.00    +0.000 A 
ATOM     15  C   UNL     1       4.898   4.372  16.815  0.00  0.00    +0.000 A 
ATOM     16  C   UNL     1       5.375   5.678  16.799  0.00  0.00    +0.000 A 
ATOM     17  C   UNL     1       4.589   6.712  17.314  0.00  0.00    +0.000 A 
BRANCH  15  18
ATOM     18  O   UNL     1       5.709   3.391  16.326  0.00  0.00    +0.000 OA
ATOM     19  H   UNL     1       5.153   2.674  15.978  0.00  0.00    +0.000 HD
ENDBRANCH  15  18
ENDBRANCH   7  12
BRANCH   1  20
ATOM     20  O   UNL     1      -1.142  11.842  21.409  0.00  0.00    +0.000 OA
BRANCH  20  21
ATOM     21  C   UNL     1      -0.690  12.674  22.482  0.00  0.00    +0.000 C 
BRANCH  21  23
ATOM     22  C   UNL     1      -2.953  12.143  23.448  0.00  0.00    +0.000 C 
ATOM     23  C   UNL     1      -1.911  13.222  23.210  0.00  0.00    +0.000 C 
ENDBRANCH  21  23
ENDBRANCH  20  21
ENDBRANCH   1  20
TORSDOF 5
ENDMDL
MODEL 6
REMARK VINA RESULT:      -6.7      1.967      7.651
REMARK  Name = 
REMARK  6 active torsions:
REMARK  status: ('A' for Active; 'I' for Inactive)
REMARK    1  A    between atoms: C_1  and  C_2
REMARK    2  A    between atoms: C_2  and  C_3
REMARK    3  A    between atoms: C_3  and  O_4
REMARK    4  A    between atoms: O_4  and  C_5
REMARK    5  A    between atoms: C_11  and  C_12
REMARK    6  A    between atoms: C_15  and  O_16
REMARK                            x       y       z     vdW  Elec       q    Type
REMARK                         _______ _______ _______ _____ _____    ______ ____
ROOT
ATOM      1  C   UNL     1      -0.213  10.868  20.850  0.00  0.00    +0.000 A 
ATOM      2  C   UNL     1       0.096  11.295  19.556  0.00  0.00    +0.000 A 
ATOM      3  C   UNL     1       0.847  10.480  18.706  0.00  0.00    +0.000 A 
ATOM      4  C   UNL     1       1.292   9.233  19.152  0.00  0.00    +0.000 A 
ATOM      5  C   UNL     1       2.109   8.374  18.278  0.00  0.00    +0.000 A 
ATOM      6  O   UNL     1       2.404   8.731  17.141  0.00  0.00    +0.000 OA
ATOM      7  C   UNL     1       2.551   7.077  18.849  0.00  0.00    +0.000 A 
ATOM      8  C   UNL     1       2.167   6.792  20.104  0.00  0.00    +0.000 A 
ATOM      9  O   UNL     1       1.397   7.583  20.926  0.00  0.00    +0.000 OA
ATOM     10  C   UNL     1       0.980   8.797  20.435  0.00  0.00    +0.000 A 
ATOM     11  C   UNL     1       0.222   9.610  21.282  0.00  0.00    +0.000 A 
ENDROOT
BRANCH   7  12
ATOM     12  C   UNL     1       3.370   6.130  18.085  0.00  0.00    +0.000 A 
ATOM     13  C   UNL     1       2.872   4.857  17.774  0.00  0.00    +0.000 A 
ATOM     14  C   UNL     1       3.664   3.933  17.085  0.00  0.00    +0.000 A 
ATOM     15  C   UNL     1       4.956   4.288  16.707  0.00  0.00    +0.000 A 
ATOM     16  C   UNL     1       5.458   5.552  16.992  0.00  0.00    +0.000 A 
ATOM     17  C   UNL     1       4.667   6.474  17.682  0.00  0.00    +0.000 A 
BRANCH  15  18
ATOM     18  O   UNL     1       5.771   3.410  16.055  0.00  0.00    +0.000 OA
ATOM     19  H   UNL     1       6.398   3.914  15.512  0.00  0.00    +0.000 HD
ENDBRANCH  15  18
ENDBRANCH   7  12
BRANCH   1  20
ATOM     20  O   UNL     1      -0.920  11.592  21.773  0.00  0.00    +0.000 OA
BRANCH  20  21
ATOM     21  C   UNL     1      -1.705  12.677  21.269  0.00  0.00    +0.000 C 
BRANCH  21  23
ATOM     22  C   UNL     1      -2.900  12.118  23.413  0.00  0.00    +0.000 C 
ATOM     23  C   UNL     1      -3.033  12.694  22.014  0.00  0.00    +0.000 C 
ENDBRANCH  21  23
ENDBRANCH  20  21
ENDBRANCH   1  20
TORSDOF 5
ENDMDL
MODEL 7
REMARK VINA RESULT:      -6.6      2.631      4.101
REMARK  Name = 
REMARK  6 active torsions:
REMARK  status: ('A' for Active; 'I' for Inactive)
REMARK    1  A    between atoms: C_1  and  C_2
REMARK    2  A    between atoms: C_2  and  C_3
REMARK    3  A    between atoms: C_3  and  O_4
REMARK    4  A    between atoms: O_4  and  C_5
REMARK    5  A    between atoms: C_11  and  C_12
REMARK    6  A    between atoms: C_15  and  O_16
REMARK                            x       y       z     vdW  Elec       q    Type
REMARK                         _______ _______ _______ _____ _____    ______ ____
ROOT
ATOM      1  C   UNL     1       4.936   4.080  16.699  0.00  0.00    +0.000 A 
ATOM      2  C   UNL     1       4.285   3.403  17.734  0.00  0.00    +0.000 A 
ATOM      3  C   UNL     1       3.442   4.095  18.606  0.00  0.00    +0.000 A 
ATOM      4  C   UNL     1       3.249   5.469  18.445  0.00  0.00    +0.000 A 
ATOM      5  C   UNL     1       2.386   6.217  19.376  0.00  0.00    +0.000 A 
ATOM      6  O   UNL     1       1.812   5.648  20.300  0.00  0.00    +0.000 OA
ATOM      7  C   UNL     1       2.261   7.676  19.134  0.00  0.00    +0.000 A 
ATOM      8  C   UNL     1       2.935   8.190  18.092  0.00  0.00    +0.000 A 
ATOM      9  O   UNL     1       3.736   7.499  17.212  0.00  0.00    +0.000 OA
ATOM     10  C   UNL     1       3.886   6.148  17.412  0.00  0.00    +0.000 A 
ATOM     11  C   UNL     1       4.723   5.454  16.534  0.00  0.00    +0.000 A 
ENDROOT
BRANCH   7  12
ATOM     12  C   UNL     1       1.434   8.537  19.986  0.00  0.00    +0.000 A 
ATOM     13  C   UNL     1       1.405   8.338  21.374  0.00  0.00    +0.000 A 
ATOM     14  C   UNL     1       0.586   9.127  22.188  0.00  0.00    +0.000 A 
ATOM     15  C   UNL     1      -0.204  10.116  21.609  0.00  0.00    +0.000 A 
ATOM     16  C   UNL     1      -0.174  10.337  20.237  0.00  0.00    +0.000 A 
ATOM     17  C   UNL     1       0.644   9.549  19.424  0.00  0.00    +0.000 A 
BRANCH  15  18
ATOM     18  O   UNL     1      -1.037  10.891  22.362  0.00  0.00    +0.000 OA
ATOM     19  H   UNL     1      -1.909  10.913  21.937  0.00  0.00    +0.000 HD
ENDBRANCH  15  18
ENDBRANCH   7  12
BRANCH   1  20
ATOM     20  O   UNL     1       5.799   3.510  15.802  0.00  0.00    +0.000 OA
BRANCH  20  21
ATOM     21  C   UNL     1       6.211   4.330  14.703  0.00  0.00    +0.000 C 
BRANCH  21  23
ATOM     22  C   UNL     1       6.635   3.675  12.310  0.00  0.00    +0.000 C 
ATOM     23  C   UNL     1       5.608   3.759  13.427  0.00  0.00    +0.000 C 
ENDBRANCH  21  23
ENDBRANCH  20  21
ENDBRANCH   1  20
TORSDOF 5
ENDMDL
MODEL 8
REMARK VINA RESULT:      -6.6      1.750      7.741
REMARK  Name = 
REMARK  6 active torsions:
REMARK  status: ('A' for Active; 'I' for Inactive)
REMARK    1  A    between atoms: C_1  and  C_2
REMARK    2  A    between atoms: C_2  and  C_3
REMARK    3  A    between atoms: C_3  and  O_4
REMARK    4  A    between atoms: O_4  and  C_5
REMARK    5  A    between atoms: C_11  and  C_12
REMARK    6  A    between atoms: C_15  and  O_16
REMARK                            x       y       z     vdW  Elec       q    Type
REMARK                         _______ _______ _______ _____ _____    ______ ____
ROOT
ATOM      1  C   UNL     1      -0.325  10.803  20.885  0.00  0.00    +0.000 A 
ATOM      2  C   UNL     1      -0.164   9.744  21.782  0.00  0.00    +0.000 A 
ATOM      3  C   UNL     1       0.609   8.635  21.431  0.00  0.00    +0.000 A 
ATOM      4  C   UNL     1       1.223   8.584  20.177  0.00  0.00    +0.000 A 
ATOM      5  C   UNL     1       2.017   7.408  19.781  0.00  0.00    +0.000 A 
ATOM      6  O   UNL     1       2.165   6.459  20.547  0.00  0.00    +0.000 OA
ATOM      7  C   UNL     1       2.613   7.439  18.422  0.00  0.00    +0.000 A 
ATOM      8  C   UNL     1       2.385   8.530  17.672  0.00  0.00    +0.000 A 
ATOM      9  O   UNL     1       1.652   9.636  18.036  0.00  0.00    +0.000 OA
ATOM     10  C   UNL     1       1.076   9.638  19.282  0.00  0.00    +0.000 A 
ATOM     11  C   UNL     1       0.308  10.751  19.638  0.00  0.00    +0.000 A 
ENDROOT
BRANCH   7  12
ATOM     12  C   UNL     1       3.424   6.332  17.904  0.00  0.00    +0.000 A 
ATOM     13  C   UNL     1       4.752   6.553  17.513  0.00  0.00    +0.000 A 
ATOM     14  C   UNL     1       5.518   5.513  16.977  0.00  0.00    +0.000 A 
ATOM     15  C   UNL     1       4.950   4.250  16.833  0.00  0.00    +0.000 A 
ATOM     16  C   UNL     1       3.640   4.010  17.231  0.00  0.00    +0.000 A 
ATOM     17  C   UNL     1       2.875   5.050  17.766  0.00  0.00    +0.000 A 
BRANCH  15  18
ATOM     18  O   UNL     1       5.653   3.213  16.292  0.00  0.00    +0.000 OA
ATOM     19  H   UNL     1       5.032   2.502  16.069  0.00  0.00    +0.000 HD
ENDBRANCH  15  18
ENDBRANCH   7  12
BRANCH   1  20
ATOM     20  O   UNL     1      -1.076  11.925  21.113  0.00  0.00    +0.000 OA
BRANCH  20  21
ATOM     21  C   UNL     1      -1.551  12.621  19.956  0.00  0.00    +0.000 C 
BRANCH  21  23
ATOM     22  C   UNL     1      -3.326  11.596  18.496  0.00  0.00    +0.000 C 
ATOM     23  C   UNL     1      -3.037  12.325  19.796  0.00  0.00    +0.000 C 
ENDBRANCH  21  23
ENDBRANCH  20  21
ENDBRANCH   1  20
TORSDOF 5
ENDMDL
MODEL 9
REMARK VINA RESULT:      -6.6      0.939      1.870
REMARK  Name = 
REMARK  6 active torsions:
REMARK  status: ('A' for Active; 'I' for Inactive)
REMARK    1  A    between atoms: C_1  and  C_2
REMARK    2  A    between atoms: C_2  and  C_3
REMARK    3  A    between atoms: C_3  and  O_4
REMARK    4  A    between atoms: O_4  and  C_5
REMARK    5  A    between atoms: C_11  and  C_12
REMARK    6  A    between atoms: C_15  and  O_16
REMARK                            x       y       z     vdW  Elec       q    Type
REMARK                         _______ _______ _______ _____ _____    ______ ____
ROOT
ATOM      1  C   UNL     1       3.233   4.819  19.514  0.00  0.00    +0.000 A 
ATOM      2  C   UNL     1       2.475   5.094  20.655  0.00  0.00    +0.000 A 
ATOM      3  C   UNL     1       1.819   6.321  20.786  0.00  0.00    +0.000 A 
ATOM      4  C   UNL     1       1.921   7.276  19.772  0.00  0.00    +0.000 A 
ATOM      5  C   UNL     1       1.259   8.585  19.909  0.00  0.00    +0.000 A 
ATOM      6  O   UNL     1       0.598   8.856  20.907  0.00  0.00    +0.000 OA
ATOM      7  C   UNL     1       1.444   9.540  18.788  0.00  0.00    +0.000 A 
ATOM      8  C   UNL     1       2.188   9.134  17.746  0.00  0.00    +0.000 A 
ATOM      9  O   UNL     1       2.803   7.911  17.605  0.00  0.00    +0.000 OA
ATOM     10  C   UNL     1       2.665   7.005  18.628  0.00  0.00    +0.000 A 
ATOM     11  C   UNL     1       3.315   5.775  18.495  0.00  0.00    +0.000 A 
ENDROOT
BRANCH   7  12
ATOM     12  C   UNL     1       0.840  10.876  18.798  0.00  0.00    +0.000 A 
ATOM     13  C   UNL     1      -0.528  11.035  18.532  0.00  0.00    +0.000 A 
ATOM     14  C   UNL     1      -1.102  12.310  18.498  0.00  0.00    +0.000 A 
ATOM     15  C   UNL     1      -0.302  13.426  18.729  0.00  0.00    +0.000 A 
ATOM     16  C   UNL     1       1.052  13.285  19.010  0.00  0.00    +0.000 A 
ATOM     17  C   UNL     1       1.625  12.011  19.044  0.00  0.00    +0.000 A 
BRANCH  15  18
ATOM     18  O   UNL     1      -0.815  14.689  18.680  0.00  0.00    +0.000 OA
ATOM     19  H   UNL     1      -1.554  14.748  19.307  0.00  0.00    +0.000 HD
ENDBRANCH  15  18
ENDBRANCH   7  12
BRANCH   1  20
ATOM     20  O   UNL     1       3.934   3.664  19.290  0.00  0.00    +0.000 OA
BRANCH  20  21
ATOM     21  C   UNL     1       3.224   2.438  19.489  0.00  0.00    +0.000 C 
BRANCH  21  23
ATOM     22  C   UNL     1       0.829   2.315  18.724  0.00  0.00    +0.000 C 
ATOM     23  C   UNL     1       2.287   2.229  18.307  0.00  0.00    +0.000 C 
ENDBRANCH  21  23
ENDBRANCH  20  21
ENDBRANCH   1  20
TORSDOF 5
ENDMDL
