MODEL 1
REMARK VINA RESULT:      -9.5      0.000      0.000
REMARK  Name = 
REMARK  4 active torsions:
REMARK  status: ('A' for Active; 'I' for Inactive)
REMARK    1  A    between atoms: O_1  and  N_2
REMARK    2  A    between atoms: C_3  and  C_4
REMARK    3  A    between atoms: C_7  and  O_8
REMARK    4  A    between atoms: O_8  and  C_9
REMARK                            x       y       z     vdW  Elec       q    Type
REMARK                         _______ _______ _______ _____ _____    ______ ____
ROOT
ATOM      1  C   UNL     1       2.539   7.356  18.821  0.00  0.00    +0.000 A 
ATOM      2  C   UNL     1       2.491   8.219  17.724  0.00  0.00    +0.000 A 
ATOM      3  C   UNL     1       1.741   9.392  17.807  0.00  0.00    +0.000 A 
ATOM      4  C   UNL     1       1.052   9.645  18.984  0.00  0.00    +0.000 A 
ATOM      5  N   UNL     1       1.101   8.841  20.072  0.00  0.00    +0.000 NA
ATOM      6  C   UNL     1       1.839   7.713  19.964  0.00  0.00    +0.000 A 
ENDROOT
BRANCH   1   8
ATOM      7  N   UNL     1       4.594   6.205  18.511  0.00  0.00    +0.000 NA
ATOM      8  C   UNL     1       3.329   6.085  18.792  0.00  0.00    +0.000 C 
ATOM      9  N   UNL     1       2.624   4.921  19.063  0.00  0.00    +0.000 N 
ATOM     10  C   UNL     1       2.622   3.826  18.094  0.00  0.00    +0.000 C 
ATOM     11  C   UNL     1       1.473   2.895  18.396  0.00  0.00    +0.000 C 
ATOM     12  C   UNL     1       0.783   2.897  19.550  0.00  0.00    +0.000 C 
ATOM     13  C   UNL     1       1.144   3.835  20.670  0.00  0.00    +0.000 C 
ATOM     14  C   UNL     1       2.524   4.473  20.457  0.00  0.00    +0.000 C 
BRANCH   7  15
ATOM     15  O   UNL     1       5.272   4.985  18.535  0.00  0.00    +0.000 OA
ATOM     16  H   UNL     1       5.629   4.937  17.628  0.00  0.00    +0.000 HD
ENDBRANCH   7  15
ENDBRANCH   1   8
BRANCH   4  17
ATOM     17  O   UNL     1       0.278  10.796  19.029  0.00  0.00    +0.000 OA
BRANCH  17  18
ATOM     18  C   UNL     1      -1.005  10.718  18.520  0.00  0.00    +0.000 A 
ATOM     19  C   UNL     1      -1.325   9.970  17.379  0.00  0.00    +0.000 A 
ATOM     20  C   UNL     1      -2.625   9.938  16.872  0.00  0.00    +0.000 A 
ATOM     21  C   UNL     1      -3.566  10.719  17.534  0.00  0.00    +0.000 A 
ATOM     22  O   UNL     1      -4.869  10.838  17.167  0.00  0.00    +0.000 OA
ATOM     23  C   UNL     1      -5.453  11.690  18.050  0.00  0.00    +0.000 A 
ATOM     24  C   UNL     1      -6.787  12.085  18.011  0.00  0.00    +0.000 A 
ATOM     25  C   UNL     1      -7.207  12.962  19.017  0.00  0.00    +0.000 A 
ATOM     26  C   UNL     1      -6.321  13.404  20.003  0.00  0.00    +0.000 A 
ATOM     27  C   UNL     1      -4.981  12.993  20.012  0.00  0.00    +0.000 A 
ATOM     28  C   UNL     1      -4.533  12.115  19.003  0.00  0.00    +0.000 A 
ATOM     29  C   UNL     1      -3.295  11.494  18.657  0.00  0.00    +0.000 A 
ATOM     30  C   UNL     1      -1.979  11.500  19.162  0.00  0.00    +0.000 A 
ENDBRANCH  17  18
ENDBRANCH   4  17
TORSDOF 4
ENDMDL
MODEL 2
REMARK VINA RESULT:      -9.4      3.603     10.075
REMARK  Name = 
REMARK  4 active torsions:
REMARK  status: ('A' for Active; 'I' for Inactive)
REMARK    1  A    between atoms: O_1  and  N_2
REMARK    2  A    between atoms: C_3  and  C_4
REMARK    3  A    between atoms: C_7  and  O_8
REMARK    4  A    between atoms: O_8  and  C_9
REMARK                            x       y       z     vdW  Elec       q    Type
REMARK                         _______ _______ _______ _____ _____    ______ ____
ROOT
ATOM      1  C   UNL     1       1.399   8.275  20.427  0.00  0.00    +0.000 A 
ATOM      2  C   UNL     1       1.856   8.383  19.111  0.00  0.00    +0.000 A 
ATOM      3  C   UNL     1       2.386   7.260  18.476  0.00  0.00    +0.000 A 
ATOM      4  C   UNL     1       2.454   6.074  19.193  0.00  0.00    +0.000 A 
ATOM      5  N   UNL     1       1.995   5.934  20.459  0.00  0.00    +0.000 NA
ATOM      6  C   UNL     1       1.483   7.038  21.049  0.00  0.00    +0.000 A 
ENDROOT
BRANCH   1   8
ATOM      7  N   UNL     1       0.689   9.306  22.446  0.00  0.00    +0.000 NA
ATOM      8  C   UNL     1       0.819   9.445  21.158  0.00  0.00    +0.000 C 
ATOM      9  N   UNL     1       0.480  10.544  20.382  0.00  0.00    +0.000 N 
ATOM     10  C   UNL     1      -0.886  11.063  20.408  0.00  0.00    +0.000 C 
ATOM     11  C   UNL     1      -1.110  11.937  19.197  0.00  0.00    +0.000 C 
ATOM     12  C   UNL     1      -0.124  12.416  18.420  0.00  0.00    +0.000 C 
ATOM     13  C   UNL     1       1.320  12.134  18.732  0.00  0.00    +0.000 C 
ATOM     14  C   UNL     1       1.497  11.576  20.152  0.00  0.00    +0.000 C 
BRANCH   7  15
ATOM     15  O   UNL     1       0.174  10.447  23.064  0.00  0.00    +0.000 OA
ATOM     16  H   UNL     1      -0.773  10.386  22.837  0.00  0.00    +0.000 HD
ENDBRANCH   7  15
ENDBRANCH   1   8
BRANCH   4  17
ATOM     17  O   UNL     1       3.024   4.981  18.557  0.00  0.00    +0.000 OA
BRANCH  17  18
ATOM     18  C   UNL     1       4.180   5.201  17.831  0.00  0.00    +0.000 A 
ATOM     19  C   UNL     1       5.221   6.019  18.290  0.00  0.00    +0.000 A 
ATOM     20  C   UNL     1       6.362   6.245  17.518  0.00  0.00    +0.000 A 
ATOM     21  C   UNL     1       6.385   5.652  16.261  0.00  0.00    +0.000 A 
ATOM     22  O   UNL     1       7.395   5.786  15.361  0.00  0.00    +0.000 OA
ATOM     23  C   UNL     1       7.042   5.069  14.261  0.00  0.00    +0.000 A 
ATOM     24  C   UNL     1       7.807   4.961  13.104  0.00  0.00    +0.000 A 
ATOM     25  C   UNL     1       7.280   4.166  12.080  0.00  0.00    +0.000 A 
ATOM     26  C   UNL     1       6.050   3.519  12.231  0.00  0.00    +0.000 A 
ATOM     27  C   UNL     1       5.300   3.652  13.408  0.00  0.00    +0.000 A 
ATOM     28  C   UNL     1       5.809   4.454  14.451  0.00  0.00    +0.000 A 
ATOM     29  C   UNL     1       5.371   4.848  15.751  0.00  0.00    +0.000 A 
ATOM     30  C   UNL     1       4.233   4.620  16.553  0.00  0.00    +0.000 A 
ENDBRANCH  17  18
ENDBRANCH   4  17
TORSDOF 4
ENDMDL
MODEL 3
REMARK VINA RESULT:      -9.3      0.740      1.082
REMARK  Name = 
REMARK  4 active torsions:
REMARK  status: ('A' for Active; 'I' for Inactive)
REMARK    1  A    between atoms: O_1  and  N_2
REMARK    2  A    between atoms: C_3  and  C_4
REMARK    3  A    between atoms: C_7  and  O_8
REMARK    4  A    between atoms: O_8  and  C_9
REMARK                            x       y       z     vdW  Elec       q    Type
REMARK                         _______ _______ _______ _____ _____    ______ ____
ROOT
ATOM      1  C   UNL     1       2.599   7.317  18.729  0.00  0.00    +0.000 A 
ATOM      2  C   UNL     1       1.898   7.723  19.866  0.00  0.00    +0.000 A 
ATOM      3  C   UNL     1       1.193   8.927  19.843  0.00  0.00    +0.000 A 
ATOM      4  C   UNL     1       1.235   9.686  18.683  0.00  0.00    +0.000 A 
ATOM      5  N   UNL     1       1.884   9.306  17.558  0.00  0.00    +0.000 NA
ATOM      6  C   UNL     1       2.556   8.133  17.608  0.00  0.00    +0.000 A 
ENDROOT
BRANCH   1   8
ATOM      7  N   UNL     1       4.627   6.133  18.368  0.00  0.00    +0.000 NA
ATOM      8  C   UNL     1       3.371   6.035  18.694  0.00  0.00    +0.000 C 
ATOM      9  N   UNL     1       2.660   4.886  19.010  0.00  0.00    +0.000 N 
ATOM     10  C   UNL     1       2.611   3.775  18.061  0.00  0.00    +0.000 C 
ATOM     11  C   UNL     1       1.460   2.864  18.419  0.00  0.00    +0.000 C 
ATOM     12  C   UNL     1       0.811   2.896  19.596  0.00  0.00    +0.000 C 
ATOM     13  C   UNL     1       1.223   3.847  20.686  0.00  0.00    +0.000 C 
ATOM     14  C   UNL     1       2.603   4.463  20.414  0.00  0.00    +0.000 C 
BRANCH   7  15
ATOM     15  O   UNL     1       5.289   4.904  18.389  0.00  0.00    +0.000 OA
ATOM     16  H   UNL     1       4.544   4.275  18.356  0.00  0.00    +0.000 HD
ENDBRANCH   7  15
ENDBRANCH   1   8
BRANCH   4  17
ATOM     17  O   UNL     1       0.563  10.900  18.697  0.00  0.00    +0.000 OA
BRANCH  17  18
ATOM     18  C   UNL     1      -0.802  10.873  18.481  0.00  0.00    +0.000 A 
ATOM     19  C   UNL     1      -1.396  10.103  17.471  0.00  0.00    +0.000 A 
ATOM     20  C   UNL     1      -2.775  10.122  17.259  0.00  0.00    +0.000 A 
ATOM     21  C   UNL     1      -3.514  10.974  18.072  0.00  0.00    +0.000 A 
ATOM     22  O   UNL     1      -4.859  11.148  17.990  0.00  0.00    +0.000 OA
ATOM     23  C   UNL     1      -5.199  12.060  18.938  0.00  0.00    +0.000 A 
ATOM     24  C   UNL     1      -6.491  12.523  19.170  0.00  0.00    +0.000 A 
ATOM     25  C   UNL     1      -6.643  13.455  20.202  0.00  0.00    +0.000 A 
ATOM     26  C   UNL     1      -5.545  13.885  20.953  0.00  0.00    +0.000 A 
ATOM     27  C   UNL     1      -4.255  13.404  20.690  0.00  0.00    +0.000 A 
ATOM     28  C   UNL     1      -4.076  12.469  19.650  0.00  0.00    +0.000 A 
ATOM     29  C   UNL     1      -2.972  11.772  19.074  0.00  0.00    +0.000 A 
ATOM     30  C   UNL     1      -1.577  11.727  19.282  0.00  0.00    +0.000 A 
ENDBRANCH  17  18
ENDBRANCH   4  17
TORSDOF 4
ENDMDL
MODEL 4
REMARK VINA RESULT:      -9.2      1.448      2.501
REMARK  Name = 
REMARK  4 active torsions:
REMARK  status: ('A' for Active; 'I' for Inactive)
REMARK    1  A    between atoms: O_1  and  N_2
REMARK    2  A    between atoms: C_3  and  C_4
REMARK    3  A    between atoms: C_7  and  O_8
REMARK    4  A    between atoms: O_8  and  C_9
REMARK                            x       y       z     vdW  Elec       q    Type
REMARK                         _______ _______ _______ _____ _____    ______ ____
ROOT
ATOM      1  C   UNL     1       2.543   7.271  19.063  0.00  0.00    +0.000 A 
ATOM      2  C   UNL     1       2.637   8.056  17.912  0.00  0.00    +0.000 A 
ATOM      3  C   UNL     1       1.947   9.268  17.851  0.00  0.00    +0.000 A 
ATOM      4  C   UNL     1       1.175   9.635  18.943  0.00  0.00    +0.000 A 
ATOM      5  N   UNL     1       1.087   8.908  20.081  0.00  0.00    +0.000 NA
ATOM      6  C   UNL     1       1.769   7.740  20.113  0.00  0.00    +0.000 A 
ENDROOT
BRANCH   1   8
ATOM      7  N   UNL     1       2.725   5.090  19.987  0.00  0.00    +0.000 NA
ATOM      8  C   UNL     1       3.262   5.964  19.186  0.00  0.00    +0.000 C 
ATOM      9  N   UNL     1       4.422   5.832  18.437  0.00  0.00    +0.000 N 
ATOM     10  C   UNL     1       5.684   5.503  19.097  0.00  0.00    +0.000 C 
ATOM     11  C   UNL     1       6.832   5.843  18.176  0.00  0.00    +0.000 C 
ATOM     12  C   UNL     1       6.697   6.090  16.862  0.00  0.00    +0.000 C 
ATOM     13  C   UNL     1       5.355   6.007  16.188  0.00  0.00    +0.000 C 
ATOM     14  C   UNL     1       4.316   5.301  17.073  0.00  0.00    +0.000 C 
BRANCH   7  15
ATOM     15  O   UNL     1       3.431   3.886  20.026  0.00  0.00    +0.000 OA
ATOM     16  H   UNL     1       4.341   4.182  19.837  0.00  0.00    +0.000 HD
ENDBRANCH   7  15
ENDBRANCH   1   8
BRANCH   4  17
ATOM     17  O   UNL     1       0.464  10.823  18.844  0.00  0.00    +0.000 OA
BRANCH  17  18
ATOM     18  C   UNL     1      -0.868  10.737  18.483  0.00  0.00    +0.000 A 
ATOM     19  C   UNL     1      -1.318   9.930  17.429  0.00  0.00    +0.000 A 
ATOM     20  C   UNL     1      -2.666   9.890  17.069  0.00  0.00    +0.000 A 
ATOM     21  C   UNL     1      -3.521  10.723  17.782  0.00  0.00    +0.000 A 
ATOM     22  O   UNL     1      -4.855  10.841  17.551  0.00  0.00    +0.000 OA
ATOM     23  C   UNL     1      -5.331  11.753  18.441  0.00  0.00    +0.000 A 
ATOM     24  C   UNL     1      -6.657  12.166  18.524  0.00  0.00    +0.000 A 
ATOM     25  C   UNL     1      -6.956  13.106  19.516  0.00  0.00    +0.000 A 
ATOM     26  C   UNL     1      -5.964  13.590  20.373  0.00  0.00    +0.000 A 
ATOM     27  C   UNL     1      -4.635  13.158  20.260  0.00  0.00    +0.000 A 
ATOM     28  C   UNL     1      -4.309  12.216  19.263  0.00  0.00    +0.000 A 
ATOM     29  C   UNL     1      -3.122  11.556  18.821  0.00  0.00    +0.000 A 
ATOM     30  C   UNL     1      -1.758  11.570  19.180  0.00  0.00    +0.000 A 
ENDBRANCH  17  18
ENDBRANCH   4  17
TORSDOF 4
ENDMDL
MODEL 5
REMARK VINA RESULT:      -9.0      1.787      2.955
REMARK  Name = 
REMARK  4 active torsions:
REMARK  status: ('A' for Active; 'I' for Inactive)
REMARK    1  A    between atoms: O_1  and  N_2
REMARK    2  A    between atoms: C_3  and  C_4
REMARK    3  A    between atoms: C_7  and  O_8
REMARK    4  A    between atoms: O_8  and  C_9
REMARK                            x       y       z     vdW  Elec       q    Type
REMARK                         _______ _______ _______ _____ _____    ______ ____
ROOT
ATOM      1  C   UNL     1       2.851   7.045  18.459  0.00  0.00    +0.000 A 
ATOM      2  C   UNL     1       2.209   7.300  19.673  0.00  0.00    +0.000 A 
ATOM      3  C   UNL     1       1.522   8.502  19.845  0.00  0.00    +0.000 A 
ATOM      4  C   UNL     1       1.521   9.410  18.797  0.00  0.00    +0.000 A 
ATOM      5  N   UNL     1       2.112   9.179  17.601  0.00  0.00    +0.000 NA
ATOM      6  C   UNL     1       2.768   8.005  17.461  0.00  0.00    +0.000 A 
ENDROOT
BRANCH   1   8
ATOM      7  N   UNL     1       2.876   4.707  18.035  0.00  0.00    +0.000 NA
ATOM      8  C   UNL     1       3.601   5.773  18.215  0.00  0.00    +0.000 C 
ATOM      9  N   UNL     1       4.985   5.871  18.213  0.00  0.00    +0.000 N 
ATOM     10  C   UNL     1       5.777   5.047  19.125  0.00  0.00    +0.000 C 
ATOM     11  C   UNL     1       7.164   5.632  19.248  0.00  0.00    +0.000 C 
ATOM     12  C   UNL     1       7.673   6.550  18.408  0.00  0.00    +0.000 C 
ATOM     13  C   UNL     1       6.883   7.049  17.229  0.00  0.00    +0.000 C 
ATOM     14  C   UNL     1       5.663   6.161  16.944  0.00  0.00    +0.000 C 
BRANCH   7  15
ATOM     15  O   UNL     1       3.641   3.568  17.781  0.00  0.00    +0.000 OA
ATOM     16  H   UNL     1       3.561   3.486  16.812  0.00  0.00    +0.000 HD
ENDBRANCH   7  15
ENDBRANCH   1   8
BRANCH   4  17
ATOM     17  O   UNL     1       0.869  10.617  19.006  0.00  0.00    +0.000 OA
BRANCH  17  18
ATOM     18  C   UNL     1      -0.478  10.672  18.698  0.00  0.00    +0.000 A 
ATOM     19  C   UNL     1      -1.043   9.962  17.629  0.00  0.00    +0.000 A 
ATOM     20  C   UNL     1      -2.401  10.064  17.326  0.00  0.00    +0.000 A 
ATOM     21  C   UNL     1      -3.146  10.935  18.113  0.00  0.00    +0.000 A 
ATOM     22  O   UNL     1      -4.471  11.187  17.947  0.00  0.00    +0.000 OA
ATOM     23  C   UNL     1      -4.825  12.092  18.897  0.00  0.00    +0.000 A 
ATOM     24  C   UNL     1      -6.102  12.620  19.056  0.00  0.00    +0.000 A 
ATOM     25  C   UNL     1      -6.274  13.533  20.102  0.00  0.00    +0.000 A 
ATOM     26  C   UNL     1      -5.208  13.881  20.937  0.00  0.00    +0.000 A 
ATOM     27  C   UNL     1      -3.930  13.335  20.747  0.00  0.00    +0.000 A 
ATOM     28  C   UNL     1      -3.733  12.418  19.694  0.00  0.00    +0.000 A 
ATOM     29  C   UNL     1      -2.631  11.676  19.172  0.00  0.00    +0.000 A 
ATOM     30  C   UNL     1      -1.258  11.547  19.471  0.00  0.00    +0.000 A 
ENDBRANCH  17  18
ENDBRANCH   4  17
TORSDOF 4
ENDMDL
MODEL 6
REMARK VINA RESULT:      -8.9      2.954      4.392
REMARK  Name = 
REMARK  4 active torsions:
REMARK  status: ('A' for Active; 'I' for Inactive)
REMARK    1  A    between atoms: O_1  and  N_2
REMARK    2  A    between atoms: C_3  and  C_4
REMARK    3  A    between atoms: C_7  and  O_8
REMARK    4  A    between atoms: O_8  and  C_9
REMARK                            x       y       z     vdW  Elec       q    Type
REMARK                         _______ _______ _______ _____ _____    ______ ____
ROOT
ATOM      1  C   UNL     1       3.693   5.972  18.590  0.00  0.00    +0.000 A 
ATOM      2  C   UNL     1       3.857   6.996  17.655  0.00  0.00    +0.000 A 
ATOM      3  C   UNL     1       3.034   8.121  17.719  0.00  0.00    +0.000 A 
ATOM      4  C   UNL     1       2.064   8.165  18.709  0.00  0.00    +0.000 A 
ATOM      5  N   UNL     1       1.899   7.200  19.645  0.00  0.00    +0.000 NA
ATOM      6  C   UNL     1       2.714   6.123  19.560  0.00  0.00    +0.000 A 
ENDROOT
BRANCH   1   8
ATOM      7  N   UNL     1       4.426   3.947  19.595  0.00  0.00    +0.000 NA
ATOM      8  C   UNL     1       4.548   4.744  18.572  0.00  0.00    +0.000 C 
ATOM      9  N   UNL     1       5.378   4.593  17.471  0.00  0.00    +0.000 N 
ATOM     10  C   UNL     1       6.820   4.438  17.658  0.00  0.00    +0.000 C 
ATOM     11  C   UNL     1       7.526   4.732  16.356  0.00  0.00    +0.000 C 
ATOM     12  C   UNL     1       6.912   4.795  15.163  0.00  0.00    +0.000 C 
ATOM     13  C   UNL     1       5.436   4.535  15.032  0.00  0.00    +0.000 C 
ATOM     14  C   UNL     1       4.859   3.883  16.296  0.00  0.00    +0.000 C 
BRANCH   7  15
ATOM     15  O   UNL     1       5.227   2.809  19.493  0.00  0.00    +0.000 OA
ATOM     16  H   UNL     1       4.584   2.096  19.662  0.00  0.00    +0.000 HD
ENDBRANCH   7  15
ENDBRANCH   1   8
BRANCH   4  17
ATOM     17  O   UNL     1       1.228   9.272  18.728  0.00  0.00    +0.000 OA
BRANCH  17  18
ATOM     18  C   UNL     1       0.730   9.671  19.954  0.00  0.00    +0.000 A 
ATOM     19  C   UNL     1       1.146   9.101  21.165  0.00  0.00    +0.000 A 
ATOM     20  C   UNL     1       0.600   9.505  22.384  0.00  0.00    +0.000 A 
ATOM     21  C   UNL     1      -0.402  10.467  22.324  0.00  0.00    +0.000 A 
ATOM     22  O   UNL     1      -1.069  10.957  23.402  0.00  0.00    +0.000 OA
ATOM     23  C   UNL     1      -1.969  11.861  22.932  0.00  0.00    +0.000 A 
ATOM     24  C   UNL     1      -2.860  12.581  23.723  0.00  0.00    +0.000 A 
ATOM     25  C   UNL     1      -3.702  13.477  23.056  0.00  0.00    +0.000 A 
ATOM     26  C   UNL     1      -3.636  13.632  21.669  0.00  0.00    +0.000 A 
ATOM     27  C   UNL     1      -2.731  12.887  20.899  0.00  0.00    +0.000 A 
ATOM     28  C   UNL     1      -1.877  11.973  21.549  0.00  0.00    +0.000 A 
ATOM     29  C   UNL     1      -0.864  11.049  21.149  0.00  0.00    +0.000 A 
ATOM     30  C   UNL     1      -0.289  10.638  19.928  0.00  0.00    +0.000 A 
ENDBRANCH  17  18
ENDBRANCH   4  17
TORSDOF 4
ENDMDL
MODEL 7
REMARK VINA RESULT:      -8.9      2.577      9.442
REMARK  Name = 
REMARK  4 active torsions:
REMARK  status: ('A' for Active; 'I' for Inactive)
REMARK    1  A    between atoms: O_1  and  N_2
REMARK    2  A    between atoms: C_3  and  C_4
REMARK    3  A    between atoms: C_7  and  O_8
REMARK    4  A    between atoms: O_8  and  C_9
REMARK                            x       y       z     vdW  Elec       q    Type
REMARK                         _______ _______ _______ _____ _____    ______ ____
ROOT
ATOM      1  C   UNL     1      -0.022  10.476  19.573  0.00  0.00    +0.000 A 
ATOM      2  C   UNL     1      -0.266   9.939  20.839  0.00  0.00    +0.000 A 
ATOM      3  C   UNL     1       0.413   8.787  21.236  0.00  0.00    +0.000 A 
ATOM      4  C   UNL     1       1.298   8.207  20.339  0.00  0.00    +0.000 A 
ATOM      5  N   UNL     1       1.574   8.721  19.117  0.00  0.00    +0.000 NA
ATOM      6  C   UNL     1       0.904   9.840  18.760  0.00  0.00    +0.000 A 
ENDROOT
BRANCH   1   8
ATOM      7  N   UNL     1      -0.045  12.821  19.189  0.00  0.00    +0.000 NA
ATOM      8  C   UNL     1      -0.719  11.711  19.093  0.00  0.00    +0.000 C 
ATOM      9  N   UNL     1      -2.004  11.535  18.602  0.00  0.00    +0.000 N 
ATOM     10  C   UNL     1      -3.117  12.284  19.184  0.00  0.00    +0.000 C 
ATOM     11  C   UNL     1      -4.418  11.618  18.805  0.00  0.00    +0.000 C 
ATOM     12  C   UNL     1      -4.540  10.700  17.832  0.00  0.00    +0.000 C 
ATOM     13  C   UNL     1      -3.356  10.283  17.002  0.00  0.00    +0.000 C 
ATOM     14  C   UNL     1      -2.174  11.247  17.173  0.00  0.00    +0.000 C 
BRANCH   7  15
ATOM     15  O   UNL     1      -0.744  13.922  18.692  0.00  0.00    +0.000 OA
ATOM     16  H   UNL     1      -0.872  13.673  17.758  0.00  0.00    +0.000 HD
ENDBRANCH   7  15
ENDBRANCH   1   8
BRANCH   4  17
ATOM     17  O   UNL     1       1.930   7.039  20.739  0.00  0.00    +0.000 OA
BRANCH  17  18
ATOM     18  C   UNL     1       2.288   6.141  19.751  0.00  0.00    +0.000 A 
ATOM     19  C   UNL     1       1.545   4.986  19.469  0.00  0.00    +0.000 A 
ATOM     20  C   UNL     1       1.952   4.083  18.485  0.00  0.00    +0.000 A 
ATOM     21  C   UNL     1       3.148   4.371  17.838  0.00  0.00    +0.000 A 
ATOM     22  O   UNL     1       3.715   3.592  16.879  0.00  0.00    +0.000 OA
ATOM     23  C   UNL     1       4.870   4.204  16.506  0.00  0.00    +0.000 A 
ATOM     24  C   UNL     1       5.755   3.715  15.549  0.00  0.00    +0.000 A 
ATOM     25  C   UNL     1       6.888   4.495  15.292  0.00  0.00    +0.000 A 
ATOM     26  C   UNL     1       7.102   5.700  15.967  0.00  0.00    +0.000 A 
ATOM     27  C   UNL     1       6.194   6.162  16.930  0.00  0.00    +0.000 A 
ATOM     28  C   UNL     1       5.048   5.389  17.210  0.00  0.00    +0.000 A 
ATOM     29  C   UNL     1       3.931   5.491  18.094  0.00  0.00    +0.000 A 
ATOM     30  C   UNL     1       3.495   6.399  19.081  0.00  0.00    +0.000 A 
ENDBRANCH  17  18
ENDBRANCH   4  17
TORSDOF 4
ENDMDL
MODEL 8
REMARK VINA RESULT:      -8.8      3.057      9.363
REMARK  Name = 
REMARK  4 active torsions:
REMARK  status: ('A' for Active; 'I' for Inactive)
REMARK    1  A    between atoms: O_1  and  N_2
REMARK    2  A    between atoms: C_3  and  C_4
REMARK    3  A    between atoms: C_7  and  O_8
REMARK    4  A    between atoms: O_8  and  C_9
REMARK                            x       y       z     vdW  Elec       q    Type
REMARK                         _______ _______ _______ _____ _____    ______ ____
ROOT
ATOM      1  C   UNL     1      -4.078  11.800  18.293  0.00  0.00    +0.000 A 
ATOM      2  C   UNL     1      -3.220  11.192  17.374  0.00  0.00    +0.000 A 
ATOM      3  C   UNL     1      -1.868  11.050  17.689  0.00  0.00    +0.000 A 
ATOM      4  C   UNL     1      -1.426  11.540  18.909  0.00  0.00    +0.000 A 
ATOM      5  N   UNL     1      -2.239  12.109  19.830  0.00  0.00    +0.000 NA
ATOM      6  C   UNL     1      -3.545  12.231  19.499  0.00  0.00    +0.000 A 
ENDROOT
BRANCH   1   8
ATOM      7  N   UNL     1      -5.834  12.645  16.934  0.00  0.00    +0.000 NA
ATOM      8  C   UNL     1      -5.537  11.978  18.012  0.00  0.00    +0.000 C 
ATOM      9  N   UNL     1      -6.410  11.416  18.932  0.00  0.00    +0.000 N 
ATOM     10  C   UNL     1      -7.409  12.252  19.596  0.00  0.00    +0.000 C 
ATOM     11  C   UNL     1      -7.916  11.540  20.827  0.00  0.00    +0.000 C 
ATOM     12  C   UNL     1      -7.724  10.233  21.075  0.00  0.00    +0.000 C 
ATOM     13  C   UNL     1      -6.998   9.352  20.095  0.00  0.00    +0.000 C 
ATOM     14  C   UNL     1      -6.846  10.030  18.726  0.00  0.00    +0.000 C 
BRANCH   7  15
ATOM     15  O   UNL     1      -7.210  12.741  16.719  0.00  0.00    +0.000 OA
ATOM     16  H   UNL     1      -7.276  13.576  16.219  0.00  0.00    +0.000 HD
ENDBRANCH   7  15
ENDBRANCH   1   8
BRANCH   4  17
ATOM     17  O   UNL     1      -0.071  11.427  19.183  0.00  0.00    +0.000 OA
BRANCH  17  18
ATOM     18  C   UNL     1       0.391  10.193  19.601  0.00  0.00    +0.000 A 
ATOM     19  C   UNL     1       0.037   9.626  20.833  0.00  0.00    +0.000 A 
ATOM     20  C   UNL     1       0.546   8.392  21.238  0.00  0.00    +0.000 A 
ATOM     21  C   UNL     1       1.451   7.783  20.376  0.00  0.00    +0.000 A 
ATOM     22  O   UNL     1       2.073   6.599  20.617  0.00  0.00    +0.000 OA
ATOM     23  C   UNL     1       2.880   6.352  19.551  0.00  0.00    +0.000 A 
ATOM     24  C   UNL     1       3.700   5.236  19.417  0.00  0.00    +0.000 A 
ATOM     25  C   UNL     1       4.450   5.151  18.239  0.00  0.00    +0.000 A 
ATOM     26  C   UNL     1       4.363   6.142  17.257  0.00  0.00    +0.000 A 
ATOM     27  C   UNL     1       3.531   7.258  17.424  0.00  0.00    +0.000 A 
ATOM     28  C   UNL     1       2.771   7.367  18.607  0.00  0.00    +0.000 A 
ATOM     29  C   UNL     1       1.851   8.312  19.153  0.00  0.00    +0.000 A 
ATOM     30  C   UNL     1       1.312   9.554  18.755  0.00  0.00    +0.000 A 
ENDBRANCH  17  18
ENDBRANCH   4  17
TORSDOF 4
ENDMDL
MODEL 9
REMARK VINA RESULT:      -8.8      1.904      2.537
REMARK  Name = 
REMARK  4 active torsions:
REMARK  status: ('A' for Active; 'I' for Inactive)
REMARK    1  A    between atoms: O_1  and  N_2
REMARK    2  A    between atoms: C_3  and  C_4
REMARK    3  A    between atoms: C_7  and  O_8
REMARK    4  A    between atoms: O_8  and  C_9
REMARK                            x       y       z     vdW  Elec       q    Type
REMARK                         _______ _______ _______ _____ _____    ______ ____
ROOT
ATOM      1  C   UNL     1       2.373   7.444  18.661  0.00  0.00    +0.000 A 
ATOM      2  C   UNL     1       1.838   7.698  19.925  0.00  0.00    +0.000 A 
ATOM      3  C   UNL     1       1.395   8.984  20.237  0.00  0.00    +0.000 A 
ATOM      4  C   UNL     1       1.524   9.971  19.271  0.00  0.00    +0.000 A 
ATOM      5  N   UNL     1       2.014   9.748  18.028  0.00  0.00    +0.000 NA
ATOM      6  C   UNL     1       2.432   8.492  17.753  0.00  0.00    +0.000 A 
ENDROOT
BRANCH   1   8
ATOM      7  N   UNL     1       3.699   6.043  17.274  0.00  0.00    +0.000 NA
ATOM      8  C   UNL     1       2.862   6.084  18.269  0.00  0.00    +0.000 C 
ATOM      9  N   UNL     1       2.364   5.021  19.008  0.00  0.00    +0.000 N 
ATOM     10  C   UNL     1       1.674   3.923  18.333  0.00  0.00    +0.000 C 
ATOM     11  C   UNL     1       0.866   3.145  19.345  0.00  0.00    +0.000 C 
ATOM     12  C   UNL     1       1.025   3.247  20.675  0.00  0.00    +0.000 C 
ATOM     13  C   UNL     1       2.076   4.146  21.268  0.00  0.00    +0.000 C 
ATOM     14  C   UNL     1       3.092   4.605  20.212  0.00  0.00    +0.000 C 
BRANCH   7  15
ATOM     15  O   UNL     1       4.136   4.748  16.988  0.00  0.00    +0.000 OA
ATOM     16  H   UNL     1       3.723   4.235  17.707  0.00  0.00    +0.000 HD
ENDBRANCH   7  15
ENDBRANCH   1   8
BRANCH   4  17
ATOM     17  O   UNL     1       1.118  11.251  19.616  0.00  0.00    +0.000 OA
BRANCH  17  18
ATOM     18  C   UNL     1      -0.242  11.497  19.657  0.00  0.00    +0.000 A 
ATOM     19  C   UNL     1      -1.051  11.483  18.513  0.00  0.00    +0.000 A 
ATOM     20  C   UNL     1      -2.416  11.766  18.584  0.00  0.00    +0.000 A 
ATOM     21  C   UNL     1      -2.913  12.101  19.839  0.00  0.00    +0.000 A 
ATOM     22  O   UNL     1      -4.205  12.437  20.094  0.00  0.00    +0.000 OA
ATOM     23  C   UNL     1      -4.288  12.705  21.424  0.00  0.00    +0.000 A 
ATOM     24  C   UNL     1      -5.448  13.099  22.085  0.00  0.00    +0.000 A 
ATOM     25  C   UNL     1      -5.337  13.317  23.463  0.00  0.00    +0.000 A 
ATOM     26  C   UNL     1      -4.119  13.138  24.125  0.00  0.00    +0.000 A 
ATOM     27  C   UNL     1      -2.967  12.745  23.429  0.00  0.00    +0.000 A 
ATOM     28  C   UNL     1      -3.053  12.527  22.039  0.00  0.00    +0.000 A 
ATOM     29  C   UNL     1      -2.150  12.149  21.000  0.00  0.00    +0.000 A 
ATOM     30  C   UNL     1      -0.775  11.845  20.909  0.00  0.00    +0.000 A 
ENDBRANCH  17  18
ENDBRANCH   4  17
TORSDOF 4
ENDMDL
