MODEL 1
REMARK VINA RESULT:      -6.2      0.000      0.000
REMARK  Name = 
REMARK  4 active torsions:
REMARK  status: ('A' for Active; 'I' for Inactive)
REMARK    1  A    between atoms: C_1  and  C_2
REMARK    2  A    between atoms: C_2  and  C_3
REMARK    3  A    between atoms: C_3  and  C_4
REMARK    4  A    between atoms: C_6  and  O_7
REMARK                            x       y       z     vdW  Elec       q    Type
REMARK                         _______ _______ _______ _____ _____    ______ ____
ROOT
ATOM      1  C   UNL     1       7.502   6.474  17.790  0.00  0.00    +0.000 A 
ATOM      2  N   UNL     1       6.885   5.538  18.602  0.00  0.00    +0.000 NA
ATOM      3  C   UNL     1       6.242   4.512  18.014  0.00  0.00    +0.000 A 
ATOM      4  C   UNL     1       6.254   4.506  16.638  0.00  0.00    +0.000 A 
ATOM      5  C   UNL     1       5.694   3.609  15.771  0.00  0.00    +0.000 A 
ATOM      6  N   UNL     1       6.013   4.097  14.533  0.00  0.00    +0.000 N 
ATOM      7  N   UNL     1       6.737   5.236  14.551  0.00  0.00    +0.000 NA
ATOM      8  C   UNL     1       6.889   5.493  15.855  0.00  0.00    +0.000 A 
ATOM      9  N   UNL     1       7.549   6.527  16.424  0.00  0.00    +0.000 NA
ATOM     10  H   UNL     1       5.770   3.702  13.628  0.00  0.00    +0.000 HD
ENDROOT
BRANCH   3  11
ATOM     11  O   UNL     1       5.658   3.589  18.824  0.00  0.00    +0.000 OA
ATOM     12  H   UNL     1       5.891   2.765  18.359  0.00  0.00    +0.000 HD
ENDBRANCH   3  11
BRANCH   1  13
ATOM     13  C   UNL     1       8.211   7.599  18.510  0.00  0.00    +0.000 C 
BRANCH  13  15
ATOM     14  C   UNL     1       8.881  10.030  18.416  0.00  0.00    +0.000 C 
ATOM     15  C   UNL     1       8.011   8.942  17.808  0.00  0.00    +0.000 C 
ENDBRANCH  13  15
ENDBRANCH   1  13
TORSDOF 3
ENDMDL
MODEL 2
REMARK VINA RESULT:      -6.1      2.934      5.238
REMARK  Name = 
REMARK  4 active torsions:
REMARK  status: ('A' for Active; 'I' for Inactive)
REMARK    1  A    between atoms: C_1  and  C_2
REMARK    2  A    between atoms: C_2  and  C_3
REMARK    3  A    between atoms: C_3  and  C_4
REMARK    4  A    between atoms: C_6  and  O_7
REMARK                            x       y       z     vdW  Elec       q    Type
REMARK                         _______ _______ _______ _____ _____    ______ ____
ROOT
ATOM      1  C   UNL     1       3.677   4.633  17.885  0.00  0.00    +0.000 A 
ATOM      2  N   UNL     1       4.184   4.185  16.677  0.00  0.00    +0.000 NA
ATOM      3  C   UNL     1       5.521   4.137  16.528  0.00  0.00    +0.000 A 
ATOM      4  C   UNL     1       6.261   4.560  17.608  0.00  0.00    +0.000 A 
ATOM      5  C   UNL     1       7.619   4.628  17.755  0.00  0.00    +0.000 A 
ATOM      6  N   UNL     1       7.794   5.121  19.020  0.00  0.00    +0.000 N 
ATOM      7  N   UNL     1       6.646   5.367  19.687  0.00  0.00    +0.000 NA
ATOM      8  C   UNL     1       5.693   5.020  18.816  0.00  0.00    +0.000 A 
ATOM      9  N   UNL     1       4.353   5.067  18.992  0.00  0.00    +0.000 NA
ATOM     10  H   UNL     1       8.672   5.314  19.495  0.00  0.00    +0.000 HD
ENDROOT
BRANCH   3  11
ATOM     11  O   UNL     1       6.005   3.675  15.344  0.00  0.00    +0.000 OA
ATOM     12  H   UNL     1       5.731   2.742  15.386  0.00  0.00    +0.000 HD
ENDBRANCH   3  11
BRANCH   1  13
ATOM     13  C   UNL     1       2.169   4.658  17.992  0.00  0.00    +0.000 C 
BRANCH  13  15
ATOM     14  C   UNL     1       0.984   3.820  20.057  0.00  0.00    +0.000 C 
ATOM     15  C   UNL     1       1.630   3.435  18.736  0.00  0.00    +0.000 C 
ENDBRANCH  13  15
ENDBRANCH   1  13
TORSDOF 3
ENDMDL
MODEL 3
REMARK VINA RESULT:      -6.1      2.571      4.698
REMARK  Name = 
REMARK  4 active torsions:
REMARK  status: ('A' for Active; 'I' for Inactive)
REMARK    1  A    between atoms: C_1  and  C_2
REMARK    2  A    between atoms: C_2  and  C_3
REMARK    3  A    between atoms: C_3  and  C_4
REMARK    4  A    between atoms: C_6  and  O_7
REMARK                            x       y       z     vdW  Elec       q    Type
REMARK                         _______ _______ _______ _____ _____    ______ ____
ROOT
ATOM      1  C   UNL     1       6.598   4.719  15.477  0.00  0.00    +0.000 A 
ATOM      2  N   UNL     1       5.280   5.006  15.789  0.00  0.00    +0.000 NA
ATOM      3  C   UNL     1       4.968   5.237  17.078  0.00  0.00    +0.000 A 
ATOM      4  C   UNL     1       6.010   5.149  17.972  0.00  0.00    +0.000 A 
ATOM      5  C   UNL     1       6.005   5.326  19.328  0.00  0.00    +0.000 A 
ATOM      6  N   UNL     1       7.306   5.115  19.698  0.00  0.00    +0.000 N 
ATOM      7  N   UNL     1       8.136   4.821  18.675  0.00  0.00    +0.000 NA
ATOM      8  C   UNL     1       7.337   4.841  17.603  0.00  0.00    +0.000 A 
ATOM      9  N   UNL     1       7.675   4.615  16.313  0.00  0.00    +0.000 NA
ATOM     10  H   UNL     1       7.701   5.158  20.634  0.00  0.00    +0.000 HD
ENDROOT
BRANCH   3  11
ATOM     11  O   UNL     1       3.674   5.538  17.368  0.00  0.00    +0.000 OA
ATOM     12  H   UNL     1       3.447   4.808  17.970  0.00  0.00    +0.000 HD
ENDBRANCH   3  11
BRANCH   1  13
ATOM     13  C   UNL     1       6.885   4.476  14.012  0.00  0.00    +0.000 C 
BRANCH  13  15
ATOM     14  C   UNL     1       6.174   3.158  11.980  0.00  0.00    +0.000 C 
ATOM     15  C   UNL     1       5.746   3.719  13.326  0.00  0.00    +0.000 C 
ENDBRANCH  13  15
ENDBRANCH   1  13
TORSDOF 3
ENDMDL
MODEL 4
REMARK VINA RESULT:      -6.0      1.774      2.573
REMARK  Name = 
REMARK  4 active torsions:
REMARK  status: ('A' for Active; 'I' for Inactive)
REMARK    1  A    between atoms: C_1  and  C_2
REMARK    2  A    between atoms: C_2  and  C_3
REMARK    3  A    between atoms: C_3  and  C_4
REMARK    4  A    between atoms: C_6  and  O_7
REMARK                            x       y       z     vdW  Elec       q    Type
REMARK                         _______ _______ _______ _____ _____    ______ ____
ROOT
ATOM      1  C   UNL     1       7.403   6.503  17.988  0.00  0.00    +0.000 A 
ATOM      2  N   UNL     1       7.294   6.442  16.609  0.00  0.00    +0.000 NA
ATOM      3  C   UNL     1       6.486   5.507  16.077  0.00  0.00    +0.000 A 
ATOM      4  C   UNL     1       5.848   4.682  16.975  0.00  0.00    +0.000 A 
ATOM      5  C   UNL     1       4.980   3.652  16.741  0.00  0.00    +0.000 A 
ATOM      6  N   UNL     1       4.666   3.188  17.990  0.00  0.00    +0.000 N 
ATOM      7  N   UNL     1       5.270   3.852  19.000  0.00  0.00    +0.000 NA
ATOM      8  C   UNL     1       6.004   4.779  18.375  0.00  0.00    +0.000 A 
ATOM      9  N   UNL     1       6.803   5.717  18.932  0.00  0.00    +0.000 NA
ATOM     10  H   UNL     1       4.044   2.421  18.230  0.00  0.00    +0.000 HD
ENDROOT
BRANCH   3  11
ATOM     11  O   UNL     1       6.371   5.472  14.722  0.00  0.00    +0.000 OA
ATOM     12  H   UNL     1       6.889   4.674  14.515  0.00  0.00    +0.000 HD
ENDBRANCH   3  11
BRANCH   1  13
ATOM     13  C   UNL     1       8.322   7.578  18.523  0.00  0.00    +0.000 C 
BRANCH  13  15
ATOM     14  C   UNL     1       8.892  10.037  18.494  0.00  0.00    +0.000 C 
ATOM     15  C   UNL     1       8.061   8.932  17.862  0.00  0.00    +0.000 C 
ENDBRANCH  13  15
ENDBRANCH   1  13
TORSDOF 3
ENDMDL
MODEL 5
REMARK VINA RESULT:      -6.0      2.789      5.301
REMARK  Name = 
REMARK  4 active torsions:
REMARK  status: ('A' for Active; 'I' for Inactive)
REMARK    1  A    between atoms: C_1  and  C_2
REMARK    2  A    between atoms: C_2  and  C_3
REMARK    3  A    between atoms: C_3  and  C_4
REMARK    4  A    between atoms: C_6  and  O_7
REMARK                            x       y       z     vdW  Elec       q    Type
REMARK                         _______ _______ _______ _____ _____    ______ ____
ROOT
ATOM      1  C   UNL     1       4.561   4.199  18.043  0.00  0.00    +0.000 A 
ATOM      2  N   UNL     1       4.579   5.016  16.926  0.00  0.00    +0.000 NA
ATOM      3  C   UNL     1       5.566   5.925  16.819  0.00  0.00    +0.000 A 
ATOM      4  C   UNL     1       6.466   5.958  17.859  0.00  0.00    +0.000 A 
ATOM      5  C   UNL     1       7.558   6.762  18.035  0.00  0.00    +0.000 A 
ATOM      6  N   UNL     1       8.077   6.364  19.237  0.00  0.00    +0.000 N 
ATOM      7  N   UNL     1       7.395   5.364  19.836  0.00  0.00    +0.000 NA
ATOM      8  C   UNL     1       6.396   5.109  18.985  0.00  0.00    +0.000 A 
ATOM      9  N   UNL     1       5.419   4.182  19.108  0.00  0.00    +0.000 NA
ATOM     10  H   UNL     1       8.898   6.730  19.712  0.00  0.00    +0.000 HD
ENDROOT
BRANCH   3  11
ATOM     11  O   UNL     1       5.584   6.707  15.706  0.00  0.00    +0.000 OA
ATOM     12  H   UNL     1       6.004   7.512  16.056  0.00  0.00    +0.000 HD
ENDBRANCH   3  11
BRANCH   1  13
ATOM     13  C   UNL     1       3.431   3.195  18.100  0.00  0.00    +0.000 C 
BRANCH  13  15
ATOM     14  C   UNL     1       1.149   3.232  19.179  0.00  0.00    +0.000 C 
ATOM     15  C   UNL     1       2.064   3.879  18.151  0.00  0.00    +0.000 C 
ENDBRANCH  13  15
ENDBRANCH   1  13
TORSDOF 3
ENDMDL
MODEL 6
REMARK VINA RESULT:      -6.0      4.331      4.933
REMARK  Name = 
REMARK  4 active torsions:
REMARK  status: ('A' for Active; 'I' for Inactive)
REMARK    1  A    between atoms: C_1  and  C_2
REMARK    2  A    between atoms: C_2  and  C_3
REMARK    3  A    between atoms: C_3  and  C_4
REMARK    4  A    between atoms: C_6  and  O_7
REMARK                            x       y       z     vdW  Elec       q    Type
REMARK                         _______ _______ _______ _____ _____    ______ ____
ROOT
ATOM      1  C   UNL     1       3.330   5.841  18.033  0.00  0.00    +0.000 A 
ATOM      2  N   UNL     1       4.550   5.305  18.407  0.00  0.00    +0.000 NA
ATOM      3  C   UNL     1       4.619   3.981  18.635  0.00  0.00    +0.000 A 
ATOM      4  C   UNL     1       3.443   3.283  18.483  0.00  0.00    +0.000 A 
ATOM      5  C   UNL     1       3.200   1.947  18.645  0.00  0.00    +0.000 A 
ATOM      6  N   UNL     1       1.866   1.813  18.370  0.00  0.00    +0.000 N 
ATOM      7  N   UNL     1       1.246   2.967  18.042  0.00  0.00    +0.000 NA
ATOM      8  C   UNL     1       2.220   3.880  18.110  0.00  0.00    +0.000 A 
ATOM      9  N   UNL     1       2.129   5.208  17.867  0.00  0.00    +0.000 NA
ATOM     10  H   UNL     1       1.311   0.962  18.384  0.00  0.00    +0.000 HD
ENDROOT
BRANCH   3  11
ATOM     11  O   UNL     1       5.829   3.464  18.982  0.00  0.00    +0.000 OA
ATOM     12  H   UNL     1       5.558   2.623  19.391  0.00  0.00    +0.000 HD
ENDBRANCH   3  11
BRANCH   1  13
ATOM     13  C   UNL     1       3.319   7.333  17.786  0.00  0.00    +0.000 C 
BRANCH  13  15
ATOM     14  C   UNL     1       1.684   9.255  17.841  0.00  0.00    +0.000 C 
ATOM     15  C   UNL     1       2.213   8.034  18.576  0.00  0.00    +0.000 C 
ENDBRANCH  13  15
ENDBRANCH   1  13
TORSDOF 3
ENDMDL
MODEL 7
REMARK VINA RESULT:      -5.9      2.792      5.285
REMARK  Name = 
REMARK  4 active torsions:
REMARK  status: ('A' for Active; 'I' for Inactive)
REMARK    1  A    between atoms: C_1  and  C_2
REMARK    2  A    between atoms: C_2  and  C_3
REMARK    3  A    between atoms: C_3  and  C_4
REMARK    4  A    between atoms: C_6  and  O_7
REMARK                            x       y       z     vdW  Elec       q    Type
REMARK                         _______ _______ _______ _____ _____    ______ ____
ROOT
ATOM      1  C   UNL     1       3.867   5.200  18.442  0.00  0.00    +0.000 A 
ATOM      2  N   UNL     1       4.081   5.817  17.222  0.00  0.00    +0.000 NA
ATOM      3  C   UNL     1       5.319   6.263  16.943  0.00  0.00    +0.000 A 
ATOM      4  C   UNL     1       6.262   6.068  17.926  0.00  0.00    +0.000 A 
ATOM      5  C   UNL     1       7.586   6.409  17.936  0.00  0.00    +0.000 A 
ATOM      6  N   UNL     1       8.033   5.981  19.157  0.00  0.00    +0.000 N 
ATOM      7  N   UNL     1       7.089   5.391  19.921  0.00  0.00    +0.000 NA
ATOM      8  C   UNL     1       5.990   5.442  19.161  0.00  0.00    +0.000 A 
ATOM      9  N   UNL     1       4.755   4.977  19.458  0.00  0.00    +0.000 NA
ATOM     10  H   UNL     1       8.973   6.058  19.537  0.00  0.00    +0.000 HD
ENDROOT
BRANCH   3  11
ATOM     11  O   UNL     1       5.520   6.848  15.732  0.00  0.00    +0.000 OA
ATOM     12  H   UNL     1       5.030   7.681  15.848  0.00  0.00    +0.000 HD
ENDBRANCH   3  11
BRANCH   1  13
ATOM     13  C   UNL     1       2.456   4.716  18.692  0.00  0.00    +0.000 C 
BRANCH  13  15
ATOM     14  C   UNL     1       2.577   2.382  17.739  0.00  0.00    +0.000 C 
ATOM     15  C   UNL     1       1.975   3.769  17.591  0.00  0.00    +0.000 C 
ENDBRANCH  13  15
ENDBRANCH   1  13
TORSDOF 3
ENDMDL
MODEL 8
REMARK VINA RESULT:      -5.8      3.144      5.297
REMARK  Name = 
REMARK  4 active torsions:
REMARK  status: ('A' for Active; 'I' for Inactive)
REMARK    1  A    between atoms: C_1  and  C_2
REMARK    2  A    between atoms: C_2  and  C_3
REMARK    3  A    between atoms: C_3  and  C_4
REMARK    4  A    between atoms: C_6  and  O_7
REMARK                            x       y       z     vdW  Elec       q    Type
REMARK                         _______ _______ _______ _____ _____    ______ ____
ROOT
ATOM      1  C   UNL     1       3.721   5.225  18.411  0.00  0.00    +0.000 A 
ATOM      2  N   UNL     1       4.002   5.849  17.208  0.00  0.00    +0.000 NA
ATOM      3  C   UNL     1       5.277   6.197  16.955  0.00  0.00    +0.000 A 
ATOM      4  C   UNL     1       6.187   5.902  17.944  0.00  0.00    +0.000 A 
ATOM      5  C   UNL     1       7.535   6.132  17.978  0.00  0.00    +0.000 A 
ATOM      6  N   UNL     1       7.927   5.642  19.194  0.00  0.00    +0.000 N 
ATOM      7  N   UNL     1       6.927   5.115  19.932  0.00  0.00    +0.000 NA
ATOM      8  C   UNL     1       5.847   5.274  19.161  0.00  0.00    +0.000 A 
ATOM      9  N   UNL     1       4.574   4.907  19.432  0.00  0.00    +0.000 NA
ATOM     10  H   UNL     1       8.865   5.633  19.587  0.00  0.00    +0.000 HD
ENDROOT
BRANCH   3  11
ATOM     11  O   UNL     1       5.542   6.790  15.760  0.00  0.00    +0.000 OA
ATOM     12  H   UNL     1       4.860   7.485  15.745  0.00  0.00    +0.000 HD
ENDBRANCH   3  11
BRANCH   1  13
ATOM     13  C   UNL     1       2.272   4.854  18.633  0.00  0.00    +0.000 C 
BRANCH  13  15
ATOM     14  C   UNL     1       1.100   3.763  20.584  0.00  0.00    +0.000 C 
ATOM     15  C   UNL     1       1.869   4.983  20.103  0.00  0.00    +0.000 C 
ENDBRANCH  13  15
ENDBRANCH   1  13
TORSDOF 3
ENDMDL
MODEL 9
REMARK VINA RESULT:      -5.8      3.678      4.654
REMARK  Name = 
REMARK  4 active torsions:
REMARK  status: ('A' for Active; 'I' for Inactive)
REMARK    1  A    between atoms: C_1  and  C_2
REMARK    2  A    between atoms: C_2  and  C_3
REMARK    3  A    between atoms: C_3  and  C_4
REMARK    4  A    between atoms: C_6  and  O_7
REMARK                            x       y       z     vdW  Elec       q    Type
REMARK                         _______ _______ _______ _____ _____    ______ ____
ROOT
ATOM      1  C   UNL     1       4.322   5.072  18.037  0.00  0.00    +0.000 A 
ATOM      2  N   UNL     1       5.056   4.198  18.820  0.00  0.00    +0.000 NA
ATOM      3  C   UNL     1       4.459   3.070  19.245  0.00  0.00    +0.000 A 
ATOM      4  C   UNL     1       3.149   2.903  18.860  0.00  0.00    +0.000 A 
ATOM      5  C   UNL     1       2.289   1.875  19.133  0.00  0.00    +0.000 A 
ATOM      6  N   UNL     1       1.127   2.235  18.505  0.00  0.00    +0.000 N 
ATOM      7  N   UNL     1       1.188   3.415  17.851  0.00  0.00    +0.000 NA
ATOM      8  C   UNL     1       2.440   3.832  18.068  0.00  0.00    +0.000 A 
ATOM      9  N   UNL     1       3.023   4.968  17.622  0.00  0.00    +0.000 NA
ATOM     10  H   UNL     1       0.250   1.722  18.480  0.00  0.00    +0.000 HD
ENDROOT
BRANCH   3  11
ATOM     11  O   UNL     1       5.198   2.211  19.996  0.00  0.00    +0.000 OA
ATOM     12  H   UNL     1       6.056   2.259  19.538  0.00  0.00    +0.000 HD
ENDBRANCH   3  11
BRANCH   1  13
ATOM     13  C   UNL     1       5.051   6.318  17.587  0.00  0.00    +0.000 C 
BRANCH  13  15
ATOM     14  C   UNL     1       5.808   5.342  15.386  0.00  0.00    +0.000 C 
ATOM     15  C   UNL     1       5.042   6.466  16.065  0.00  0.00    +0.000 C 
ENDBRANCH  13  15
ENDBRANCH   1  13
TORSDOF 3
ENDMDL
