MODEL 1
REMARK VINA RESULT:      -7.7      0.000      0.000
REMARK  Name = 
REMARK  5 active torsions:
REMARK  status: ('A' for Active; 'I' for Inactive)
REMARK    1  A    between atoms: C_2  and  C_3
REMARK    2  A    between atoms: C_3  and  N_4
REMARK    3  A    between atoms: C_6  and  C_7
REMARK    4  A    between atoms: C_7  and  N_8
REMARK    5  A    between atoms: C_21  and  C_22
REMARK                            x       y       z     vdW  Elec       q    Type
REMARK                         _______ _______ _______ _____ _____    ______ ____
ROOT
ATOM      1  N   UNL     1       4.262   5.237  18.528  0.00  0.00    +0.000 NA
ATOM      2  C   UNL     1       4.020   6.475  17.785  0.00  0.00    +0.000 C 
ATOM      3  C   UNL     1       2.633   7.132  17.983  0.00  0.00    +0.000 C 
ATOM      4  N   UNL     1       2.269   7.105  19.393  0.00  0.00    +0.000 N 
ATOM      5  C   UNL     1       1.624   8.155  19.989  0.00  0.00    +0.000 A 
ATOM      6  N   UNL     1       1.355   9.257  19.266  0.00  0.00    +0.000 NA
ATOM      7  C   UNL     1       0.785  10.307  19.903  0.00  0.00    +0.000 A 
ATOM      8  C   UNL     1       0.477  10.309  21.239  0.00  0.00    +0.000 A 
ATOM      9 CL   UNL     1      -0.216  11.657  22.023  0.00  0.00    +0.000 Cl
ATOM     10  C   UNL     1       0.777   9.147  21.899  0.00  0.00    +0.000 A 
ATOM     11  N   UNL     1       1.334   8.070  21.301  0.00  0.00    +0.000 NA
ATOM     12  C   UNL     1       2.279   5.787  20.015  0.00  0.00    +0.000 C 
ATOM     13  C   UNL     1       3.675   5.149  19.858  0.00  0.00    +0.000 C 
ENDROOT
BRANCH   1  14
ATOM     14  C   UNL     1       4.527   4.018  17.790  0.00  0.00    +0.000 C 
BRANCH  14  17
ATOM     15  N   UNL     1       6.480   4.502  14.740  0.00  0.00    +0.000 N 
ATOM     16  C   UNL     1       5.271   4.355  15.347  0.00  0.00    +0.000 A 
ATOM     17  C   UNL     1       5.513   4.335  16.709  0.00  0.00    +0.000 A 
ATOM     18  C   UNL     1       6.897   4.652  16.814  0.00  0.00    +0.000 A 
ATOM     19  C   UNL     1       7.718   4.854  18.033  0.00  0.00    +0.000 C 
ATOM     20  N   UNL     1       7.481   4.746  15.609  0.00  0.00    +0.000 NA
BRANCH  15  21
ATOM     21  C   UNL     1       6.763   4.257  13.329  0.00  0.00    +0.000 C 
BRANCH  21  23
ATOM     22  C   UNL     1       5.849   2.513  11.762  0.00  0.00    +0.000 C 
ATOM     23  C   UNL     1       5.661   3.516  12.629  0.00  0.00    +0.000 C 
ENDBRANCH  21  23
ENDBRANCH  15  21
ENDBRANCH  14  17
ENDBRANCH   1  14
TORSDOF 4
ENDMDL
MODEL 2
REMARK VINA RESULT:      -7.4      1.602      3.475
REMARK  Name = 
REMARK  5 active torsions:
REMARK  status: ('A' for Active; 'I' for Inactive)
REMARK    1  A    between atoms: C_2  and  C_3
REMARK    2  A    between atoms: C_3  and  N_4
REMARK    3  A    between atoms: C_6  and  C_7
REMARK    4  A    between atoms: C_7  and  N_8
REMARK    5  A    between atoms: C_21  and  C_22
REMARK                            x       y       z     vdW  Elec       q    Type
REMARK                         _______ _______ _______ _____ _____    ______ ____
ROOT
ATOM      1  N   UNL     1       3.332   4.385  18.220  0.00  0.00    +0.000 NA
ATOM      2  C   UNL     1       2.688   4.390  19.535  0.00  0.00    +0.000 C 
ATOM      3  C   UNL     1       2.769   5.715  20.332  0.00  0.00    +0.000 C 
ATOM      4  N   UNL     1       2.511   6.842  19.445  0.00  0.00    +0.000 N 
ATOM      5  C   UNL     1       1.782   7.926  19.855  0.00  0.00    +0.000 A 
ATOM      6  N   UNL     1       1.255   7.934  21.092  0.00  0.00    +0.000 NA
ATOM      7  C   UNL     1       0.476   8.985  21.440  0.00  0.00    +0.000 A 
ATOM      8  C   UNL     1       0.191  10.031  20.600  0.00  0.00    +0.000 A 
ATOM      9 CL   UNL     1      -0.817  11.330  21.055  0.00  0.00    +0.000 Cl
ATOM     10  C   UNL     1       0.771   9.947  19.362  0.00  0.00    +0.000 A 
ATOM     11  N   UNL     1       1.566   8.923  18.977  0.00  0.00    +0.000 NA
ATOM     12  C   UNL     1       3.372   6.923  18.272  0.00  0.00    +0.000 C 
ATOM     13  C   UNL     1       3.258   5.621  17.453  0.00  0.00    +0.000 C 
ENDROOT
BRANCH   1  14
ATOM     14  C   UNL     1       4.430   3.469  17.982  0.00  0.00    +0.000 C 
BRANCH  14  17
ATOM     15  N   UNL     1       7.295   5.736  18.077  0.00  0.00    +0.000 N 
ATOM     16  C   UNL     1       6.345   5.018  18.737  0.00  0.00    +0.000 A 
ATOM     17  C   UNL     1       5.673   4.279  17.779  0.00  0.00    +0.000 A 
ATOM     18  C   UNL     1       6.421   4.503  16.589  0.00  0.00    +0.000 A 
ATOM     19  C   UNL     1       6.230   3.910  15.242  0.00  0.00    +0.000 C 
ATOM     20  N   UNL     1       7.404   5.397  16.777  0.00  0.00    +0.000 NA
BRANCH  15  21
ATOM     21  C   UNL     1       8.024   6.882  18.611  0.00  0.00    +0.000 C 
BRANCH  21  23
ATOM     22  C   UNL     1       8.357   9.324  18.101  0.00  0.00    +0.000 C 
ATOM     23  C   UNL     1       7.833   8.131  17.798  0.00  0.00    +0.000 C 
ENDBRANCH  21  23
ENDBRANCH  15  21
ENDBRANCH  14  17
ENDBRANCH   1  14
TORSDOF 4
ENDMDL
MODEL 3
REMARK VINA RESULT:      -7.0      0.734      1.594
REMARK  Name = 
REMARK  5 active torsions:
REMARK  status: ('A' for Active; 'I' for Inactive)
REMARK    1  A    between atoms: C_2  and  C_3
REMARK    2  A    between atoms: C_3  and  N_4
REMARK    3  A    between atoms: C_6  and  C_7
REMARK    4  A    between atoms: C_7  and  N_8
REMARK    5  A    between atoms: C_21  and  C_22
REMARK                            x       y       z     vdW  Elec       q    Type
REMARK                         _______ _______ _______ _____ _____    ______ ____
ROOT
ATOM      1  N   UNL     1       3.611   4.283  17.963  0.00  0.00    +0.000 NA
ATOM      2  C   UNL     1       2.836   4.181  19.201  0.00  0.00    +0.000 C 
ATOM      3  C   UNL     1       2.851   5.424  20.123  0.00  0.00    +0.000 C 
ATOM      4  N   UNL     1       2.698   6.634  19.325  0.00  0.00    +0.000 N 
ATOM      5  C   UNL     1       1.945   7.690  19.759  0.00  0.00    +0.000 A 
ATOM      6  N   UNL     1       1.294   7.596  20.932  0.00  0.00    +0.000 NA
ATOM      7  C   UNL     1       0.496   8.627  21.297  0.00  0.00    +0.000 A 
ATOM      8  C   UNL     1       0.312   9.751  20.535  0.00  0.00    +0.000 A 
ATOM      9 CL   UNL     1      -0.722  11.025  21.006  0.00  0.00    +0.000 Cl
ATOM     10  C   UNL     1       1.015   9.770  19.359  0.00  0.00    +0.000 A 
ATOM     11  N   UNL     1       1.833   8.769  18.962  0.00  0.00    +0.000 NA
ATOM     12  C   UNL     1       3.677   6.804  18.258  0.00  0.00    +0.000 C 
ATOM     13  C   UNL     1       3.632   5.586  17.312  0.00  0.00    +0.000 C 
ENDROOT
BRANCH   1  14
ATOM     14  C   UNL     1       4.716   3.369  17.752  0.00  0.00    +0.000 C 
BRANCH  14  17
ATOM     15  N   UNL     1       6.447   4.337  14.682  0.00  0.00    +0.000 N 
ATOM     16  C   UNL     1       5.321   3.889  15.303  0.00  0.00    +0.000 A 
ATOM     17  C   UNL     1       5.577   3.928  16.662  0.00  0.00    +0.000 A 
ATOM     18  C   UNL     1       6.838   4.583  16.752  0.00  0.00    +0.000 A 
ATOM     19  C   UNL     1       7.596   4.983  17.964  0.00  0.00    +0.000 C 
ATOM     20  N   UNL     1       7.364   4.824  15.541  0.00  0.00    +0.000 NA
BRANCH  15  21
ATOM     21  C   UNL     1       6.765   4.175  13.268  0.00  0.00    +0.000 C 
BRANCH  21  23
ATOM     22  C   UNL     1       5.705   2.469  11.753  0.00  0.00    +0.000 C 
ATOM     23  C   UNL     1       5.631   3.593  12.473  0.00  0.00    +0.000 C 
ENDBRANCH  21  23
ENDBRANCH  15  21
ENDBRANCH  14  17
ENDBRANCH   1  14
TORSDOF 4
ENDMDL
MODEL 4
REMARK VINA RESULT:      -7.0      1.045      1.813
REMARK  Name = 
REMARK  5 active torsions:
REMARK  status: ('A' for Active; 'I' for Inactive)
REMARK    1  A    between atoms: C_2  and  C_3
REMARK    2  A    between atoms: C_3  and  N_4
REMARK    3  A    between atoms: C_6  and  C_7
REMARK    4  A    between atoms: C_7  and  N_8
REMARK    5  A    between atoms: C_21  and  C_22
REMARK                            x       y       z     vdW  Elec       q    Type
REMARK                         _______ _______ _______ _____ _____    ______ ____
ROOT
ATOM      1  N   UNL     1       2.591   4.402  18.616  0.00  0.00    +0.000 NA
ATOM      2  C   UNL     1       2.136   4.512  20.003  0.00  0.00    +0.000 C 
ATOM      3  C   UNL     1       2.440   5.851  20.719  0.00  0.00    +0.000 C 
ATOM      4  N   UNL     1       2.162   6.966  19.823  0.00  0.00    +0.000 N 
ATOM      5  C   UNL     1       1.593   8.125  20.275  0.00  0.00    +0.000 A 
ATOM      6  N   UNL     1       1.242   8.226  21.569  0.00  0.00    +0.000 NA
ATOM      7  C   UNL     1       0.613   9.356  21.967  0.00  0.00    +0.000 A 
ATOM      8  C   UNL     1       0.307  10.393  21.125  0.00  0.00    +0.000 A 
ATOM      9 CL   UNL     1      -0.512  11.796  21.649  0.00  0.00    +0.000 Cl
ATOM     10  C   UNL     1       0.704  10.214  19.826  0.00  0.00    +0.000 A 
ATOM     11  N   UNL     1       1.347   9.108  19.388  0.00  0.00    +0.000 NA
ATOM     12  C   UNL     1       2.859   6.926  18.543  0.00  0.00    +0.000 C 
ATOM     13  C   UNL     1       2.521   5.613  17.808  0.00  0.00    +0.000 C 
ENDROOT
BRANCH   1  14
ATOM     14  C   UNL     1       3.563   3.381  18.277  0.00  0.00    +0.000 C 
BRANCH  14  17
ATOM     15  N   UNL     1       6.029   4.542  15.843  0.00  0.00    +0.000 N 
ATOM     16  C   UNL     1       4.811   3.995  16.109  0.00  0.00    +0.000 A 
ATOM     17  C   UNL     1       4.656   4.027  17.484  0.00  0.00    +0.000 A 
ATOM     18  C   UNL     1       5.780   4.775  17.936  0.00  0.00    +0.000 A 
ATOM     19  C   UNL     1       6.118   5.208  19.315  0.00  0.00    +0.000 C 
ATOM     20  N   UNL     1       6.614   5.080  16.931  0.00  0.00    +0.000 NA
BRANCH  15  21
ATOM     21  C   UNL     1       6.757   4.434  14.584  0.00  0.00    +0.000 C 
BRANCH  21  23
ATOM     22  C   UNL     1       6.398   3.438  12.301  0.00  0.00    +0.000 C 
ATOM     23  C   UNL     1       5.916   3.893  13.463  0.00  0.00    +0.000 C 
ENDBRANCH  21  23
ENDBRANCH  15  21
ENDBRANCH  14  17
ENDBRANCH   1  14
TORSDOF 4
ENDMDL
MODEL 5
REMARK VINA RESULT:      -7.0      0.642      1.040
REMARK  Name = 
REMARK  5 active torsions:
REMARK  status: ('A' for Active; 'I' for Inactive)
REMARK    1  A    between atoms: C_2  and  C_3
REMARK    2  A    between atoms: C_3  and  N_4
REMARK    3  A    between atoms: C_6  and  C_7
REMARK    4  A    between atoms: C_7  and  N_8
REMARK    5  A    between atoms: C_21  and  C_22
REMARK                            x       y       z     vdW  Elec       q    Type
REMARK                         _______ _______ _______ _____ _____    ______ ____
ROOT
ATOM      1  N   UNL     1       4.230   5.218  18.501  0.00  0.00    +0.000 NA
ATOM      2  C   UNL     1       4.023   6.481  17.790  0.00  0.00    +0.000 C 
ATOM      3  C   UNL     1       2.640   7.152  17.975  0.00  0.00    +0.000 C 
ATOM      4  N   UNL     1       2.244   7.089  19.376  0.00  0.00    +0.000 N 
ATOM      5  C   UNL     1       1.599   8.130  19.987  0.00  0.00    +0.000 A 
ATOM      6  N   UNL     1       1.363   9.257  19.292  0.00  0.00    +0.000 NA
ATOM      7  C   UNL     1       0.793  10.295  19.947  0.00  0.00    +0.000 A 
ATOM      8  C   UNL     1       0.455  10.263  21.275  0.00  0.00    +0.000 A 
ATOM      9 CL   UNL     1      -0.238  11.597  22.083  0.00  0.00    +0.000 Cl
ATOM     10  C   UNL     1       0.724   9.078  21.907  0.00  0.00    +0.000 A 
ATOM     11  N   UNL     1       1.279   8.011  21.289  0.00  0.00    +0.000 NA
ATOM     12  C   UNL     1       2.221   5.753  19.958  0.00  0.00    +0.000 C 
ATOM     13  C   UNL     1       3.611   5.100  19.814  0.00  0.00    +0.000 C 
ENDROOT
BRANCH   1  14
ATOM     14  C   UNL     1       4.495   4.018  17.733  0.00  0.00    +0.000 C 
BRANCH  14  17
ATOM     15  N   UNL     1       6.513   4.566  14.735  0.00  0.00    +0.000 N 
ATOM     16  C   UNL     1       5.290   4.417  15.315  0.00  0.00    +0.000 A 
ATOM     17  C   UNL     1       5.506   4.354  16.681  0.00  0.00    +0.000 A 
ATOM     18  C   UNL     1       6.892   4.650  16.820  0.00  0.00    +0.000 A 
ATOM     19  C   UNL     1       7.691   4.805  18.061  0.00  0.00    +0.000 C 
ATOM     20  N   UNL     1       7.499   4.771  15.630  0.00  0.00    +0.000 NA
BRANCH  15  21
ATOM     21  C   UNL     1       6.819   4.359  13.324  0.00  0.00    +0.000 C 
BRANCH  21  23
ATOM     22  C   UNL     1       7.912   6.022  11.784  0.00  0.00    +0.000 C 
ATOM     23  C   UNL     1       7.964   5.204  12.841  0.00  0.00    +0.000 C 
ENDBRANCH  21  23
ENDBRANCH  15  21
ENDBRANCH  14  17
ENDBRANCH   1  14
TORSDOF 4
ENDMDL
MODEL 6
REMARK VINA RESULT:      -6.9      2.735      3.634
REMARK  Name = 
REMARK  5 active torsions:
REMARK  status: ('A' for Active; 'I' for Inactive)
REMARK    1  A    between atoms: C_2  and  C_3
REMARK    2  A    between atoms: C_3  and  N_4
REMARK    3  A    between atoms: C_6  and  C_7
REMARK    4  A    between atoms: C_7  and  N_8
REMARK    5  A    between atoms: C_21  and  C_22
REMARK                            x       y       z     vdW  Elec       q    Type
REMARK                         _______ _______ _______ _____ _____    ______ ____
ROOT
ATOM      1  N   UNL     1       2.175   5.567  18.107  0.00  0.00    +0.000 NA
ATOM      2  C   UNL     1       1.826   5.326  19.508  0.00  0.00    +0.000 C 
ATOM      3  C   UNL     1       2.124   6.480  20.496  0.00  0.00    +0.000 C 
ATOM      4  N   UNL     1       1.724   7.751  19.907  0.00  0.00    +0.000 N 
ATOM      5  C   UNL     1       1.140   8.737  20.654  0.00  0.00    +0.000 A 
ATOM      6  N   UNL     1       0.889   8.514  21.957  0.00  0.00    +0.000 NA
ATOM      7  C   UNL     1       0.241   9.480  22.650  0.00  0.00    +0.000 A 
ATOM      8  C   UNL     1      -0.178  10.661  22.096  0.00  0.00    +0.000 A 
ATOM      9 CL   UNL     1      -1.017  11.851  22.987  0.00  0.00    +0.000 Cl
ATOM     10  C   UNL     1       0.122  10.811  20.768  0.00  0.00    +0.000 A 
ATOM     11  N   UNL     1       0.779   9.880  20.041  0.00  0.00    +0.000 NA
ATOM     12  C   UNL     1       2.318   8.052  18.610  0.00  0.00    +0.000 C 
ATOM     13  C   UNL     1       1.984   6.923  17.612  0.00  0.00    +0.000 C 
ENDROOT
BRANCH   1  14
ATOM     14  C   UNL     1       3.162   4.715  17.474  0.00  0.00    +0.000 C 
BRANCH  14  17
ATOM     15  N   UNL     1       6.478   5.723  18.632  0.00  0.00    +0.000 N 
ATOM     16  C   UNL     1       5.330   6.018  17.963  0.00  0.00    +0.000 A 
ATOM     17  C   UNL     1       4.476   4.945  18.153  0.00  0.00    +0.000 A 
ATOM     18  C   UNL     1       5.158   4.132  19.102  0.00  0.00    +0.000 A 
ATOM     19  C   UNL     1       4.702   2.880  19.755  0.00  0.00    +0.000 C 
ATOM     20  N   UNL     1       6.380   4.610  19.384  0.00  0.00    +0.000 NA
BRANCH  15  21
ATOM     21  C   UNL     1       7.763   6.393  18.459  0.00  0.00    +0.000 C 
BRANCH  21  23
ATOM     22  C   UNL     1       8.202   8.820  17.957  0.00  0.00    +0.000 C 
ATOM     23  C   UNL     1       7.669   7.638  17.624  0.00  0.00    +0.000 C 
ENDBRANCH  21  23
ENDBRANCH  15  21
ENDBRANCH  14  17
ENDBRANCH   1  14
TORSDOF 4
ENDMDL
MODEL 7
REMARK VINA RESULT:      -6.9      3.221      4.711
REMARK  Name = 
REMARK  5 active torsions:
REMARK  status: ('A' for Active; 'I' for Inactive)
REMARK    1  A    between atoms: C_2  and  C_3
REMARK    2  A    between atoms: C_3  and  N_4
REMARK    3  A    between atoms: C_6  and  C_7
REMARK    4  A    between atoms: C_7  and  N_8
REMARK    5  A    between atoms: C_21  and  C_22
REMARK                            x       y       z     vdW  Elec       q    Type
REMARK                         _______ _______ _______ _____ _____    ______ ____
ROOT
ATOM      1  N   UNL     1       2.080   7.800  18.639  0.00  0.00    +0.000 NA
ATOM      2  C   UNL     1       1.826   7.493  20.047  0.00  0.00    +0.000 C 
ATOM      3  C   UNL     1       1.691   8.708  20.999  0.00  0.00    +0.000 C 
ATOM      4  N   UNL     1       0.876   9.740  20.371  0.00  0.00    +0.000 N 
ATOM      5  C   UNL     1      -0.023  10.480  21.088  0.00  0.00    +0.000 A 
ATOM      6  N   UNL     1      -0.192  10.222  22.397  0.00  0.00    +0.000 NA
ATOM      7  C   UNL     1      -1.144  10.919  23.061  0.00  0.00    +0.000 A 
ATOM      8  C   UNL     1      -1.945  11.862  22.472  0.00  0.00    +0.000 A 
ATOM      9 CL   UNL     1      -3.156  12.708  23.327  0.00  0.00    +0.000 Cl
ATOM     10  C   UNL     1      -1.705  12.068  21.139  0.00  0.00    +0.000 A 
ATOM     11  N   UNL     1      -0.756  11.405  20.440  0.00  0.00    +0.000 NA
ATOM     12  C   UNL     1       1.339  10.191  19.064  0.00  0.00    +0.000 C 
ATOM     13  C   UNL     1       1.431   8.988  18.102  0.00  0.00    +0.000 C 
ENDROOT
BRANCH   1  14
ATOM     14  C   UNL     1       3.310   7.330  18.031  0.00  0.00    +0.000 C 
BRANCH  14  17
ATOM     15  N   UNL     1       2.742   3.730  18.312  0.00  0.00    +0.000 N 
ATOM     16  C   UNL     1       2.343   4.949  17.853  0.00  0.00    +0.000 A 
ATOM     17  C   UNL     1       3.354   5.840  18.169  0.00  0.00    +0.000 A 
ATOM     18  C   UNL     1       4.396   5.008  18.670  0.00  0.00    +0.000 A 
ATOM     19  C   UNL     1       5.766   5.387  19.098  0.00  0.00    +0.000 C 
ATOM     20  N   UNL     1       4.013   3.725  18.759  0.00  0.00    +0.000 NA
BRANCH  15  21
ATOM     21  C   UNL     1       1.885   2.564  18.494  0.00  0.00    +0.000 C 
BRANCH  21  23
ATOM     22  C   UNL     1       1.162   3.010  20.863  0.00  0.00    +0.000 C 
ATOM     23  C   UNL     1       0.868   2.747  19.585  0.00  0.00    +0.000 C 
ENDBRANCH  21  23
ENDBRANCH  15  21
ENDBRANCH  14  17
ENDBRANCH   1  14
TORSDOF 4
ENDMDL
MODEL 8
REMARK VINA RESULT:      -6.7      1.129      1.846
REMARK  Name = 
REMARK  5 active torsions:
REMARK  status: ('A' for Active; 'I' for Inactive)
REMARK    1  A    between atoms: C_2  and  C_3
REMARK    2  A    between atoms: C_3  and  N_4
REMARK    3  A    between atoms: C_6  and  C_7
REMARK    4  A    between atoms: C_7  and  N_8
REMARK    5  A    between atoms: C_21  and  C_22
REMARK                            x       y       z     vdW  Elec       q    Type
REMARK                         _______ _______ _______ _____ _____    ______ ____
ROOT
ATOM      1  N   UNL     1       3.561   5.235  18.371  0.00  0.00    +0.000 NA
ATOM      2  C   UNL     1       2.756   5.310  19.591  0.00  0.00    +0.000 C 
ATOM      3  C   UNL     1       2.571   6.720  20.204  0.00  0.00    +0.000 C 
ATOM      4  N   UNL     1       2.294   7.686  19.148  0.00  0.00    +0.000 N 
ATOM      5  C   UNL     1       1.393   8.700  19.321  0.00  0.00    +0.000 A 
ATOM      6  N   UNL     1       0.712   8.785  20.478  0.00  0.00    +0.000 NA
ATOM      7  C   UNL     1      -0.227   9.753  20.589  0.00  0.00    +0.000 A 
ATOM      8  C   UNL     1      -0.526  10.641  19.587  0.00  0.00    +0.000 A 
ATOM      9 CL   UNL     1      -1.735  11.835  19.744  0.00  0.00    +0.000 Cl
ATOM     10  C   UNL     1       0.216  10.489  18.446  0.00  0.00    +0.000 A 
ATOM     11  N   UNL     1       1.173   9.546  18.297  0.00  0.00    +0.000 NA
ATOM     12  C   UNL     1       3.285   7.742  18.080  0.00  0.00    +0.000 C 
ATOM     13  C   UNL     1       3.438   6.348  17.439  0.00  0.00    +0.000 C 
ENDROOT
BRANCH   1  14
ATOM     14  C   UNL     1       4.784   4.457  18.386  0.00  0.00    +0.000 C 
BRANCH  14  17
ATOM     15  N   UNL     1       6.535   5.075  15.239  0.00  0.00    +0.000 N 
ATOM     16  C   UNL     1       5.428   4.637  15.898  0.00  0.00    +0.000 A 
ATOM     17  C   UNL     1       5.634   4.908  17.240  0.00  0.00    +0.000 A 
ATOM     18  C   UNL     1       6.836   5.672  17.251  0.00  0.00    +0.000 A 
ATOM     19  C   UNL     1       7.519   6.318  18.400  0.00  0.00    +0.000 C 
ATOM     20  N   UNL     1       7.382   5.764  16.029  0.00  0.00    +0.000 NA
BRANCH  15  21
ATOM     21  C   UNL     1       6.912   4.721  13.874  0.00  0.00    +0.000 C 
BRANCH  21  23
ATOM     22  C   UNL     1       6.002   3.292  12.014  0.00  0.00    +0.000 C 
ATOM     23  C   UNL     1       6.102   3.587  13.316  0.00  0.00    +0.000 C 
ENDBRANCH  21  23
ENDBRANCH  15  21
ENDBRANCH  14  17
ENDBRANCH   1  14
TORSDOF 4
ENDMDL
MODEL 9
REMARK VINA RESULT:      -6.5      2.131      3.577
REMARK  Name = 
REMARK  5 active torsions:
REMARK  status: ('A' for Active; 'I' for Inactive)
REMARK    1  A    between atoms: C_2  and  C_3
REMARK    2  A    between atoms: C_3  and  N_4
REMARK    3  A    between atoms: C_6  and  C_7
REMARK    4  A    between atoms: C_7  and  N_8
REMARK    5  A    between atoms: C_21  and  C_22
REMARK                            x       y       z     vdW  Elec       q    Type
REMARK                         _______ _______ _______ _____ _____    ______ ____
ROOT
ATOM      1  N   UNL     1       2.458   7.340  19.025  0.00  0.00    +0.000 NA
ATOM      2  C   UNL     1       2.533   8.369  17.987  0.00  0.00    +0.000 C 
ATOM      3  C   UNL     1       1.400   9.424  17.985  0.00  0.00    +0.000 C 
ATOM      4  N   UNL     1       1.122   9.855  19.349  0.00  0.00    +0.000 N 
ATOM      5  C   UNL     1       0.832  11.158  19.645  0.00  0.00    +0.000 A 
ATOM      6  N   UNL     1       0.845  12.075  18.661  0.00  0.00    +0.000 NA
ATOM      7  C   UNL     1       0.629  13.368  18.999  0.00  0.00    +0.000 A 
ATOM      8  C   UNL     1       0.410  13.791  20.284  0.00  0.00    +0.000 A 
ATOM      9 CL   UNL     1       0.168  15.432  20.686  0.00  0.00    +0.000 Cl
ATOM     10  C   UNL     1       0.407  12.795  21.224  0.00  0.00    +0.000 A 
ATOM     11  N   UNL     1       0.604  11.490  20.929  0.00  0.00    +0.000 NA
ATOM     12  C   UNL     1       0.795   8.787  20.286  0.00  0.00    +0.000 C 
ATOM     13  C   UNL     1       1.945   7.758  20.323  0.00  0.00    +0.000 C 
ENDROOT
BRANCH   1  14
ATOM     14  C   UNL     1       2.328   5.952  18.627  0.00  0.00    +0.000 C 
BRANCH  14  17
ATOM     15  N   UNL     1       5.784   4.784  18.421  0.00  0.00    +0.000 N 
ATOM     16  C   UNL     1       4.867   5.772  18.232  0.00  0.00    +0.000 A 
ATOM     17  C   UNL     1       3.672   5.306  18.753  0.00  0.00    +0.000 A 
ATOM     18  C   UNL     1       4.032   4.083  19.388  0.00  0.00    +0.000 A 
ATOM     19  C   UNL     1       3.185   3.165  20.189  0.00  0.00    +0.000 C 
ATOM     20  N   UNL     1       5.319   3.770  19.176  0.00  0.00    +0.000 NA
BRANCH  15  21
ATOM     21  C   UNL     1       7.082   4.687  17.762  0.00  0.00    +0.000 C 
BRANCH  21  23
ATOM     22  C   UNL     1       6.864   4.443  15.267  0.00  0.00    +0.000 C 
ATOM     23  C   UNL     1       7.065   5.201  16.351  0.00  0.00    +0.000 C 
ENDBRANCH  21  23
ENDBRANCH  15  21
ENDBRANCH  14  17
ENDBRANCH   1  14
TORSDOF 4
ENDMDL
