MODEL 1
REMARK VINA RESULT:      -8.3      0.000      0.000
REMARK  Name = 
REMARK  5 active torsions:
REMARK  status: ('A' for Active; 'I' for Inactive)
REMARK    1  A    between atoms: C_1  and  C_2
REMARK    2  A    between atoms: N_4  and  C_5
REMARK    3  A    between atoms: C_5  and  C_6
REMARK    4  A    between atoms: C_17  and  C_18
REMARK    5  A    between atoms: N_20  and  C_21
REMARK                            x       y       z     vdW  Elec       q    Type
REMARK                         _______ _______ _______ _____ _____    ______ ____
ROOT
ATOM      1  C   UNL     1      -0.946  10.440  23.177  0.00  0.00    +0.000 C 
ATOM      2  C   UNL     1      -0.553  10.527  21.746  0.00  0.00    +0.000 A 
ATOM      3  C   UNL     1      -0.969  11.485  20.844  0.00  0.00    +0.000 A 
ATOM      4  N   UNL     1      -0.372  11.238  19.632  0.00  0.00    +0.000 N 
ATOM      5  C   UNL     1       0.399  10.099  19.718  0.00  0.00    +0.000 A 
ATOM      6  C   UNL     1       1.168   9.443  18.749  0.00  0.00    +0.000 A 
ATOM      7  C   UNL     1       1.904   8.316  19.134  0.00  0.00    +0.000 A 
ATOM      8  C   UNL     1       1.878   7.860  20.452  0.00  0.00    +0.000 A 
ATOM      9  C   UNL     1       1.093   8.518  21.411  0.00  0.00    +0.000 A 
ATOM     10  C   UNL     1       0.332   9.651  21.040  0.00  0.00    +0.000 A 
ENDROOT
BRANCH   7  11
ATOM     11  C   UNL     1       2.753   7.674  18.096  0.00  0.00    +0.000 C 
ATOM     12  O   UNL     1       2.707   8.083  16.940  0.00  0.00    +0.000 OA
ATOM     13  N   UNL     1       3.453   6.548  18.502  0.00  0.00    +0.000 N 
ATOM     14  H   UNL     1       2.966   5.988  19.196  0.00  0.00    +0.000 HD
BRANCH  13  15
ATOM     15  C   UNL     1       4.279   5.847  17.583  0.00  0.00    +0.000 A 
ATOM     16  C   UNL     1       5.504   6.357  17.122  0.00  0.00    +0.000 A 
ATOM     17 CL   UNL     1       6.218   7.807  17.739  0.00  0.00    +0.000 Cl
ATOM     18  C   UNL     1       6.265   5.625  16.212  0.00  0.00    +0.000 A 
ATOM     19  N   UNL     1       5.847   4.392  15.762  0.00  0.00    +0.000 N 
ATOM     20  O   UNL     1       6.558   3.728  14.951  0.00  0.00    +0.000 OA
ATOM     21  C   UNL     1       4.654   3.878  16.226  0.00  0.00    +0.000 A 
ATOM     22  C   UNL     1       3.875   4.584  17.134  0.00  0.00    +0.000 A 
ATOM     23 CL   UNL     1       2.376   3.887  17.638  0.00  0.00    +0.000 Cl
ENDBRANCH  13  15
ENDBRANCH   7  11
BRANCH   4  24
ATOM     24  C   UNL     1      -0.473  12.111  18.463  0.00  0.00    +0.000 C 
BRANCH  24  25
ATOM     25  C   UNL     1       0.469  13.287  18.556  0.00  0.00    +0.000 A 
ATOM     26  C   UNL     1       1.845  13.146  18.249  0.00  0.00    +0.000 A 
ATOM     27  C   UNL     1       2.709  14.245  18.286  0.00  0.00    +0.000 A 
ATOM     28  C   UNL     1       2.170  15.470  18.608  0.00  0.00    +0.000 A 
ATOM     29  C   UNL     1       0.843  15.614  18.933  0.00  0.00    +0.000 A 
ATOM     30  C   UNL     1      -0.023  14.545  18.940  0.00  0.00    +0.000 A 
ATOM     31  O   UNL     1       0.507  16.904  19.197  0.00  0.00    +0.000 OA
ATOM     32  C   UNL     1       1.716  17.567  18.776  0.00  0.00    +0.000 C 
ATOM     33  O   UNL     1       2.830  16.661  18.623  0.00  0.00    +0.000 OA
ENDBRANCH  24  25
ENDBRANCH   4  24
TORSDOF 4
ENDMDL
MODEL 2
REMARK VINA RESULT:      -8.2      0.737      1.390
REMARK  Name = 
REMARK  5 active torsions:
REMARK  status: ('A' for Active; 'I' for Inactive)
REMARK    1  A    between atoms: C_1  and  C_2
REMARK    2  A    between atoms: N_4  and  C_5
REMARK    3  A    between atoms: C_5  and  C_6
REMARK    4  A    between atoms: C_17  and  C_18
REMARK    5  A    between atoms: N_20  and  C_21
REMARK                            x       y       z     vdW  Elec       q    Type
REMARK                         _______ _______ _______ _____ _____    ______ ____
ROOT
ATOM      1  C   UNL     1      -1.091  10.867  23.155  0.00  0.00    +0.000 C 
ATOM      2  C   UNL     1      -0.667  10.893  21.731  0.00  0.00    +0.000 A 
ATOM      3  C   UNL     1      -1.014  11.848  20.795  0.00  0.00    +0.000 A 
ATOM      4  N   UNL     1      -0.407  11.536  19.603  0.00  0.00    +0.000 N 
ATOM      5  C   UNL     1       0.299  10.361  19.734  0.00  0.00    +0.000 A 
ATOM      6  C   UNL     1       1.050   9.639  18.798  0.00  0.00    +0.000 A 
ATOM      7  C   UNL     1       1.717   8.485  19.228  0.00  0.00    +0.000 A 
ATOM      8  C   UNL     1       1.641   8.067  20.557  0.00  0.00    +0.000 A 
ATOM      9  C   UNL     1       0.874   8.792  21.482  0.00  0.00    +0.000 A 
ATOM     10  C   UNL     1       0.183   9.953  21.066  0.00  0.00    +0.000 A 
ENDROOT
BRANCH   7  11
ATOM     11  C   UNL     1       2.549   7.771  18.224  0.00  0.00    +0.000 C 
ATOM     12  O   UNL     1       2.566   8.166  17.063  0.00  0.00    +0.000 OA
ATOM     13  N   UNL     1       3.157   6.605  18.665  0.00  0.00    +0.000 N 
ATOM     14  H   UNL     1       2.611   6.090  19.350  0.00  0.00    +0.000 HD
BRANCH  13  15
ATOM     15  C   UNL     1       3.959   5.835  17.781  0.00  0.00    +0.000 A 
ATOM     16  C   UNL     1       5.200   6.282  17.298  0.00  0.00    +0.000 A 
ATOM     17 CL   UNL     1       5.962   7.736  17.848  0.00  0.00    +0.000 Cl
ATOM     18  C   UNL     1       5.936   5.485  16.424  0.00  0.00    +0.000 A 
ATOM     19  N   UNL     1       5.477   4.246  16.031  0.00  0.00    +0.000 N 
ATOM     20  O   UNL     1       6.166   3.522  15.253  0.00  0.00    +0.000 OA
ATOM     21  C   UNL     1       4.268   3.794  16.517  0.00  0.00    +0.000 A 
ATOM     22  C   UNL     1       3.513   4.567  17.391  0.00  0.00    +0.000 A 
ATOM     23 CL   UNL     1       1.992   3.943  17.925  0.00  0.00    +0.000 Cl
ENDBRANCH  13  15
ENDBRANCH   7  11
BRANCH   4  24
ATOM     24  C   UNL     1      -0.439  12.382  18.410  0.00  0.00    +0.000 C 
BRANCH  24  25
ATOM     25  C   UNL     1       0.562  13.508  18.491  0.00  0.00    +0.000 A 
ATOM     26  C   UNL     1       0.165  14.814  18.873  0.00  0.00    +0.000 A 
ATOM     27  C   UNL     1       1.100  15.845  18.996  0.00  0.00    +0.000 A 
ATOM     28  C   UNL     1       2.421  15.542  18.758  0.00  0.00    +0.000 A 
ATOM     29  C   UNL     1       2.815  14.286  18.362  0.00  0.00    +0.000 A 
ATOM     30  C   UNL     1       1.913  13.260  18.197  0.00  0.00    +0.000 A 
ATOM     31  O   UNL     1       4.161  14.188  18.200  0.00  0.00    +0.000 OA
ATOM     32  C   UNL     1       4.572  15.452  18.760  0.00  0.00    +0.000 C 
ATOM     33  O   UNL     1       3.480  16.386  18.899  0.00  0.00    +0.000 OA
ENDBRANCH  24  25
ENDBRANCH   4  24
TORSDOF 4
ENDMDL
MODEL 3
REMARK VINA RESULT:      -7.9      2.821      3.763
REMARK  Name = 
REMARK  5 active torsions:
REMARK  status: ('A' for Active; 'I' for Inactive)
REMARK    1  A    between atoms: C_1  and  C_2
REMARK    2  A    between atoms: N_4  and  C_5
REMARK    3  A    between atoms: C_5  and  C_6
REMARK    4  A    between atoms: C_17  and  C_18
REMARK    5  A    between atoms: N_20  and  C_21
REMARK                            x       y       z     vdW  Elec       q    Type
REMARK                         _______ _______ _______ _____ _____    ______ ____
ROOT
ATOM      1  C   UNL     1      -0.485   9.660  23.404  0.00  0.00    +0.000 C 
ATOM      2  C   UNL     1      -0.174   9.858  21.964  0.00  0.00    +0.000 A 
ATOM      3  C   UNL     1      -0.670  10.860  21.154  0.00  0.00    +0.000 A 
ATOM      4  N   UNL     1      -0.133  10.718  19.898  0.00  0.00    +0.000 N 
ATOM      5  C   UNL     1       0.677   9.604  19.863  0.00  0.00    +0.000 A 
ATOM      6  C   UNL     1       1.412   9.044  18.811  0.00  0.00    +0.000 A 
ATOM      7  C   UNL     1       2.204   7.920  19.077  0.00  0.00    +0.000 A 
ATOM      8  C   UNL     1       2.264   7.373  20.359  0.00  0.00    +0.000 A 
ATOM      9  C   UNL     1       1.513   7.936  21.402  0.00  0.00    +0.000 A 
ATOM     10  C   UNL     1       0.698   9.064  21.152  0.00  0.00    +0.000 A 
ENDROOT
BRANCH   7  11
ATOM     11  C   UNL     1       3.013   7.380  17.953  0.00  0.00    +0.000 C 
ATOM     12  O   UNL     1       2.870   7.846  16.827  0.00  0.00    +0.000 OA
ATOM     13  N   UNL     1       3.797   6.276  18.250  0.00  0.00    +0.000 N 
ATOM     14  H   UNL     1       3.386   5.653  18.941  0.00  0.00    +0.000 HD
BRANCH  13  15
ATOM     15  C   UNL     1       4.595   5.670  17.243  0.00  0.00    +0.000 A 
ATOM     16  C   UNL     1       5.794   6.238  16.781  0.00  0.00    +0.000 A 
ATOM     17 CL   UNL     1       6.512   7.643  17.493  0.00  0.00    +0.000 Cl
ATOM     18  C   UNL     1       6.528   5.601  15.783  0.00  0.00    +0.000 A 
ATOM     19  N   UNL     1       6.109   4.404  15.244  0.00  0.00    +0.000 N 
ATOM     20  O   UNL     1       6.796   3.824  14.352  0.00  0.00    +0.000 OA
ATOM     21  C   UNL     1       4.943   3.831  15.707  0.00  0.00    +0.000 A 
ATOM     22  C   UNL     1       4.191   4.443  16.702  0.00  0.00    +0.000 A 
ATOM     23 CL   UNL     1       2.723   3.680  17.202  0.00  0.00    +0.000 Cl
ENDBRANCH  13  15
ENDBRANCH   7  11
BRANCH   4  24
ATOM     24  C   UNL     1      -0.326  11.665  18.801  0.00  0.00    +0.000 C 
BRANCH  24  25
ATOM     25  C   UNL     1      -1.730  11.607  18.248  0.00  0.00    +0.000 A 
ATOM     26  C   UNL     1      -1.990  11.050  16.972  0.00  0.00    +0.000 A 
ATOM     27  C   UNL     1      -3.295  10.951  16.480  0.00  0.00    +0.000 A 
ATOM     28  C   UNL     1      -4.318  11.392  17.289  0.00  0.00    +0.000 A 
ATOM     29  C   UNL     1      -4.075  11.958  18.518  0.00  0.00    +0.000 A 
ATOM     30  C   UNL     1      -2.799  12.102  19.013  0.00  0.00    +0.000 A 
ATOM     31  O   UNL     1      -5.217  12.307  19.167  0.00  0.00    +0.000 OA
ATOM     32  C   UNL     1      -6.192  11.685  18.305  0.00  0.00    +0.000 C 
ATOM     33  O   UNL     1      -5.650  11.311  17.021  0.00  0.00    +0.000 OA
ENDBRANCH  24  25
ENDBRANCH   4  24
TORSDOF 4
ENDMDL
MODEL 4
REMARK VINA RESULT:      -7.9      0.252      1.629
REMARK  Name = 
REMARK  5 active torsions:
REMARK  status: ('A' for Active; 'I' for Inactive)
REMARK    1  A    between atoms: C_1  and  C_2
REMARK    2  A    between atoms: N_4  and  C_5
REMARK    3  A    between atoms: C_5  and  C_6
REMARK    4  A    between atoms: C_17  and  C_18
REMARK    5  A    between atoms: N_20  and  C_21
REMARK                            x       y       z     vdW  Elec       q    Type
REMARK                         _______ _______ _______ _____ _____    ______ ____
ROOT
ATOM      1  C   UNL     1      -0.855  10.327  23.180  0.00  0.00    +0.000 C 
ATOM      2  C   UNL     1      -0.447  10.429  21.755  0.00  0.00    +0.000 A 
ATOM      3  C   UNL     1      -0.827  11.416  20.868  0.00  0.00    +0.000 A 
ATOM      4  N   UNL     1      -0.226  11.175  19.657  0.00  0.00    +0.000 N 
ATOM      5  C   UNL     1       0.510  10.012  19.726  0.00  0.00    +0.000 A 
ATOM      6  C   UNL     1       1.268   9.353  18.751  0.00  0.00    +0.000 A 
ATOM      7  C   UNL     1       1.967   8.197  19.120  0.00  0.00    +0.000 A 
ATOM      8  C   UNL     1       1.915   7.716  20.429  0.00  0.00    +0.000 A 
ATOM      9  C   UNL     1       1.141   8.379  21.394  0.00  0.00    +0.000 A 
ATOM     10  C   UNL     1       0.418   9.541  21.039  0.00  0.00    +0.000 A 
ENDROOT
BRANCH   7  11
ATOM     11  C   UNL     1       2.805   7.550  18.077  0.00  0.00    +0.000 C 
ATOM     12  O   UNL     1       2.720   7.929  16.913  0.00  0.00    +0.000 OA
ATOM     13  N   UNL     1       3.543   6.452  18.492  0.00  0.00    +0.000 N 
ATOM     14  H   UNL     1       3.087   5.897  19.211  0.00  0.00    +0.000 HD
BRANCH  13  15
ATOM     15  C   UNL     1       4.363   5.748  17.570  0.00  0.00    +0.000 A 
ATOM     16  C   UNL     1       4.004   4.501  17.032  0.00  0.00    +0.000 A 
ATOM     17 CL   UNL     1       2.462   3.763  17.302  0.00  0.00    +0.000 Cl
ATOM     18  C   UNL     1       4.856   3.856  16.139  0.00  0.00    +0.000 A 
ATOM     19  N   UNL     1       6.050   4.426  15.754  0.00  0.00    +0.000 N 
ATOM     20  O   UNL     1       6.806   3.839  14.925  0.00  0.00    +0.000 OA
ATOM     21  C   UNL     1       6.400   5.660  16.264  0.00  0.00    +0.000 A 
ATOM     22  C   UNL     1       5.569   6.327  17.155  0.00  0.00    +0.000 A 
ATOM     23 CL   UNL     1       6.096   7.851  17.776  0.00  0.00    +0.000 Cl
ENDBRANCH  13  15
ENDBRANCH   7  11
BRANCH   4  24
ATOM     24  C   UNL     1      -0.292  12.073  18.504  0.00  0.00    +0.000 C 
BRANCH  24  25
ATOM     25  C   UNL     1       0.700  13.205  18.617  0.00  0.00    +0.000 A 
ATOM     26  C   UNL     1       2.052  13.034  18.230  0.00  0.00    +0.000 A 
ATOM     27  C   UNL     1       2.959  14.095  18.287  0.00  0.00    +0.000 A 
ATOM     28  C   UNL     1       2.487  15.318  18.708  0.00  0.00    +0.000 A 
ATOM     29  C   UNL     1       1.184  15.490  19.111  0.00  0.00    +0.000 A 
ATOM     30  C   UNL     1       0.278  14.455  19.099  0.00  0.00    +0.000 A 
ATOM     31  O   UNL     1       0.914  16.773  19.468  0.00  0.00    +0.000 OA
ATOM     32  C   UNL     1       2.125  17.416  19.024  0.00  0.00    +0.000 C 
ATOM     33  O   UNL     1       3.193  16.480  18.759  0.00  0.00    +0.000 OA
ENDBRANCH  24  25
ENDBRANCH   4  24
TORSDOF 4
ENDMDL
MODEL 5
REMARK VINA RESULT:      -7.8      0.781      2.160
REMARK  Name = 
REMARK  5 active torsions:
REMARK  status: ('A' for Active; 'I' for Inactive)
REMARK    1  A    between atoms: C_1  and  C_2
REMARK    2  A    between atoms: N_4  and  C_5
REMARK    3  A    between atoms: C_5  and  C_6
REMARK    4  A    between atoms: C_17  and  C_18
REMARK    5  A    between atoms: N_20  and  C_21
REMARK                            x       y       z     vdW  Elec       q    Type
REMARK                         _______ _______ _______ _____ _____    ______ ____
ROOT
ATOM      1  C   UNL     1      -0.940  10.902  23.098  0.00  0.00    +0.000 C 
ATOM      2  C   UNL     1      -0.512  10.917  21.676  0.00  0.00    +0.000 A 
ATOM      3  C   UNL     1      -0.825  11.884  20.741  0.00  0.00    +0.000 A 
ATOM      4  N   UNL     1      -0.226  11.554  19.550  0.00  0.00    +0.000 N 
ATOM      5  C   UNL     1       0.440  10.356  19.680  0.00  0.00    +0.000 A 
ATOM      6  C   UNL     1       1.169   9.611  18.745  0.00  0.00    +0.000 A 
ATOM      7  C   UNL     1       1.796   8.435  19.174  0.00  0.00    +0.000 A 
ATOM      8  C   UNL     1       1.702   8.016  20.502  0.00  0.00    +0.000 A 
ATOM      9  C   UNL     1       0.958   8.765  21.426  0.00  0.00    +0.000 A 
ATOM     10  C   UNL     1       0.307   9.950  21.011  0.00  0.00    +0.000 A 
ENDROOT
BRANCH   7  11
ATOM     11  C   UNL     1       2.606   7.694  18.171  0.00  0.00    +0.000 C 
ATOM     12  O   UNL     1       2.563   8.032  16.992  0.00  0.00    +0.000 OA
ATOM     13  N   UNL     1       3.265   6.569  18.641  0.00  0.00    +0.000 N 
ATOM     14  H   UNL     1       2.764   6.073  19.373  0.00  0.00    +0.000 HD
BRANCH  13  15
ATOM     15  C   UNL     1       4.052   5.778  17.761  0.00  0.00    +0.000 A 
ATOM     16  C   UNL     1       3.636   4.521  17.293  0.00  0.00    +0.000 A 
ATOM     17 CL   UNL     1       2.062   3.870  17.601  0.00  0.00    +0.000 Cl
ATOM     18  C   UNL     1       4.458   3.789  16.439  0.00  0.00    +0.000 A 
ATOM     19  N   UNL     1       5.676   4.281  16.025  0.00  0.00    +0.000 N 
ATOM     20  O   UNL     1       6.404   3.615  15.232  0.00  0.00    +0.000 OA
ATOM     21  C   UNL     1       6.082   5.524  16.466  0.00  0.00    +0.000 A 
ATOM     22  C   UNL     1       5.283   6.277  17.317  0.00  0.00    +0.000 A 
ATOM     23 CL   UNL     1       5.880   7.808  17.853  0.00  0.00    +0.000 Cl
ENDBRANCH  13  15
ENDBRANCH   7  11
BRANCH   4  24
ATOM     24  C   UNL     1      -0.227  12.403  18.358  0.00  0.00    +0.000 C 
BRANCH  24  25
ATOM     25  C   UNL     1       0.792  13.512  18.456  0.00  0.00    +0.000 A 
ATOM     26  C   UNL     1       0.426  14.803  18.911  0.00  0.00    +0.000 A 
ATOM     27  C   UNL     1       1.378  15.816  19.050  0.00  0.00    +0.000 A 
ATOM     28  C   UNL     1       2.686  15.509  18.751  0.00  0.00    +0.000 A 
ATOM     29  C   UNL     1       3.049  14.269  18.284  0.00  0.00    +0.000 A 
ATOM     30  C   UNL     1       2.129  13.262  18.104  0.00  0.00    +0.000 A 
ATOM     31  O   UNL     1       4.387  14.162  18.071  0.00  0.00    +0.000 OA
ATOM     32  C   UNL     1       4.834  15.393  18.674  0.00  0.00    +0.000 C 
ATOM     33  O   UNL     1       3.760  16.333  18.894  0.00  0.00    +0.000 OA
ENDBRANCH  24  25
ENDBRANCH   4  24
TORSDOF 4
ENDMDL
MODEL 6
REMARK VINA RESULT:      -7.7      1.442      2.333
REMARK  Name = 
REMARK  5 active torsions:
REMARK  status: ('A' for Active; 'I' for Inactive)
REMARK    1  A    between atoms: C_1  and  C_2
REMARK    2  A    between atoms: N_4  and  C_5
REMARK    3  A    between atoms: C_5  and  C_6
REMARK    4  A    between atoms: C_17  and  C_18
REMARK    5  A    between atoms: N_20  and  C_21
REMARK                            x       y       z     vdW  Elec       q    Type
REMARK                         _______ _______ _______ _____ _____    ______ ____
ROOT
ATOM      1  C   UNL     1      -0.645   9.842  23.286  0.00  0.00    +0.000 C 
ATOM      2  C   UNL     1      -0.130  10.105  21.917  0.00  0.00    +0.000 A 
ATOM      3  C   UNL     1      -0.324  11.256  21.180  0.00  0.00    +0.000 A 
ATOM      4  N   UNL     1       0.324  11.124  19.977  0.00  0.00    +0.000 N 
ATOM      5  C   UNL     1       0.906   9.878  19.897  0.00  0.00    +0.000 A 
ATOM      6  C   UNL     1       1.642   9.280  18.867  0.00  0.00    +0.000 A 
ATOM      7  C   UNL     1       2.167   7.999  19.082  0.00  0.00    +0.000 A 
ATOM      8  C   UNL     1       1.967   7.337  20.294  0.00  0.00    +0.000 A 
ATOM      9  C   UNL     1       1.216   7.942  21.313  0.00  0.00    +0.000 A 
ATOM     10  C   UNL     1       0.667   9.229  21.112  0.00  0.00    +0.000 A 
ENDROOT
BRANCH   7  11
ATOM     11  C   UNL     1       2.990   7.413  17.991  0.00  0.00    +0.000 C 
ATOM     12  O   UNL     1       2.846   7.818  16.842  0.00  0.00    +0.000 OA
ATOM     13  N   UNL     1       3.786   6.336  18.349  0.00  0.00    +0.000 N 
ATOM     14  H   UNL     1       3.381   5.745  19.070  0.00  0.00    +0.000 HD
BRANCH  13  15
ATOM     15  C   UNL     1       4.598   5.689  17.378  0.00  0.00    +0.000 A 
ATOM     16  C   UNL     1       4.248   4.461  16.794  0.00  0.00    +0.000 A 
ATOM     17 CL   UNL     1       2.726   3.682  17.065  0.00  0.00    +0.000 Cl
ATOM     18  C   UNL     1       5.091   3.872  15.854  0.00  0.00    +0.000 A 
ATOM     19  N   UNL     1       6.265   4.481  15.468  0.00  0.00    +0.000 N 
ATOM     20  O   UNL     1       7.013   3.945  14.598  0.00  0.00    +0.000 OA
ATOM     21  C   UNL     1       6.605   5.697  16.025  0.00  0.00    +0.000 A 
ATOM     22  C   UNL     1       5.783   6.309  16.963  0.00  0.00    +0.000 A 
ATOM     23 CL   UNL     1       6.297   7.814  17.640  0.00  0.00    +0.000 Cl
ENDBRANCH  13  15
ENDBRANCH   7  11
BRANCH   4  24
ATOM     24  C   UNL     1       0.449  12.187  18.981  0.00  0.00    +0.000 C 
BRANCH  24  25
ATOM     25  C   UNL     1       1.641  13.074  19.250  0.00  0.00    +0.000 A 
ATOM     26  C   UNL     1       2.057  13.356  20.574  0.00  0.00    +0.000 A 
ATOM     27  C   UNL     1       3.190  14.136  20.824  0.00  0.00    +0.000 A 
ATOM     28  C   UNL     1       3.898  14.600  19.739  0.00  0.00    +0.000 A 
ATOM     29  C   UNL     1       3.489  14.355  18.450  0.00  0.00    +0.000 A 
ATOM     30  C   UNL     1       2.359  13.621  18.174  0.00  0.00    +0.000 A 
ATOM     31  O   UNL     1       4.335  14.880  17.525  0.00  0.00    +0.000 OA
ATOM     32  C   UNL     1       5.426  15.274  18.382  0.00  0.00    +0.000 C 
ATOM     33  O   UNL     1       5.061  15.306  19.778  0.00  0.00    +0.000 OA
ENDBRANCH  24  25
ENDBRANCH   4  24
TORSDOF 4
ENDMDL
MODEL 7
REMARK VINA RESULT:      -7.6      2.869      4.120
REMARK  Name = 
REMARK  5 active torsions:
REMARK  status: ('A' for Active; 'I' for Inactive)
REMARK    1  A    between atoms: C_1  and  C_2
REMARK    2  A    between atoms: N_4  and  C_5
REMARK    3  A    between atoms: C_5  and  C_6
REMARK    4  A    between atoms: C_17  and  C_18
REMARK    5  A    between atoms: N_20  and  C_21
REMARK                            x       y       z     vdW  Elec       q    Type
REMARK                         _______ _______ _______ _____ _____    ______ ____
ROOT
ATOM      1  C   UNL     1      -0.349   9.554  23.488  0.00  0.00    +0.000 C 
ATOM      2  C   UNL     1      -0.070   9.743  22.041  0.00  0.00    +0.000 A 
ATOM      3  C   UNL     1      -0.591  10.733  21.233  0.00  0.00    +0.000 A 
ATOM      4  N   UNL     1      -0.078  10.586  19.968  0.00  0.00    +0.000 N 
ATOM      5  C   UNL     1       0.743   9.480  19.926  0.00  0.00    +0.000 A 
ATOM      6  C   UNL     1       1.462   8.918  18.863  0.00  0.00    +0.000 A 
ATOM      7  C   UNL     1       2.271   7.805  19.123  0.00  0.00    +0.000 A 
ATOM      8  C   UNL     1       2.362   7.270  20.408  0.00  0.00    +0.000 A 
ATOM      9  C   UNL     1       1.626   7.834  21.461  0.00  0.00    +0.000 A 
ATOM     10  C   UNL     1       0.794   8.951  21.219  0.00  0.00    +0.000 A 
ENDROOT
BRANCH   7  11
ATOM     11  C   UNL     1       3.063   7.264  17.987  0.00  0.00    +0.000 C 
ATOM     12  O   UNL     1       2.860   7.687  16.854  0.00  0.00    +0.000 OA
ATOM     13  N   UNL     1       3.904   6.204  18.290  0.00  0.00    +0.000 N 
ATOM     14  H   UNL     1       3.546   5.587  19.014  0.00  0.00    +0.000 HD
BRANCH  13  15
ATOM     15  C   UNL     1       4.693   5.600  17.274  0.00  0.00    +0.000 A 
ATOM     16  C   UNL     1       4.329   4.398  16.645  0.00  0.00    +0.000 A 
ATOM     17 CL   UNL     1       2.814   3.607  16.917  0.00  0.00    +0.000 Cl
ATOM     18  C   UNL     1       5.150   3.850  15.661  0.00  0.00    +0.000 A 
ATOM     19  N   UNL     1       6.315   4.477  15.275  0.00  0.00    +0.000 N 
ATOM     20  O   UNL     1       7.042   3.979  14.365  0.00  0.00    +0.000 OA
ATOM     21  C   UNL     1       6.668   5.667  15.876  0.00  0.00    +0.000 A 
ATOM     22  C   UNL     1       5.868   6.238  16.858  0.00  0.00    +0.000 A 
ATOM     23 CL   UNL     1       6.398   7.712  17.588  0.00  0.00    +0.000 Cl
ENDBRANCH  13  15
ENDBRANCH   7  11
BRANCH   4  24
ATOM     24  C   UNL     1      -0.303  11.522  18.866  0.00  0.00    +0.000 C 
BRANCH  24  25
ATOM     25  C   UNL     1      -1.716  11.445  18.343  0.00  0.00    +0.000 A 
ATOM     26  C   UNL     1      -2.020  10.719  17.164  0.00  0.00    +0.000 A 
ATOM     27  C   UNL     1      -3.335  10.607  16.705  0.00  0.00    +0.000 A 
ATOM     28  C   UNL     1      -4.326  11.205  17.451  0.00  0.00    +0.000 A 
ATOM     29  C   UNL     1      -4.040  11.933  18.581  0.00  0.00    +0.000 A 
ATOM     30  C   UNL     1      -2.752  12.092  19.037  0.00  0.00    +0.000 A 
ATOM     31  O   UNL     1      -5.156  12.422  19.183  0.00  0.00    +0.000 OA
ATOM     32  C   UNL     1      -6.170  11.724  18.432  0.00  0.00    +0.000 C 
ATOM     33  O   UNL     1      -5.664  11.143  17.211  0.00  0.00    +0.000 OA
ENDBRANCH  24  25
ENDBRANCH   4  24
TORSDOF 4
ENDMDL
MODEL 8
REMARK VINA RESULT:      -7.5      3.381      5.003
REMARK  Name = 
REMARK  5 active torsions:
REMARK  status: ('A' for Active; 'I' for Inactive)
REMARK    1  A    between atoms: C_1  and  C_2
REMARK    2  A    between atoms: N_4  and  C_5
REMARK    3  A    between atoms: C_5  and  C_6
REMARK    4  A    between atoms: C_17  and  C_18
REMARK    5  A    between atoms: N_20  and  C_21
REMARK                            x       y       z     vdW  Elec       q    Type
REMARK                         _______ _______ _______ _____ _____    ______ ____
ROOT
ATOM      1  C   UNL     1      -0.525  13.200  17.970  0.00  0.00    +0.000 C 
ATOM      2  C   UNL     1      -0.347  12.273  19.117  0.00  0.00    +0.000 A 
ATOM      3  C   UNL     1      -0.818  12.465  20.401  0.00  0.00    +0.000 A 
ATOM      4  N   UNL     1      -0.471  11.378  21.165  0.00  0.00    +0.000 N 
ATOM      5  C   UNL     1       0.263  10.492  20.406  0.00  0.00    +0.000 A 
ATOM      6  C   UNL     1       0.852   9.269  20.749  0.00  0.00    +0.000 A 
ATOM      7  C   UNL     1       1.505   8.542  19.746  0.00  0.00    +0.000 A 
ATOM      8  C   UNL     1       1.565   9.021  18.437  0.00  0.00    +0.000 A 
ATOM      9  C   UNL     1       0.982  10.254  18.110  0.00  0.00    +0.000 A 
ATOM     10  C   UNL     1       0.327  11.010  19.110  0.00  0.00    +0.000 A 
ENDROOT
BRANCH   7  11
ATOM     11  C   UNL     1       2.074   7.222  20.128  0.00  0.00    +0.000 C 
ATOM     12  O   UNL     1       2.176   6.929  21.315  0.00  0.00    +0.000 OA
ATOM     13  N   UNL     1       2.575   6.457  19.085  0.00  0.00    +0.000 N 
ATOM     14  H   UNL     1       2.988   7.004  18.335  0.00  0.00    +0.000 HD
BRANCH  13  15
ATOM     15  C   UNL     1       3.158   5.187  19.342  0.00  0.00    +0.000 A 
ATOM     16  C   UNL     1       2.445   4.131  19.934  0.00  0.00    +0.000 A 
ATOM     17 CL   UNL     1       0.748   4.203  20.265  0.00  0.00    +0.000 Cl
ATOM     18  C   UNL     1       3.076   2.912  20.170  0.00  0.00    +0.000 A 
ATOM     19  N   UNL     1       4.393   2.710  19.817  0.00  0.00    +0.000 N 
ATOM     20  O   UNL     1       4.948   1.589  20.018  0.00  0.00    +0.000 OA
ATOM     21  C   UNL     1       5.092   3.737  19.218  0.00  0.00    +0.000 A 
ATOM     22  C   UNL     1       4.489   4.963  18.969  0.00  0.00    +0.000 A 
ATOM     23 CL   UNL     1       5.444   6.211  18.249  0.00  0.00    +0.000 Cl
ENDBRANCH  13  15
ENDBRANCH   7  11
BRANCH   4  24
ATOM     24  C   UNL     1      -0.901  11.163  22.546  0.00  0.00    +0.000 C 
BRANCH  24  25
ATOM     25  C   UNL     1      -1.724  12.317  23.066  0.00  0.00    +0.000 A 
ATOM     26  C   UNL     1      -1.115  13.546  23.421  0.00  0.00    +0.000 A 
ATOM     27  C   UNL     1      -1.881  14.632  23.855  0.00  0.00    +0.000 A 
ATOM     28  C   UNL     1      -3.247  14.472  23.902  0.00  0.00    +0.000 A 
ATOM     29  C   UNL     1      -3.846  13.276  23.585  0.00  0.00    +0.000 A 
ATOM     30  C   UNL     1      -3.116  12.180  23.189  0.00  0.00    +0.000 A 
ATOM     31  O   UNL     1      -5.201  13.332  23.674  0.00  0.00    +0.000 OA
ATOM     32  C   UNL     1      -5.381  14.751  23.856  0.00  0.00    +0.000 C 
ATOM     33  O   UNL     1      -4.160  15.429  24.224  0.00  0.00    +0.000 OA
ENDBRANCH  24  25
ENDBRANCH   4  24
TORSDOF 4
ENDMDL
MODEL 9
REMARK VINA RESULT:      -7.5      2.982      4.212
REMARK  Name = 
REMARK  5 active torsions:
REMARK  status: ('A' for Active; 'I' for Inactive)
REMARK    1  A    between atoms: C_1  and  C_2
REMARK    2  A    between atoms: N_4  and  C_5
REMARK    3  A    between atoms: C_5  and  C_6
REMARK    4  A    between atoms: C_17  and  C_18
REMARK    5  A    between atoms: N_20  and  C_21
REMARK                            x       y       z     vdW  Elec       q    Type
REMARK                         _______ _______ _______ _____ _____    ______ ____
ROOT
ATOM      1  C   UNL     1      -0.192   9.499  23.652  0.00  0.00    +0.000 C 
ATOM      2  C   UNL     1       0.086   9.712  22.208  0.00  0.00    +0.000 A 
ATOM      3  C   UNL     1      -0.372  10.762  21.437  0.00  0.00    +0.000 A 
ATOM      4  N   UNL     1       0.118  10.618  20.162  0.00  0.00    +0.000 N 
ATOM      5  C   UNL     1       0.857   9.458  20.077  0.00  0.00    +0.000 A 
ATOM      6  C   UNL     1       1.524   8.880  18.989  0.00  0.00    +0.000 A 
ATOM      7  C   UNL     1       2.254   7.705  19.206  0.00  0.00    +0.000 A 
ATOM      8  C   UNL     1       2.320   7.125  20.473  0.00  0.00    +0.000 A 
ATOM      9  C   UNL     1       1.636   7.707  21.551  0.00  0.00    +0.000 A 
ATOM     10  C   UNL     1       0.883   8.888  21.352  0.00  0.00    +0.000 A 
ENDROOT
BRANCH   7  11
ATOM     11  C   UNL     1       2.995   7.144  18.045  0.00  0.00    +0.000 C 
ATOM     12  O   UNL     1       2.678   7.479  16.908  0.00  0.00    +0.000 OA
ATOM     13  N   UNL     1       3.929   6.164  18.342  0.00  0.00    +0.000 N 
ATOM     14  H   UNL     1       3.670   5.574  19.128  0.00  0.00    +0.000 HD
BRANCH  13  15
ATOM     15  C   UNL     1       4.679   5.549  17.304  0.00  0.00    +0.000 A 
ATOM     16  C   UNL     1       4.282   4.350  16.689  0.00  0.00    +0.000 A 
ATOM     17 CL   UNL     1       2.766   3.578  17.008  0.00  0.00    +0.000 Cl
ATOM     18  C   UNL     1       5.067   3.790  15.683  0.00  0.00    +0.000 A 
ATOM     19  N   UNL     1       6.227   4.401  15.261  0.00  0.00    +0.000 N 
ATOM     20  O   UNL     1       6.921   3.894  14.330  0.00  0.00    +0.000 OA
ATOM     21  C   UNL     1       6.612   5.589  15.848  0.00  0.00    +0.000 A 
ATOM     22  C   UNL     1       5.849   6.171  16.853  0.00  0.00    +0.000 A 
ATOM     23 CL   UNL     1       6.419   7.640  17.562  0.00  0.00    +0.000 Cl
ENDBRANCH  13  15
ENDBRANCH   7  11
BRANCH   4  24
ATOM     24  C   UNL     1      -0.050  11.601  19.092  0.00  0.00    +0.000 C 
BRANCH  24  25
ATOM     25  C   UNL     1      -1.312  11.360  18.300  0.00  0.00    +0.000 A 
ATOM     26  C   UNL     1      -2.544  11.937  18.695  0.00  0.00    +0.000 A 
ATOM     27  C   UNL     1      -3.703  11.756  17.935  0.00  0.00    +0.000 A 
ATOM     28  C   UNL     1      -3.599  11.018  16.778  0.00  0.00    +0.000 A 
ATOM     29  C   UNL     1      -2.415  10.432  16.398  0.00  0.00    +0.000 A 
ATOM     30  C   UNL     1      -1.267  10.563  17.145  0.00  0.00    +0.000 A 
ATOM     31  O   UNL     1      -2.517   9.767  15.217  0.00  0.00    +0.000 OA
ATOM     32  C   UNL     1      -3.828  10.200  14.800  0.00  0.00    +0.000 C 
ATOM     33  O   UNL     1      -4.590  10.795  15.872  0.00  0.00    +0.000 OA
ENDBRANCH  24  25
ENDBRANCH   4  24
TORSDOF 4
ENDMDL
