MODEL 1
REMARK VINA RESULT:      -6.5      0.000      0.000
REMARK  Name = 
REMARK  2 active torsions:
REMARK  status: ('A' for Active; 'I' for Inactive)
REMARK    1  A    between atoms: C_2  and  C_3
REMARK    2  A    between atoms: C_8  and  C_10
REMARK                            x       y       z     vdW  Elec       q    Type
REMARK                         _______ _______ _______ _____ _____    ______ ____
ROOT
ATOM      1  C   UNL     1       2.076   4.325  19.400  0.00  0.00    +0.000 C 
ATOM      2  C   UNL     1       0.828   3.758  20.099  0.00  0.00    +0.000 C 
ATOM      3  C   UNL     1       1.368   3.262  21.432  0.00  0.00    +0.000 C 
ATOM      4  C   UNL     1       2.709   2.670  21.032  0.00  0.00    +0.000 C 
ATOM      5  N   UNL     1       3.177   3.506  19.937  0.00  0.00    +0.000 N 
ATOM      6  C   UNL     1       4.449   3.317  19.434  0.00  0.00    +0.000 C 
ATOM      7  O   UNL     1       5.194   2.472  19.954  0.00  0.00    +0.000 OA
ENDROOT
BRANCH   6   8
ATOM      8  C   UNL     1       5.020   4.176  18.287  0.00  0.00    +0.000 C 
ATOM      9  C   UNL     1       4.620   3.663  16.916  0.00  0.00    +0.000 C 
ATOM     10  C   UNL     1       5.709   4.176  15.992  0.00  0.00    +0.000 C 
ATOM     11  C   UNL     1       6.903   4.475  16.882  0.00  0.00    +0.000 C 
ATOM     12  N   UNL     1       6.492   4.234  18.262  0.00  0.00    +0.000 NA
ATOM     13  H   UNL     1       6.815   4.986  18.870  0.00  0.00    +0.000 HD
ENDBRANCH   6   8
BRANCH   1  15
ATOM     14  N   UNL     1       2.339   6.889  19.970  0.00  0.00    +0.000 NA
ATOM     15  C   UNL     1       2.225   5.767  19.699  0.00  0.00    +0.000 C 
ENDBRANCH   1  15
TORSDOF 2
ENDMDL
MODEL 2
REMARK VINA RESULT:      -6.1      1.607      2.016
REMARK  Name = 
REMARK  2 active torsions:
REMARK  status: ('A' for Active; 'I' for Inactive)
REMARK    1  A    between atoms: C_2  and  C_3
REMARK    2  A    between atoms: C_8  and  C_10
REMARK                            x       y       z     vdW  Elec       q    Type
REMARK                         _______ _______ _______ _____ _____    ______ ____
ROOT
ATOM      1  C   UNL     1       2.740   5.167  18.186  0.00  0.00    +0.000 C 
ATOM      2  C   UNL     1       1.467   4.436  17.727  0.00  0.00    +0.000 C 
ATOM      3  C   UNL     1       1.285   3.353  18.781  0.00  0.00    +0.000 C 
ATOM      4  C   UNL     1       2.717   2.912  19.035  0.00  0.00    +0.000 C 
ATOM      5  N   UNL     1       3.516   4.118  18.870  0.00  0.00    +0.000 N 
ATOM      6  C   UNL     1       4.862   4.087  19.175  0.00  0.00    +0.000 C 
ATOM      7  O   UNL     1       5.363   3.047  19.631  0.00  0.00    +0.000 OA
ENDROOT
BRANCH   6   8
ATOM      8  C   UNL     1       5.768   5.328  19.044  0.00  0.00    +0.000 C 
ATOM      9  C   UNL     1       6.200   5.589  17.612  0.00  0.00    +0.000 C 
ATOM     10  C   UNL     1       7.496   6.369  17.749  0.00  0.00    +0.000 C 
ATOM     11  C   UNL     1       8.014   6.071  19.145  0.00  0.00    +0.000 C 
ATOM     12  N   UNL     1       7.020   5.236  19.813  0.00  0.00    +0.000 NA
ATOM     13  H   UNL     1       6.861   5.560  20.766  0.00  0.00    +0.000 HD
ENDBRANCH   6   8
BRANCH   1  15
ATOM     14  N   UNL     1       2.122   7.217  19.730  0.00  0.00    +0.000 NA
ATOM     15  C   UNL     1       2.393   6.304  19.068  0.00  0.00    +0.000 C 
ENDBRANCH   1  15
TORSDOF 2
ENDMDL
MODEL 3
REMARK VINA RESULT:      -6.1      2.088      2.928
REMARK  Name = 
REMARK  2 active torsions:
REMARK  status: ('A' for Active; 'I' for Inactive)
REMARK    1  A    between atoms: C_2  and  C_3
REMARK    2  A    between atoms: C_8  and  C_10
REMARK                            x       y       z     vdW  Elec       q    Type
REMARK                         _______ _______ _______ _____ _____    ______ ____
ROOT
ATOM      1  C   UNL     1       3.214   3.345  19.925  0.00  0.00    +0.000 C 
ATOM      2  C   UNL     1       1.808   2.763  20.154  0.00  0.00    +0.000 C 
ATOM      3  C   UNL     1       1.559   1.945  18.895  0.00  0.00    +0.000 C 
ATOM      4  C   UNL     1       2.171   2.825  17.817  0.00  0.00    +0.000 C 
ATOM      5  N   UNL     1       3.303   3.474  18.461  0.00  0.00    +0.000 N 
ATOM      6  C   UNL     1       4.165   4.242  17.704  0.00  0.00    +0.000 C 
ATOM      7  O   UNL     1       3.993   4.328  16.478  0.00  0.00    +0.000 OA
ENDROOT
BRANCH   6   8
ATOM      8  C   UNL     1       5.396   4.944  18.311  0.00  0.00    +0.000 C 
ATOM      9  C   UNL     1       5.744   6.238  17.598  0.00  0.00    +0.000 C 
ATOM     10  C   UNL     1       7.225   6.430  17.870  0.00  0.00    +0.000 C 
ATOM     11  C   UNL     1       7.761   5.057  18.236  0.00  0.00    +0.000 C 
ATOM     12  N   UNL     1       6.628   4.137  18.265  0.00  0.00    +0.000 NA
ATOM     13  H   UNL     1       6.673   3.536  19.086  0.00  0.00    +0.000 HD
ENDBRANCH   6   8
BRANCH   1  15
ATOM     14  N   UNL     1       5.056   1.727  20.906  0.00  0.00    +0.000 NA
ATOM     15  C   UNL     1       4.243   2.446  20.495  0.00  0.00    +0.000 C 
ENDBRANCH   1  15
TORSDOF 2
ENDMDL
MODEL 4
REMARK VINA RESULT:      -6.0      2.321      4.935
REMARK  Name = 
REMARK  2 active torsions:
REMARK  status: ('A' for Active; 'I' for Inactive)
REMARK    1  A    between atoms: C_2  and  C_3
REMARK    2  A    between atoms: C_8  and  C_10
REMARK                            x       y       z     vdW  Elec       q    Type
REMARK                         _______ _______ _______ _____ _____    ______ ____
ROOT
ATOM      1  C   UNL     1       5.850   6.324  17.100  0.00  0.00    +0.000 C 
ATOM      2  C   UNL     1       6.780   7.504  17.433  0.00  0.00    +0.000 C 
ATOM      3  C   UNL     1       7.929   6.844  18.181  0.00  0.00    +0.000 C 
ATOM      4  C   UNL     1       7.207   5.804  19.021  0.00  0.00    +0.000 C 
ATOM      5  N   UNL     1       6.081   5.377  18.204  0.00  0.00    +0.000 N 
ATOM      6  C   UNL     1       5.297   4.323  18.628  0.00  0.00    +0.000 C 
ATOM      7  O   UNL     1       5.590   3.722  19.673  0.00  0.00    +0.000 OA
ENDROOT
BRANCH   6   8
ATOM      8  C   UNL     1       4.099   3.802  17.807  0.00  0.00    +0.000 C 
ATOM      9  C   UNL     1       2.793   4.478  18.184  0.00  0.00    +0.000 C 
ATOM     10  C   UNL     1       1.725   3.473  17.793  0.00  0.00    +0.000 C 
ATOM     11  C   UNL     1       2.426   2.127  17.723  0.00  0.00    +0.000 C 
ATOM     12  N   UNL     1       3.847   2.360  17.970  0.00  0.00    +0.000 NA
ATOM     13  H   UNL     1       4.417   1.836  17.307  0.00  0.00    +0.000 HD
ENDBRANCH   6   8
BRANCH   1  15
ATOM     14  N   UNL     1       6.441   5.357  14.715  0.00  0.00    +0.000 NA
ATOM     15  C   UNL     1       6.185   5.763  15.772  0.00  0.00    +0.000 C 
ENDBRANCH   1  15
TORSDOF 2
ENDMDL
MODEL 5
REMARK VINA RESULT:      -5.9      1.091      1.091
REMARK  Name = 
REMARK  2 active torsions:
REMARK  status: ('A' for Active; 'I' for Inactive)
REMARK    1  A    between atoms: C_2  and  C_3
REMARK    2  A    between atoms: C_8  and  C_10
REMARK                            x       y       z     vdW  Elec       q    Type
REMARK                         _______ _______ _______ _____ _____    ______ ____
ROOT
ATOM      1  C   UNL     1       1.883   4.487  19.727  0.00  0.00    +0.000 C 
ATOM      2  C   UNL     1       0.886   3.526  20.399  0.00  0.00    +0.000 C 
ATOM      3  C   UNL     1       1.705   2.899  21.518  0.00  0.00    +0.000 C 
ATOM      4  C   UNL     1       3.060   2.715  20.858  0.00  0.00    +0.000 C 
ATOM      5  N   UNL     1       3.189   3.840  19.944  0.00  0.00    +0.000 N 
ATOM      6  C   UNL     1       4.384   4.046  19.284  0.00  0.00    +0.000 C 
ATOM      7  O   UNL     1       5.348   3.299  19.516  0.00  0.00    +0.000 OA
ENDROOT
BRANCH   6   8
ATOM      8  C   UNL     1       4.601   5.227  18.316  0.00  0.00    +0.000 C 
ATOM      9  C   UNL     1       4.397   4.838  16.863  0.00  0.00    +0.000 C 
ATOM     10  C   UNL     1       5.223   5.847  16.086  0.00  0.00    +0.000 C 
ATOM     11  C   UNL     1       6.240   6.398  17.071  0.00  0.00    +0.000 C 
ATOM     12  N   UNL     1       5.955   5.804  18.374  0.00  0.00    +0.000 NA
ATOM     13  H   UNL     1       5.994   6.511  19.107  0.00  0.00    +0.000 HD
ENDBRANCH   6   8
BRANCH   1  15
ATOM     14  N   UNL     1       1.695   6.898  20.786  0.00  0.00    +0.000 NA
ATOM     15  C   UNL     1       1.791   5.833  20.336  0.00  0.00    +0.000 C 
ENDBRANCH   1  15
TORSDOF 2
ENDMDL
MODEL 6
REMARK VINA RESULT:      -5.9      2.009      2.994
REMARK  Name = 
REMARK  2 active torsions:
REMARK  status: ('A' for Active; 'I' for Inactive)
REMARK    1  A    between atoms: C_2  and  C_3
REMARK    2  A    between atoms: C_8  and  C_10
REMARK                            x       y       z     vdW  Elec       q    Type
REMARK                         _______ _______ _______ _____ _____    ______ ____
ROOT
ATOM      1  C   UNL     1       3.522   3.178  20.191  0.00  0.00    +0.000 C 
ATOM      2  C   UNL     1       2.507   2.811  21.287  0.00  0.00    +0.000 C 
ATOM      3  C   UNL     1       1.246   3.546  20.858  0.00  0.00    +0.000 C 
ATOM      4  C   UNL     1       1.804   4.860  20.339  0.00  0.00    +0.000 C 
ATOM      5  N   UNL     1       3.091   4.516  19.753  0.00  0.00    +0.000 N 
ATOM      6  C   UNL     1       3.800   5.478  19.060  0.00  0.00    +0.000 C 
ATOM      7  O   UNL     1       3.309   6.607  18.904  0.00  0.00    +0.000 OA
ENDROOT
BRANCH   6   8
ATOM      8  C   UNL     1       5.160   5.183  18.396  0.00  0.00    +0.000 C 
ATOM      9  C   UNL     1       6.332   5.416  19.332  0.00  0.00    +0.000 C 
ATOM     10  C   UNL     1       7.501   5.697  18.405  0.00  0.00    +0.000 C 
ATOM     11  C   UNL     1       6.889   6.131  17.085  0.00  0.00    +0.000 C 
ATOM     12  N   UNL     1       5.439   6.017  17.214  0.00  0.00    +0.000 NA
ATOM     13  H   UNL     1       5.038   5.581  16.385  0.00  0.00    +0.000 HD
ENDBRANCH   6   8
BRANCH   1  15
ATOM     14  N   UNL     1       3.505   1.400  18.240  0.00  0.00    +0.000 NA
ATOM     15  C   UNL     1       3.495   2.172  19.105  0.00  0.00    +0.000 C 
ENDBRANCH   1  15
TORSDOF 2
ENDMDL
MODEL 7
REMARK VINA RESULT:      -5.9      2.121      2.894
REMARK  Name = 
REMARK  2 active torsions:
REMARK  status: ('A' for Active; 'I' for Inactive)
REMARK    1  A    between atoms: C_2  and  C_3
REMARK    2  A    between atoms: C_8  and  C_10
REMARK                            x       y       z     vdW  Elec       q    Type
REMARK                         _______ _______ _______ _____ _____    ______ ____
ROOT
ATOM      1  C   UNL     1       3.182   3.703  20.490  0.00  0.00    +0.000 C 
ATOM      2  C   UNL     1       2.219   3.484  21.670  0.00  0.00    +0.000 C 
ATOM      3  C   UNL     1       1.086   2.678  21.053  0.00  0.00    +0.000 C 
ATOM      4  C   UNL     1       0.943   3.324  19.685  0.00  0.00    +0.000 C 
ATOM      5  N   UNL     1       2.293   3.722  19.315  0.00  0.00    +0.000 N 
ATOM      6  C   UNL     1       2.531   4.219  18.049  0.00  0.00    +0.000 C 
ATOM      7  O   UNL     1       1.602   4.273  17.228  0.00  0.00    +0.000 OA
ENDROOT
BRANCH   6   8
ATOM      8  C   UNL     1       3.937   4.644  17.579  0.00  0.00    +0.000 C 
ATOM      9  C   UNL     1       4.027   6.127  17.268  0.00  0.00    +0.000 C 
ATOM     10  C   UNL     1       5.175   6.233  16.280  0.00  0.00    +0.000 C 
ATOM     11  C   UNL     1       5.334   4.848  15.678  0.00  0.00    +0.000 C 
ATOM     12  N   UNL     1       4.386   3.965  16.352  0.00  0.00    +0.000 NA
ATOM     13  H   UNL     1       4.829   3.079  16.593  0.00  0.00    +0.000 HD
ENDBRANCH   6   8
BRANCH   1  15
ATOM     14  N   UNL     1       5.002   1.792  20.421  0.00  0.00    +0.000 NA
ATOM     15  C   UNL     1       4.190   2.620  20.439  0.00  0.00    +0.000 C 
ENDBRANCH   1  15
TORSDOF 2
ENDMDL
MODEL 8
REMARK VINA RESULT:      -5.7      1.780      4.742
REMARK  Name = 
REMARK  2 active torsions:
REMARK  status: ('A' for Active; 'I' for Inactive)
REMARK    1  A    between atoms: C_2  and  C_3
REMARK    2  A    between atoms: C_8  and  C_10
REMARK                            x       y       z     vdW  Elec       q    Type
REMARK                         _______ _______ _______ _____ _____    ______ ____
ROOT
ATOM      1  C   UNL     1       4.850   5.977  17.777  0.00  0.00    +0.000 C 
ATOM      2  C   UNL     1       5.907   6.379  16.733  0.00  0.00    +0.000 C 
ATOM      3  C   UNL     1       5.483   5.609  15.491  0.00  0.00    +0.000 C 
ATOM      4  C   UNL     1       5.036   4.280  16.077  0.00  0.00    +0.000 C 
ATOM      5  N   UNL     1       4.462   4.615  17.372  0.00  0.00    +0.000 N 
ATOM      6  C   UNL     1       3.829   3.633  18.107  0.00  0.00    +0.000 C 
ATOM      7  O   UNL     1       3.712   2.492  17.634  0.00  0.00    +0.000 OA
ENDROOT
BRANCH   6   8
ATOM      8  C   UNL     1       3.181   3.916  19.478  0.00  0.00    +0.000 C 
ATOM      9  C   UNL     1       3.250   2.725  20.416  0.00  0.00    +0.000 C 
ATOM     10  C   UNL     1       2.092   2.935  21.374  0.00  0.00    +0.000 C 
ATOM     11  C   UNL     1       1.133   3.877  20.667  0.00  0.00    +0.000 C 
ATOM     12  N   UNL     1       1.752   4.264  19.402  0.00  0.00    +0.000 NA
ATOM     13  H   UNL     1       1.651   5.266  19.245  0.00  0.00    +0.000 HD
ENDBRANCH   6   8
BRANCH   1  15
ATOM     14  N   UNL     1       2.837   7.685  17.787  0.00  0.00    +0.000 NA
ATOM     15  C   UNL     1       3.720   6.933  17.761  0.00  0.00    +0.000 C 
ENDBRANCH   1  15
TORSDOF 2
ENDMDL
MODEL 9
REMARK VINA RESULT:      -5.6      1.790      2.598
REMARK  Name = 
REMARK  2 active torsions:
REMARK  status: ('A' for Active; 'I' for Inactive)
REMARK    1  A    between atoms: C_2  and  C_3
REMARK    2  A    between atoms: C_8  and  C_10
REMARK                            x       y       z     vdW  Elec       q    Type
REMARK                         _______ _______ _______ _____ _____    ______ ____
ROOT
ATOM      1  C   UNL     1       2.966   2.859  19.742  0.00  0.00    +0.000 C 
ATOM      2  C   UNL     1       1.849   2.697  20.787  0.00  0.00    +0.000 C 
ATOM      3  C   UNL     1       1.087   4.011  20.692  0.00  0.00    +0.000 C 
ATOM      4  C   UNL     1       2.209   5.017  20.501  0.00  0.00    +0.000 C 
ATOM      5  N   UNL     1       3.219   4.311  19.726  0.00  0.00    +0.000 N 
ATOM      6  C   UNL     1       4.320   4.999  19.257  0.00  0.00    +0.000 C 
ATOM      7  O   UNL     1       4.411   6.220  19.460  0.00  0.00    +0.000 OA
ENDROOT
BRANCH   6   8
ATOM      8  C   UNL     1       5.420   4.323  18.414  0.00  0.00    +0.000 C 
ATOM      9  C   UNL     1       6.765   5.014  18.545  0.00  0.00    +0.000 C 
ATOM     10  C   UNL     1       7.494   4.660  17.261  0.00  0.00    +0.000 C 
ATOM     11  C   UNL     1       6.416   4.267  16.266  0.00  0.00    +0.000 C 
ATOM     12  N   UNL     1       5.136   4.304  16.969  0.00  0.00    +0.000 NA
ATOM     13  H   UNL     1       4.578   3.482  16.741  0.00  0.00    +0.000 HD
ENDBRANCH   6   8
BRANCH   1  15
ATOM     14  N   UNL     1       2.188   1.949  17.390  0.00  0.00    +0.000 NA
ATOM     15  C   UNL     1       2.528   2.329  18.431  0.00  0.00    +0.000 C 
ENDBRANCH   1  15
TORSDOF 2
ENDMDL
