MODEL 1
REMARK VINA RESULT:      -7.0      0.000      0.000
REMARK  Name = 
REMARK  1 active torsions:
REMARK  status: ('A' for Active; 'I' for Inactive)
REMARK    1  A    between atoms: N_3  and  C_4
REMARK                            x       y       z     vdW  Elec       q    Type
REMARK                         _______ _______ _______ _____ _____    ______ ____
ROOT
ATOM      1  O   UNL     1       2.342   9.143  17.101  0.00  0.00    +0.000 OA
ATOM      2  C   UNL     1       1.980   8.645  18.162  0.00  0.00    +0.000 C 
ATOM      3  N   UNL     1       2.360   7.396  18.600  0.00  0.00    +0.000 N 
ATOM      4  N   UNL     1       1.130   9.331  19.012  0.00  0.00    +0.000 N 
ATOM      5  C   UNL     1       0.679   8.902  20.346  0.00  0.00    +0.000 C 
ATOM      6  C   UNL     1       0.839  10.024  21.383  0.00  0.00    +0.000 C 
ATOM      7  N   UNL     1       0.179  11.228  20.898  0.00  0.00    +0.000 N 
ATOM      8  C   UNL     1      -0.804  11.835  21.627  0.00  0.00    +0.000 A 
ATOM      9  N   UNL     1      -1.098  11.349  22.844  0.00  0.00    +0.000 NA
ATOM     10  C   UNL     1      -2.064  11.959  23.554  0.00  0.00    +0.000 A 
ATOM     11  C   UNL     1      -2.769  13.037  23.094  0.00  0.00    +0.000 A 
ATOM     12  C   UNL     1      -2.415  13.465  21.841  0.00  0.00    +0.000 A 
ATOM     13  N   UNL     1      -1.449  12.890  21.102  0.00  0.00    +0.000 NA
ATOM     14  C   UNL     1       0.597  11.722  19.589  0.00  0.00    +0.000 C 
ATOM     15  C   UNL     1       0.531  10.594  18.541  0.00  0.00    +0.000 C 
ATOM     16  H   UNL     1       1.752   6.958  19.270  0.00  0.00    +0.000 HD
ENDROOT
BRANCH   3  17
ATOM     17  C   UNL     1       3.284   6.530  17.980  0.00  0.00    +0.000 A 
ATOM     18  C   UNL     1       4.501   6.959  17.448  0.00  0.00    +0.000 A 
ATOM     19  C   UNL     1       5.337   6.064  16.778  0.00  0.00    +0.000 A 
ATOM     20  C   UNL     1       4.967   4.730  16.658  0.00  0.00    +0.000 A 
ATOM     21 CL   UNL     1       5.982   3.637  15.801  0.00  0.00    +0.000 Cl
ATOM     22  C   UNL     1       3.779   4.277  17.225  0.00  0.00    +0.000 A 
ATOM     23  C   UNL     1       2.942   5.174  17.892  0.00  0.00    +0.000 A 
ENDBRANCH   3  17
TORSDOF 1
ENDMDL
MODEL 2
REMARK VINA RESULT:      -7.0      1.340      2.222
REMARK  Name = 
REMARK  1 active torsions:
REMARK  status: ('A' for Active; 'I' for Inactive)
REMARK    1  A    between atoms: N_3  and  C_4
REMARK                            x       y       z     vdW  Elec       q    Type
REMARK                         _______ _______ _______ _____ _____    ______ ____
ROOT
ATOM      1  O   UNL     1       2.429   6.337  20.333  0.00  0.00    +0.000 OA
ATOM      2  C   UNL     1       2.306   7.334  19.630  0.00  0.00    +0.000 C 
ATOM      3  N   UNL     1       2.843   7.463  18.369  0.00  0.00    +0.000 N 
ATOM      4  N   UNL     1       1.601   8.437  20.082  0.00  0.00    +0.000 N 
ATOM      5  C   UNL     1       1.300   9.664  19.327  0.00  0.00    +0.000 C 
ATOM      6  C   UNL     1      -0.184  10.045  19.437  0.00  0.00    +0.000 C 
ATOM      7  N   UNL     1      -0.563  10.110  20.842  0.00  0.00    +0.000 N 
ATOM      8  C   UNL     1      -1.094  11.251  21.376  0.00  0.00    +0.000 A 
ATOM      9  N   UNL     1      -1.339  12.290  20.562  0.00  0.00    +0.000 NA
ATOM     10  C   UNL     1      -1.866  13.405  21.099  0.00  0.00    +0.000 A 
ATOM     11  C   UNL     1      -2.151  13.536  22.430  0.00  0.00    +0.000 A 
ATOM     12  C   UNL     1      -1.864  12.434  23.193  0.00  0.00    +0.000 A 
ATOM     13  N   UNL     1      -1.345  11.297  22.694  0.00  0.00    +0.000 NA
ATOM     14  C   UNL     1      -0.314   8.915  21.644  0.00  0.00    +0.000 C 
ATOM     15  C   UNL     1       1.149   8.457  21.486  0.00  0.00    +0.000 C 
ATOM     16  H   UNL     1       2.988   8.403  18.043  0.00  0.00    +0.000 HD
ENDROOT
BRANCH   3  17
ATOM     17  C   UNL     1       3.522   6.468  17.636  0.00  0.00    +0.000 A 
ATOM     18  C   UNL     1       3.184   5.114  17.684  0.00  0.00    +0.000 A 
ATOM     19  C   UNL     1       3.945   4.169  16.994  0.00  0.00    +0.000 A 
ATOM     20  C   UNL     1       5.035   4.578  16.235  0.00  0.00    +0.000 A 
ATOM     21 CL   UNL     1       5.992   3.408  15.415  0.00  0.00    +0.000 Cl
ATOM     22  C   UNL     1       5.356   5.930  16.139  0.00  0.00    +0.000 A 
ATOM     23  C   UNL     1       4.595   6.875  16.832  0.00  0.00    +0.000 A 
ENDBRANCH   3  17
TORSDOF 1
ENDMDL
MODEL 3
REMARK VINA RESULT:      -6.9      3.765      9.171
REMARK  Name = 
REMARK  1 active torsions:
REMARK  status: ('A' for Active; 'I' for Inactive)
REMARK    1  A    between atoms: N_3  and  C_4
REMARK                            x       y       z     vdW  Elec       q    Type
REMARK                         _______ _______ _______ _____ _____    ______ ____
ROOT
ATOM      1  O   UNL     1       1.452   6.895  21.208  0.00  0.00    +0.000 OA
ATOM      2  C   UNL     1       1.669   7.516  20.173  0.00  0.00    +0.000 C 
ATOM      3  N   UNL     1       1.201   8.786  19.919  0.00  0.00    +0.000 N 
ATOM      4  N   UNL     1       2.422   6.955  19.155  0.00  0.00    +0.000 N 
ATOM      5  C   UNL     1       2.833   7.604  17.900  0.00  0.00    +0.000 C 
ATOM      6  C   UNL     1       4.332   7.405  17.628  0.00  0.00    +0.000 C 
ATOM      7  N   UNL     1       4.650   5.985  17.688  0.00  0.00    +0.000 N 
ATOM      8  C   UNL     1       5.227   5.347  16.626  0.00  0.00    +0.000 A 
ATOM      9  N   UNL     1       5.574   6.070  15.550  0.00  0.00    +0.000 NA
ATOM     10  C   UNL     1       6.146   5.430  14.514  0.00  0.00    +0.000 A 
ATOM     11  C   UNL     1       6.377   4.083  14.497  0.00  0.00    +0.000 A 
ATOM     12  C   UNL     1       5.986   3.416  15.630  0.00  0.00    +0.000 A 
ATOM     13  N   UNL     1       5.419   4.019  16.691  0.00  0.00    +0.000 NA
ATOM     14  C   UNL     1       4.289   5.285  18.918  0.00  0.00    +0.000 C 
ATOM     15  C   UNL     1       2.809   5.537  19.266  0.00  0.00    +0.000 C 
ATOM     16  H   UNL     1       1.130   9.047  18.951  0.00  0.00    +0.000 HD
ENDROOT
BRANCH   3  17
ATOM     17  C   UNL     1       0.494   9.618  20.813  0.00  0.00    +0.000 A 
ATOM     18  C   UNL     1       0.351   9.337  22.173  0.00  0.00    +0.000 A 
ATOM     19  C   UNL     1      -0.426  10.162  22.988  0.00  0.00    +0.000 A 
ATOM     20  C   UNL     1      -1.045  11.284  22.450  0.00  0.00    +0.000 A 
ATOM     21 CL   UNL     1      -2.031  12.277  23.449  0.00  0.00    +0.000 Cl
ATOM     22  C   UNL     1      -0.872  11.603  21.105  0.00  0.00    +0.000 A 
ATOM     23  C   UNL     1      -0.097  10.775  20.289  0.00  0.00    +0.000 A 
ENDBRANCH   3  17
TORSDOF 1
ENDMDL
MODEL 4
REMARK VINA RESULT:      -6.9      2.282      3.066
REMARK  Name = 
REMARK  1 active torsions:
REMARK  status: ('A' for Active; 'I' for Inactive)
REMARK    1  A    between atoms: N_3  and  C_4
REMARK                            x       y       z     vdW  Elec       q    Type
REMARK                         _______ _______ _______ _____ _____    ______ ____
ROOT
ATOM      1  O   UNL     1       1.564   6.623  20.982  0.00  0.00    +0.000 OA
ATOM      2  C   UNL     1       1.800   7.282  19.975  0.00  0.00    +0.000 C 
ATOM      3  N   UNL     1       2.392   6.775  18.839  0.00  0.00    +0.000 N 
ATOM      4  N   UNL     1       1.483   8.628  19.919  0.00  0.00    +0.000 N 
ATOM      5  C   UNL     1       1.629   9.523  18.759  0.00  0.00    +0.000 C 
ATOM      6  C   UNL     1       0.351  10.337  18.510  0.00  0.00    +0.000 C 
ATOM      7  N   UNL     1      -0.034  11.021  19.737  0.00  0.00    +0.000 N 
ATOM      8  C   UNL     1      -0.177  12.380  19.770  0.00  0.00    +0.000 A 
ATOM      9  N   UNL     1      -0.038  13.071  18.628  0.00  0.00    +0.000 NA
ATOM     10  C   UNL     1      -0.187  14.407  18.674  0.00  0.00    +0.000 A 
ATOM     11  C   UNL     1      -0.458  15.095  19.825  0.00  0.00    +0.000 A 
ATOM     12  C   UNL     1      -0.576  14.317  20.947  0.00  0.00    +0.000 A 
ATOM     13  N   UNL     1      -0.443  12.978  20.943  0.00  0.00    +0.000 NA
ATOM     14  C   UNL     1      -0.219  10.187  20.921  0.00  0.00    +0.000 C 
ATOM     15  C   UNL     1       1.015   9.293  21.149  0.00  0.00    +0.000 C 
ATOM     16  H   UNL     1       2.850   7.442  18.243  0.00  0.00    +0.000 HD
ENDROOT
BRANCH   3  17
ATOM     17  C   UNL     1       2.730   5.428  18.595  0.00  0.00    +0.000 A 
ATOM     18  C   UNL     1       1.901   4.540  17.907  0.00  0.00    +0.000 A 
ATOM     19  C   UNL     1       2.261   3.199  17.765  0.00  0.00    +0.000 A 
ATOM     20  C   UNL     1       3.464   2.746  18.292  0.00  0.00    +0.000 A 
ATOM     21 CL   UNL     1       3.888   1.085  18.147  0.00  0.00    +0.000 Cl
ATOM     22  C   UNL     1       4.324   3.629  18.939  0.00  0.00    +0.000 A 
ATOM     23  C   UNL     1       3.962   4.971  19.083  0.00  0.00    +0.000 A 
ENDBRANCH   3  17
TORSDOF 1
ENDMDL
MODEL 5
REMARK VINA RESULT:      -6.8      4.313      8.327
REMARK  Name = 
REMARK  1 active torsions:
REMARK  status: ('A' for Active; 'I' for Inactive)
REMARK    1  A    between atoms: N_3  and  C_4
REMARK                            x       y       z     vdW  Elec       q    Type
REMARK                         _______ _______ _______ _____ _____    ______ ____
ROOT
ATOM      1  O   UNL     1       0.900  11.304  20.799  0.00  0.00    +0.000 OA
ATOM      2  C   UNL     1       1.088  10.909  19.653  0.00  0.00    +0.000 C 
ATOM      3  N   UNL     1       1.190  11.734  18.556  0.00  0.00    +0.000 N 
ATOM      4  N   UNL     1       1.205   9.556  19.382  0.00  0.00    +0.000 N 
ATOM      5  C   UNL     1       1.512   8.940  18.081  0.00  0.00    +0.000 C 
ATOM      6  C   UNL     1       2.627   7.891  18.203  0.00  0.00    +0.000 C 
ATOM      7  N   UNL     1       2.277   6.931  19.242  0.00  0.00    +0.000 N 
ATOM      8  C   UNL     1       2.199   5.595  18.968  0.00  0.00    +0.000 A 
ATOM      9  N   UNL     1       2.532   5.167  17.739  0.00  0.00    +0.000 NA
ATOM     10  C   UNL     1       2.455   3.849  17.485  0.00  0.00    +0.000 A 
ATOM     11  C   UNL     1       2.043   2.927  18.407  0.00  0.00    +0.000 A 
ATOM     12  C   UNL     1       1.713   3.446  19.633  0.00  0.00    +0.000 A 
ATOM     13  N   UNL     1       1.784   4.756  19.931  0.00  0.00    +0.000 NA
ATOM     14  C   UNL     1       1.984   7.476  20.564  0.00  0.00    +0.000 C 
ATOM     15  C   UNL     1       0.928   8.594  20.464  0.00  0.00    +0.000 C 
ATOM     16  H   UNL     1       0.989  11.314  17.665  0.00  0.00    +0.000 HD
ENDROOT
BRANCH   3  17
ATOM     17  C   UNL     1       1.200  13.145  18.561  0.00  0.00    +0.000 A 
ATOM     18  C   UNL     1       2.370  13.905  18.522  0.00  0.00    +0.000 A 
ATOM     19  C   UNL     1       2.314  15.297  18.606  0.00  0.00    +0.000 A 
ATOM     20  C   UNL     1       1.083  15.935  18.707  0.00  0.00    +0.000 A 
ATOM     21 CL   UNL     1       1.019  17.648  18.847  0.00  0.00    +0.000 Cl
ATOM     22  C   UNL     1      -0.095  15.194  18.699  0.00  0.00    +0.000 A 
ATOM     23  C   UNL     1      -0.037  13.800  18.617  0.00  0.00    +0.000 A 
ENDBRANCH   3  17
TORSDOF 1
ENDMDL
MODEL 6
REMARK VINA RESULT:      -6.7      0.875      1.189
REMARK  Name = 
REMARK  1 active torsions:
REMARK  status: ('A' for Active; 'I' for Inactive)
REMARK    1  A    between atoms: N_3  and  C_4
REMARK                            x       y       z     vdW  Elec       q    Type
REMARK                         _______ _______ _______ _____ _____    ______ ____
ROOT
ATOM      1  O   UNL     1       2.294   8.886  17.310  0.00  0.00    +0.000 OA
ATOM      2  C   UNL     1       2.033   8.504  18.446  0.00  0.00    +0.000 C 
ATOM      3  N   UNL     1       2.624   7.418  19.052  0.00  0.00    +0.000 N 
ATOM      4  N   UNL     1       1.087   9.161  19.215  0.00  0.00    +0.000 N 
ATOM      5  C   UNL     1       0.730   8.872  20.613  0.00  0.00    +0.000 C 
ATOM      6  C   UNL     1       0.707  10.150  21.465  0.00  0.00    +0.000 C 
ATOM      7  N   UNL     1      -0.154  11.139  20.829  0.00  0.00    +0.000 N 
ATOM      8  C   UNL     1      -1.218  11.678  21.495  0.00  0.00    +0.000 A 
ATOM      9  N   UNL     1      -1.412  11.341  22.781  0.00  0.00    +0.000 NA
ATOM     10  C   UNL     1      -2.461  11.883  23.426  0.00  0.00    +0.000 A 
ATOM     11  C   UNL     1      -3.344  12.745  22.836  0.00  0.00    +0.000 A 
ATOM     12  C   UNL     1      -3.080  13.030  21.521  0.00  0.00    +0.000 A 
ATOM     13  N   UNL     1      -2.038  12.517  20.842  0.00  0.00    +0.000 NA
ATOM     14  C   UNL     1       0.162  11.489  19.448  0.00  0.00    +0.000 C 
ATOM     15  C   UNL     1       0.278  10.218  18.583  0.00  0.00    +0.000 C 
ATOM     16  H   UNL     1       2.106   6.992  19.801  0.00  0.00    +0.000 HD
ENDROOT
BRANCH   3  17
ATOM     17  C   UNL     1       3.676   6.633  18.534  0.00  0.00    +0.000 A 
ATOM     18  C   UNL     1       4.210   5.529  19.201  0.00  0.00    +0.000 A 
ATOM     19  C   UNL     1       5.302   4.840  18.670  0.00  0.00    +0.000 A 
ATOM     20  C   UNL     1       5.849   5.240  17.457  0.00  0.00    +0.000 A 
ATOM     21 CL   UNL     1       7.216   4.412  16.822  0.00  0.00    +0.000 Cl
ATOM     22  C   UNL     1       5.297   6.310  16.757  0.00  0.00    +0.000 A 
ATOM     23  C   UNL     1       4.206   7.000  17.291  0.00  0.00    +0.000 A 
ENDBRANCH   3  17
TORSDOF 1
ENDMDL
MODEL 7
REMARK VINA RESULT:      -6.7      4.284      8.369
REMARK  Name = 
REMARK  1 active torsions:
REMARK  status: ('A' for Active; 'I' for Inactive)
REMARK    1  A    between atoms: N_3  and  C_4
REMARK                            x       y       z     vdW  Elec       q    Type
REMARK                         _______ _______ _______ _____ _____    ______ ____
ROOT
ATOM      1  O   UNL     1       0.734  11.487  20.853  0.00  0.00    +0.000 OA
ATOM      2  C   UNL     1       0.956  11.103  19.710  0.00  0.00    +0.000 C 
ATOM      3  N   UNL     1       1.069  11.938  18.621  0.00  0.00    +0.000 N 
ATOM      4  N   UNL     1       1.105   9.755  19.433  0.00  0.00    +0.000 N 
ATOM      5  C   UNL     1       1.454   9.153  18.135  0.00  0.00    +0.000 C 
ATOM      6  C   UNL     1       2.585   8.124  18.277  0.00  0.00    +0.000 C 
ATOM      7  N   UNL     1       2.229   7.151  19.301  0.00  0.00    +0.000 N 
ATOM      8  C   UNL     1       2.181   5.815  19.016  0.00  0.00    +0.000 A 
ATOM      9  N   UNL     1       2.551   5.403  17.793  0.00  0.00    +0.000 NA
ATOM     10  C   UNL     1       2.505   4.085  17.528  0.00  0.00    +0.000 A 
ATOM     11  C   UNL     1       2.088   3.150  18.435  0.00  0.00    +0.000 A 
ATOM     12  C   UNL     1       1.720   3.653  19.655  0.00  0.00    +0.000 A 
ATOM     13  N   UNL     1       1.760   4.962  19.964  0.00  0.00    +0.000 NA
ATOM     14  C   UNL     1       1.894   7.681  20.619  0.00  0.00    +0.000 C 
ATOM     15  C   UNL     1       0.820   8.780  20.501  0.00  0.00    +0.000 C 
ATOM     16  H   UNL     1       0.897  11.521  17.723  0.00  0.00    +0.000 HD
ENDROOT
BRANCH   3  17
ATOM     17  C   UNL     1       1.053  13.349  18.635  0.00  0.00    +0.000 A 
ATOM     18  C   UNL     1      -0.119  14.102  18.731  0.00  0.00    +0.000 A 
ATOM     19  C   UNL     1      -0.073  15.496  18.663  0.00  0.00    +0.000 A 
ATOM     20  C   UNL     1       1.149  16.142  18.520  0.00  0.00    +0.000 A 
ATOM     21 CL   UNL     1       1.199  17.856  18.400  0.00  0.00    +0.000 Cl
ATOM     22  C   UNL     1       2.330  15.406  18.471  0.00  0.00    +0.000 A 
ATOM     23  C   UNL     1       2.283  14.011  18.537  0.00  0.00    +0.000 A 
ENDBRANCH   3  17
TORSDOF 1
ENDMDL
MODEL 8
REMARK VINA RESULT:      -6.7      2.295      2.976
REMARK  Name = 
REMARK  1 active torsions:
REMARK  status: ('A' for Active; 'I' for Inactive)
REMARK    1  A    between atoms: N_3  and  C_4
REMARK                            x       y       z     vdW  Elec       q    Type
REMARK                         _______ _______ _______ _____ _____    ______ ____
ROOT
ATOM      1  O   UNL     1       1.428   6.949  21.192  0.00  0.00    +0.000 OA
ATOM      2  C   UNL     1       1.701   7.581  20.177  0.00  0.00    +0.000 C 
ATOM      3  N   UNL     1       2.341   7.047  19.081  0.00  0.00    +0.000 N 
ATOM      4  N   UNL     1       1.379   8.923  20.070  0.00  0.00    +0.000 N 
ATOM      5  C   UNL     1       1.568   9.786  18.893  0.00  0.00    +0.000 C 
ATOM      6  C   UNL     1       0.296  10.585  18.569  0.00  0.00    +0.000 C 
ATOM      7  N   UNL     1      -0.141  11.301  19.760  0.00  0.00    +0.000 N 
ATOM      8  C   UNL     1      -0.293  12.659  19.749  0.00  0.00    +0.000 A 
ATOM      9  N   UNL     1      -0.111  13.319  18.594  0.00  0.00    +0.000 NA
ATOM     10  C   UNL     1      -0.269  14.654  18.595  0.00  0.00    +0.000 A 
ATOM     11  C   UNL     1      -0.590  15.372  19.714  0.00  0.00    +0.000 A 
ATOM     12  C   UNL     1      -0.750  14.626  20.853  0.00  0.00    +0.000 A 
ATOM     13  N   UNL     1      -0.610  13.288  20.892  0.00  0.00    +0.000 NA
ATOM     14  C   UNL     1      -0.370  10.499  20.958  0.00  0.00    +0.000 C 
ATOM     15  C   UNL     1       0.859   9.620  21.261  0.00  0.00    +0.000 C 
ATOM     16  H   UNL     1       2.819   7.700  18.485  0.00  0.00    +0.000 HD
ENDROOT
BRANCH   3  17
ATOM     17  C   UNL     1       2.696   5.695  18.889  0.00  0.00    +0.000 A 
ATOM     18  C   UNL     1       3.827   5.109  19.462  0.00  0.00    +0.000 A 
ATOM     19  C   UNL     1       4.164   3.786  19.171  0.00  0.00    +0.000 A 
ATOM     20  C   UNL     1       3.358   3.037  18.321  0.00  0.00    +0.000 A 
ATOM     21 CL   UNL     1       3.795   1.420  17.935  0.00  0.00    +0.000 Cl
ATOM     22  C   UNL     1       2.201   3.593  17.780  0.00  0.00    +0.000 A 
ATOM     23  C   UNL     1       1.866   4.918  18.070  0.00  0.00    +0.000 A 
ENDBRANCH   3  17
TORSDOF 1
ENDMDL
MODEL 9
REMARK VINA RESULT:      -6.6      3.723      9.067
REMARK  Name = 
REMARK  1 active torsions:
REMARK  status: ('A' for Active; 'I' for Inactive)
REMARK    1  A    between atoms: N_3  and  C_4
REMARK                            x       y       z     vdW  Elec       q    Type
REMARK                         _______ _______ _______ _____ _____    ______ ____
ROOT
ATOM      1  O   UNL     1       1.506   7.618  21.297  0.00  0.00    +0.000 OA
ATOM      2  C   UNL     1       1.631   8.096  20.174  0.00  0.00    +0.000 C 
ATOM      3  N   UNL     1       1.120   9.316  19.790  0.00  0.00    +0.000 N 
ATOM      4  N   UNL     1       2.313   7.409  19.184  0.00  0.00    +0.000 N 
ATOM      5  C   UNL     1       2.614   7.886  17.825  0.00  0.00    +0.000 C 
ATOM      6  C   UNL     1       4.090   7.665  17.463  0.00  0.00    +0.000 C 
ATOM      7  N   UNL     1       4.438   6.269  17.688  0.00  0.00    +0.000 N 
ATOM      8  C   UNL     1       4.943   5.498  16.679  0.00  0.00    +0.000 A 
ATOM      9  N   UNL     1       5.192   6.072  15.491  0.00  0.00    +0.000 NA
ATOM     10  C   UNL     1       5.694   5.303  14.508  0.00  0.00    +0.000 A 
ATOM     11  C   UNL     1       5.949   3.968  14.654  0.00  0.00    +0.000 A 
ATOM     12  C   UNL     1       5.659   3.457  15.892  0.00  0.00    +0.000 A 
ATOM     13  N   UNL     1       5.165   4.193  16.905  0.00  0.00    +0.000 NA
ATOM     14  C   UNL     1       4.187   5.738  19.025  0.00  0.00    +0.000 C 
ATOM     15  C   UNL     1       2.734   6.022  19.452  0.00  0.00    +0.000 C 
ATOM     16  H   UNL     1       0.970   9.443  18.805  0.00  0.00    +0.000 HD
ENDROOT
BRANCH   3  17
ATOM     17  C   UNL     1       0.469  10.255  20.618  0.00  0.00    +0.000 A 
ATOM     18  C   UNL     1       0.439  11.624  20.349  0.00  0.00    +0.000 A 
ATOM     19  C   UNL     1      -0.158  12.510  21.248  0.00  0.00    +0.000 A 
ATOM     20  C   UNL     1      -0.747  12.025  22.410  0.00  0.00    +0.000 A 
ATOM     21 CL   UNL     1      -1.449  13.121  23.533  0.00  0.00    +0.000 Cl
ATOM     22  C   UNL     1      -0.767  10.657  22.668  0.00  0.00    +0.000 A 
ATOM     23  C   UNL     1      -0.167   9.772  21.769  0.00  0.00    +0.000 A 
ENDBRANCH   3  17
TORSDOF 1
ENDMDL
