MODEL 1
REMARK VINA RESULT:      -7.8      0.000      0.000
REMARK  Name = 
REMARK  7 active torsions:
REMARK  status: ('A' for Active; 'I' for Inactive)
REMARK    1  A    between atoms: C_1  and  O_2
REMARK    2  A    between atoms: O_2  and  C_3
REMARK    3  A    between atoms: C_6  and  C_7
REMARK    4  A    between atoms: C_9  and  S_10
REMARK    5  A    between atoms: S_10  and  N_13
REMARK    6  A    between atoms: C_17  and  C_19
REMARK    7  A    between atoms: C_23  and  C_24
REMARK                            x       y       z     vdW  Elec       q    Type
REMARK                         _______ _______ _______ _____ _____    ______ ____
ROOT
ATOM      1  N   UNL     1       1.404  10.082  19.333  0.00  0.00    +0.000 NA
ATOM      2  C   UNL     1       1.783   9.471  20.624  0.00  0.00    +0.000 C 
ATOM      3  C   UNL     1       1.558   7.957  20.647  0.00  0.00    +0.000 C 
ATOM      4  N   UNL     1       2.123   7.216  19.511  0.00  0.00    +0.000 N 
ATOM      5  C   UNL     1       2.113   5.806  19.685  0.00  0.00    +0.000 C 
ATOM      6  O   UNL     1       1.796   5.347  20.788  0.00  0.00    +0.000 OA
ATOM      7  C   UNL     1       2.069   7.878  18.197  0.00  0.00    +0.000 C 
ATOM      8  C   UNL     1       2.160   9.425  18.217  0.00  0.00    +0.000 C 
ENDROOT
BRANCH   5   9
ATOM      9  C   UNL     1       2.488   4.882  18.603  0.00  0.00    +0.000 A 
ATOM     10  N   UNL     1       1.637   3.957  18.001  0.00  0.00    +0.000 NA
ATOM     11  C   UNL     1       2.402   3.308  17.157  0.00  0.00    +0.000 A 
ATOM     12  O   UNL     1       3.692   3.717  17.126  0.00  0.00    +0.000 OA
ATOM     13  C   UNL     1       3.764   4.738  18.045  0.00  0.00    +0.000 A 
BRANCH  13  14
ATOM     14  C   UNL     1       5.083   5.380  18.122  0.00  0.00    +0.000 A 
ATOM     15  C   UNL     1       6.011   5.043  19.121  0.00  0.00    +0.000 A 
ATOM     16  C   UNL     1       7.232   5.719  19.236  0.00  0.00    +0.000 A 
ATOM     17  C   UNL     1       7.539   6.747  18.354  0.00  0.00    +0.000 A 
ATOM     18  F   UNL     1       8.690   7.416  18.488  0.00  0.00    +0.000 F 
ATOM     19  C   UNL     1       6.649   7.101  17.350  0.00  0.00    +0.000 A 
ATOM     20  C   UNL     1       5.433   6.418  17.233  0.00  0.00    +0.000 A 
ENDBRANCH  13  14
ENDBRANCH   5   9
BRANCH   1  21
ATOM     21  S   UNL     1      -0.245  10.381  19.037  0.00  0.00    +0.000 S 
ATOM     22  O   UNL     1      -0.974   9.786  20.142  0.00  0.00    +0.000 OA
ATOM     23  O   UNL     1      -0.540   9.959  17.683  0.00  0.00    +0.000 OA
BRANCH  21  30
ATOM     24  C   UNL     1      -1.740  12.685  19.532  0.00  0.00    +0.000 A 
ATOM     25  C   UNL     1      -1.794  14.031  19.933  0.00  0.00    +0.000 A 
ATOM     26  C   UNL     1      -0.710  14.880  19.737  0.00  0.00    +0.000 A 
ATOM     27  C   UNL     1       0.457  14.395  19.146  0.00  0.00    +0.000 A 
ATOM     28  C   UNL     1       1.562  15.347  18.792  0.00  0.00    +0.000 C 
ATOM     29  C   UNL     1       0.569  13.015  18.892  0.00  0.00    +0.000 A 
ATOM     30  C   UNL     1      -0.521  12.149  19.109  0.00  0.00    +0.000 A 
BRANCH  24  32
ATOM     31  C   UNL     1      -4.007  12.604  20.072  0.00  0.00    +0.000 C 
ATOM     32  O   UNL     1      -2.874  11.919  19.518  0.00  0.00    +0.000 OA
ENDBRANCH  24  32
ENDBRANCH  21  30
ENDBRANCH   1  21
TORSDOF 5
ENDMDL
MODEL 2
REMARK VINA RESULT:      -7.5      0.917      1.948
REMARK  Name = 
REMARK  7 active torsions:
REMARK  status: ('A' for Active; 'I' for Inactive)
REMARK    1  A    between atoms: C_1  and  O_2
REMARK    2  A    between atoms: O_2  and  C_3
REMARK    3  A    between atoms: C_6  and  C_7
REMARK    4  A    between atoms: C_9  and  S_10
REMARK    5  A    between atoms: S_10  and  N_13
REMARK    6  A    between atoms: C_17  and  C_19
REMARK    7  A    between atoms: C_23  and  C_24
REMARK                            x       y       z     vdW  Elec       q    Type
REMARK                         _______ _______ _______ _____ _____    ______ ____
ROOT
ATOM      1  N   UNL     1       1.392   9.944  19.627  0.00  0.00    +0.000 NA
ATOM      2  C   UNL     1       1.797   9.276  20.881  0.00  0.00    +0.000 C 
ATOM      3  C   UNL     1       1.585   7.761  20.837  0.00  0.00    +0.000 C 
ATOM      4  N   UNL     1       2.137   7.080  19.658  0.00  0.00    +0.000 N 
ATOM      5  C   UNL     1       2.142   5.662  19.766  0.00  0.00    +0.000 C 
ATOM      6  O   UNL     1       1.846   5.149  20.851  0.00  0.00    +0.000 OA
ATOM      7  C   UNL     1       2.056   7.802  18.377  0.00  0.00    +0.000 C 
ATOM      8  C   UNL     1       2.135   9.347  18.469  0.00  0.00    +0.000 C 
ENDROOT
BRANCH   5   9
ATOM      9  C   UNL     1       2.506   4.794  18.636  0.00  0.00    +0.000 A 
ATOM     10  N   UNL     1       1.656   3.882  18.011  0.00  0.00    +0.000 NA
ATOM     11  C   UNL     1       2.412   3.284  17.123  0.00  0.00    +0.000 A 
ATOM     12  O   UNL     1       3.695   3.716  17.081  0.00  0.00    +0.000 OA
ATOM     13  C   UNL     1       3.771   4.697  18.043  0.00  0.00    +0.000 A 
BRANCH  13  14
ATOM     14  C   UNL     1       5.081   5.357  18.119  0.00  0.00    +0.000 A 
ATOM     15  C   UNL     1       6.017   5.027  19.114  0.00  0.00    +0.000 A 
ATOM     16  C   UNL     1       7.229   5.721  19.228  0.00  0.00    +0.000 A 
ATOM     17  C   UNL     1       7.518   6.757  18.351  0.00  0.00    +0.000 A 
ATOM     18  F   UNL     1       8.661   7.441  18.484  0.00  0.00    +0.000 F 
ATOM     19  C   UNL     1       6.621   7.104  17.351  0.00  0.00    +0.000 A 
ATOM     20  C   UNL     1       5.413   6.404  17.234  0.00  0.00    +0.000 A 
ENDBRANCH  13  14
ENDBRANCH   5   9
BRANCH   1  21
ATOM     21  S   UNL     1      -0.264  10.242  19.371  0.00  0.00    +0.000 S 
ATOM     22  O   UNL     1      -0.981   9.397  20.309  0.00  0.00    +0.000 OA
ATOM     23  O   UNL     1      -0.528  10.112  17.953  0.00  0.00    +0.000 OA
BRANCH  21  30
ATOM     24  C   UNL     1       0.001  13.012  19.159  0.00  0.00    +0.000 A 
ATOM     25  C   UNL     1      -0.562  14.295  19.270  0.00  0.00    +0.000 A 
ATOM     26  C   UNL     1      -1.592  14.549  20.169  0.00  0.00    +0.000 A 
ATOM     27  C   UNL     1      -2.089  13.518  20.967  0.00  0.00    +0.000 A 
ATOM     28  C   UNL     1      -3.087  13.829  22.045  0.00  0.00    +0.000 C 
ATOM     29  C   UNL     1      -1.638  12.204  20.744  0.00  0.00    +0.000 A 
ATOM     30  C   UNL     1      -0.608  11.941  19.819  0.00  0.00    +0.000 A 
BRANCH  24  32
ATOM     31  C   UNL     1       2.264  13.550  18.989  0.00  0.00    +0.000 C 
ATOM     32  O   UNL     1       1.154  12.819  18.447  0.00  0.00    +0.000 OA
ENDBRANCH  24  32
ENDBRANCH  21  30
ENDBRANCH   1  21
TORSDOF 5
ENDMDL
MODEL 3
REMARK VINA RESULT:      -7.2      2.209      3.142
REMARK  Name = 
REMARK  7 active torsions:
REMARK  status: ('A' for Active; 'I' for Inactive)
REMARK    1  A    between atoms: C_1  and  O_2
REMARK    2  A    between atoms: O_2  and  C_3
REMARK    3  A    between atoms: C_6  and  C_7
REMARK    4  A    between atoms: C_9  and  S_10
REMARK    5  A    between atoms: S_10  and  N_13
REMARK    6  A    between atoms: C_17  and  C_19
REMARK    7  A    between atoms: C_23  and  C_24
REMARK                            x       y       z     vdW  Elec       q    Type
REMARK                         _______ _______ _______ _____ _____    ______ ____
ROOT
ATOM      1  N   UNL     1      -0.100  11.317  20.093  0.00  0.00    +0.000 NA
ATOM      2  C   UNL     1       0.096  11.115  18.642  0.00  0.00    +0.000 C 
ATOM      3  C   UNL     1       1.277  10.192  18.331  0.00  0.00    +0.000 C 
ATOM      4  N   UNL     1       1.293   8.918  19.062  0.00  0.00    +0.000 N 
ATOM      5  C   UNL     1       2.253   7.990  18.574  0.00  0.00    +0.000 C 
ATOM      6  O   UNL     1       2.854   8.254  17.527  0.00  0.00    +0.000 OA
ATOM      7  C   UNL     1       0.821   8.948  20.457  0.00  0.00    +0.000 C 
ATOM      8  C   UNL     1      -0.280   9.992  20.772  0.00  0.00    +0.000 C 
ENDROOT
BRANCH   5   9
ATOM      9  C   UNL     1       2.536   6.722  19.265  0.00  0.00    +0.000 A 
ATOM     10  N   UNL     1       1.891   6.267  20.415  0.00  0.00    +0.000 NA
ATOM     11  C   UNL     1       2.507   5.150  20.716  0.00  0.00    +0.000 A 
ATOM     12  O   UNL     1       3.504   4.801  19.869  0.00  0.00    +0.000 OA
ATOM     13  C   UNL     1       3.530   5.798  18.921  0.00  0.00    +0.000 A 
BRANCH  13  14
ATOM     14  C   UNL     1       4.512   5.578  17.850  0.00  0.00    +0.000 A 
ATOM     15  C   UNL     1       4.307   4.616  16.847  0.00  0.00    +0.000 A 
ATOM     16  C   UNL     1       5.287   4.357  15.880  0.00  0.00    +0.000 A 
ATOM     17  C   UNL     1       6.487   5.054  15.907  0.00  0.00    +0.000 A 
ATOM     18  F   UNL     1       7.436   4.779  15.004  0.00  0.00    +0.000 F 
ATOM     19  C   UNL     1       6.720   6.017  16.878  0.00  0.00    +0.000 A 
ATOM     20  C   UNL     1       5.735   6.280  17.839  0.00  0.00    +0.000 A 
ENDBRANCH  13  14
ENDBRANCH   5   9
BRANCH   1  21
ATOM     21  S   UNL     1       0.907  12.430  20.895  0.00  0.00    +0.000 S 
ATOM     22  O   UNL     1       2.126  11.716  21.225  0.00  0.00    +0.000 OA
ATOM     23  O   UNL     1       0.137  13.049  21.954  0.00  0.00    +0.000 OA
BRANCH  21  30
ATOM     24  C   UNL     1       0.455  14.744  19.401  0.00  0.00    +0.000 A 
ATOM     25  C   UNL     1       0.947  15.921  18.809  0.00  0.00    +0.000 A 
ATOM     26  C   UNL     1       2.268  16.008  18.384  0.00  0.00    +0.000 A 
ATOM     27  C   UNL     1       3.129  14.923  18.556  0.00  0.00    +0.000 A 
ATOM     28  C   UNL     1       4.504  14.963  17.956  0.00  0.00    +0.000 C 
ATOM     29  C   UNL     1       2.682  13.808  19.289  0.00  0.00    +0.000 A 
ATOM     30  C   UNL     1       1.349  13.725  19.739  0.00  0.00    +0.000 A 
BRANCH  24  32
ATOM     31  C   UNL     1      -1.472  15.681  20.321  0.00  0.00    +0.000 C 
ATOM     32  O   UNL     1      -0.889  14.582  19.607  0.00  0.00    +0.000 OA
ENDBRANCH  24  32
ENDBRANCH  21  30
ENDBRANCH   1  21
TORSDOF 5
ENDMDL
MODEL 4
REMARK VINA RESULT:      -7.2      0.914      1.249
REMARK  Name = 
REMARK  7 active torsions:
REMARK  status: ('A' for Active; 'I' for Inactive)
REMARK    1  A    between atoms: C_1  and  O_2
REMARK    2  A    between atoms: O_2  and  C_3
REMARK    3  A    between atoms: C_6  and  C_7
REMARK    4  A    between atoms: C_9  and  S_10
REMARK    5  A    between atoms: S_10  and  N_13
REMARK    6  A    between atoms: C_17  and  C_19
REMARK    7  A    between atoms: C_23  and  C_24
REMARK                            x       y       z     vdW  Elec       q    Type
REMARK                         _______ _______ _______ _____ _____    ______ ____
ROOT
ATOM      1  N   UNL     1       1.305   9.942  19.707  0.00  0.00    +0.000 NA
ATOM      2  C   UNL     1       1.642   9.250  20.969  0.00  0.00    +0.000 C 
ATOM      3  C   UNL     1       1.448   7.734  20.879  0.00  0.00    +0.000 C 
ATOM      4  N   UNL     1       2.077   7.084  19.721  0.00  0.00    +0.000 N 
ATOM      5  C   UNL     1       2.090   5.665  19.798  0.00  0.00    +0.000 C 
ATOM      6  O   UNL     1       1.736   5.125  20.852  0.00  0.00    +0.000 OA
ATOM      7  C   UNL     1       2.064   7.834  18.453  0.00  0.00    +0.000 C 
ATOM      8  C   UNL     1       2.122   9.377  18.583  0.00  0.00    +0.000 C 
ENDROOT
BRANCH   5   9
ATOM      9  C   UNL     1       2.530   4.825  18.673  0.00  0.00    +0.000 A 
ATOM     10  N   UNL     1       1.744   3.878  18.017  0.00  0.00    +0.000 NA
ATOM     11  C   UNL     1       2.555   3.326  17.147  0.00  0.00    +0.000 A 
ATOM     12  O   UNL     1       3.815   3.821  17.146  0.00  0.00    +0.000 OA
ATOM     13  C   UNL     1       3.814   4.796  18.117  0.00  0.00    +0.000 A 
BRANCH  13  14
ATOM     14  C   UNL     1       5.088   5.519  18.236  0.00  0.00    +0.000 A 
ATOM     15  C   UNL     1       5.445   6.539  17.339  0.00  0.00    +0.000 A 
ATOM     16  C   UNL     1       6.697   7.164  17.412  0.00  0.00    +0.000 A 
ATOM     17  C   UNL     1       7.609   6.774  18.383  0.00  0.00    +0.000 A 
ATOM     18  F   UNL     1       8.817   7.347  18.428  0.00  0.00    +0.000 F 
ATOM     19  C   UNL     1       7.286   5.776  19.291  0.00  0.00    +0.000 A 
ATOM     20  C   UNL     1       6.031   5.158  19.221  0.00  0.00    +0.000 A 
ENDBRANCH  13  14
ENDBRANCH   5   9
BRANCH   1  21
ATOM     21  S   UNL     1      -0.336  10.230  19.360  0.00  0.00    +0.000 S 
ATOM     22  O   UNL     1      -1.098   9.357  20.233  0.00  0.00    +0.000 OA
ATOM     23  O   UNL     1      -0.513  10.132  17.926  0.00  0.00    +0.000 OA
BRANCH  21  30
ATOM     24  C   UNL     1      -1.973  12.482  19.559  0.00  0.00    +0.000 A 
ATOM     25  C   UNL     1      -2.365  13.637  20.257  0.00  0.00    +0.000 A 
ATOM     26  C   UNL     1      -1.463  14.328  21.059  0.00  0.00    +0.000 A 
ATOM     27  C   UNL     1      -0.152  13.868  21.190  0.00  0.00    +0.000 A 
ATOM     28  C   UNL     1       0.857  14.700  21.925  0.00  0.00    +0.000 C 
ATOM     29  C   UNL     1       0.195  12.628  20.622  0.00  0.00    +0.000 A 
ATOM     30  C   UNL     1      -0.724  11.915  19.825  0.00  0.00    +0.000 A 
BRANCH  24  32
ATOM     31  C   UNL     1      -4.155  11.853  19.029  0.00  0.00    +0.000 C 
ATOM     32  O   UNL     1      -2.788  11.939  18.602  0.00  0.00    +0.000 OA
ENDBRANCH  24  32
ENDBRANCH  21  30
ENDBRANCH   1  21
TORSDOF 5
ENDMDL
MODEL 5
REMARK VINA RESULT:      -7.2      1.019      1.182
REMARK  Name = 
REMARK  7 active torsions:
REMARK  status: ('A' for Active; 'I' for Inactive)
REMARK    1  A    between atoms: C_1  and  O_2
REMARK    2  A    between atoms: O_2  and  C_3
REMARK    3  A    between atoms: C_6  and  C_7
REMARK    4  A    between atoms: C_9  and  S_10
REMARK    5  A    between atoms: S_10  and  N_13
REMARK    6  A    between atoms: C_17  and  C_19
REMARK    7  A    between atoms: C_23  and  C_24
REMARK                            x       y       z     vdW  Elec       q    Type
REMARK                         _______ _______ _______ _____ _____    ______ ____
ROOT
ATOM      1  N   UNL     1       1.377  10.018  19.507  0.00  0.00    +0.000 NA
ATOM      2  C   UNL     1       1.775   9.371  20.776  0.00  0.00    +0.000 C 
ATOM      3  C   UNL     1       1.569   7.855  20.753  0.00  0.00    +0.000 C 
ATOM      4  N   UNL     1       2.134   7.157  19.590  0.00  0.00    +0.000 N 
ATOM      5  C   UNL     1       2.143   5.742  19.720  0.00  0.00    +0.000 C 
ATOM      6  O   UNL     1       1.840   5.245  20.810  0.00  0.00    +0.000 OA
ATOM      7  C   UNL     1       2.061   7.859  18.298  0.00  0.00    +0.000 C 
ATOM      8  C   UNL     1       2.133   9.405  18.365  0.00  0.00    +0.000 C 
ENDROOT
BRANCH   5   9
ATOM      9  C   UNL     1       2.521   4.857  18.607  0.00  0.00    +0.000 A 
ATOM     10  N   UNL     1       1.671   3.953  17.970  0.00  0.00    +0.000 NA
ATOM     11  C   UNL     1       2.439   3.335  17.105  0.00  0.00    +0.000 A 
ATOM     12  O   UNL     1       3.729   3.747  17.091  0.00  0.00    +0.000 OA
ATOM     13  C   UNL     1       3.797   4.735  18.045  0.00  0.00    +0.000 A 
BRANCH  13  14
ATOM     14  C   UNL     1       5.116   5.375  18.148  0.00  0.00    +0.000 A 
ATOM     15  C   UNL     1       6.029   5.029  19.158  0.00  0.00    +0.000 A 
ATOM     16  C   UNL     1       7.249   5.703  19.296  0.00  0.00    +0.000 A 
ATOM     17  C   UNL     1       7.569   6.737  18.428  0.00  0.00    +0.000 A 
ATOM     18  F   UNL     1       8.719   7.405  18.584  0.00  0.00    +0.000 F 
ATOM     19  C   UNL     1       6.695   7.101  17.413  0.00  0.00    +0.000 A 
ATOM     20  C   UNL     1       5.480   6.419  17.272  0.00  0.00    +0.000 A 
ENDBRANCH  13  14
ENDBRANCH   5   9
BRANCH   1  21
ATOM     21  S   UNL     1      -0.277  10.304  19.233  0.00  0.00    +0.000 S 
ATOM     22  O   UNL     1      -1.000   9.362  20.067  0.00  0.00    +0.000 OA
ATOM     23  O   UNL     1      -0.500  10.303  17.802  0.00  0.00    +0.000 OA
BRANCH  21  30
ATOM     24  C   UNL     1      -1.099  12.172  21.138  0.00  0.00    +0.000 A 
ATOM     25  C   UNL     1      -1.031  13.472  21.668  0.00  0.00    +0.000 A 
ATOM     26  C   UNL     1      -0.730  14.561  20.856  0.00  0.00    +0.000 A 
ATOM     27  C   UNL     1      -0.477  14.367  19.497  0.00  0.00    +0.000 A 
ATOM     28  C   UNL     1      -0.310  15.556  18.596  0.00  0.00    +0.000 C 
ATOM     29  C   UNL     1      -0.387  13.054  19.001  0.00  0.00    +0.000 A 
ATOM     30  C   UNL     1      -0.672  11.948  19.826  0.00  0.00    +0.000 A 
BRANCH  24  32
ATOM     31  C   UNL     1      -0.869  10.914  23.087  0.00  0.00    +0.000 C 
ATOM     32  O   UNL     1      -1.613  11.145  21.883  0.00  0.00    +0.000 OA
ENDBRANCH  24  32
ENDBRANCH  21  30
ENDBRANCH   1  21
TORSDOF 5
ENDMDL
MODEL 6
REMARK VINA RESULT:      -7.2      3.538      8.874
REMARK  Name = 
REMARK  7 active torsions:
REMARK  status: ('A' for Active; 'I' for Inactive)
REMARK    1  A    between atoms: C_1  and  O_2
REMARK    2  A    between atoms: O_2  and  C_3
REMARK    3  A    between atoms: C_6  and  C_7
REMARK    4  A    between atoms: C_9  and  S_10
REMARK    5  A    between atoms: S_10  and  N_13
REMARK    6  A    between atoms: C_17  and  C_19
REMARK    7  A    between atoms: C_23  and  C_24
REMARK                            x       y       z     vdW  Elec       q    Type
REMARK                         _______ _______ _______ _____ _____    ______ ____
ROOT
ATOM      1  N   UNL     1       2.448   3.177  18.545  0.00  0.00    +0.000 NA
ATOM      2  C   UNL     1       1.785   3.415  19.844  0.00  0.00    +0.000 C 
ATOM      3  C   UNL     1       2.067   4.813  20.401  0.00  0.00    +0.000 C 
ATOM      4  N   UNL     1       1.840   5.924  19.467  0.00  0.00    +0.000 N 
ATOM      5  C   UNL     1       1.870   7.205  20.081  0.00  0.00    +0.000 C 
ATOM      6  O   UNL     1       1.921   7.269  21.315  0.00  0.00    +0.000 OA
ATOM      7  C   UNL     1       2.192   5.685  18.057  0.00  0.00    +0.000 C 
ATOM      8  C   UNL     1       2.027   4.227  17.559  0.00  0.00    +0.000 C 
ENDROOT
BRANCH   5   9
ATOM      9  C   UNL     1       1.823   8.449  19.298  0.00  0.00    +0.000 A 
ATOM     10  N   UNL     1       2.487   8.669  18.091  0.00  0.00    +0.000 NA
ATOM     11  C   UNL     1       2.225   9.920  17.797  0.00  0.00    +0.000 A 
ATOM     12  O   UNL     1       1.436  10.563  18.690  0.00  0.00    +0.000 OA
ATOM     13  C   UNL     1       1.158   9.627  19.659  0.00  0.00    +0.000 A 
BRANCH  13  14
ATOM     14  C   UNL     1       0.245  10.105  20.706  0.00  0.00    +0.000 A 
ATOM     15  C   UNL     1      -0.667  11.147  20.471  0.00  0.00    +0.000 A 
ATOM     16  C   UNL     1      -1.474  11.651  21.500  0.00  0.00    +0.000 A 
ATOM     17  C   UNL     1      -1.375  11.120  22.778  0.00  0.00    +0.000 A 
ATOM     18  F   UNL     1      -2.121  11.626  23.768  0.00  0.00    +0.000 F 
ATOM     19  C   UNL     1      -0.491  10.084  23.044  0.00  0.00    +0.000 A 
ATOM     20  C   UNL     1       0.309   9.577  22.012  0.00  0.00    +0.000 A 
ENDBRANCH  13  14
ENDBRANCH   5   9
BRANCH   1  21
ATOM     21  S   UNL     1       4.103   2.780  18.546  0.00  0.00    +0.000 S 
ATOM     22  O   UNL     1       4.198   1.420  18.050  0.00  0.00    +0.000 OA
ATOM     23  O   UNL     1       4.638   3.099  19.853  0.00  0.00    +0.000 OA
BRANCH  21  30
ATOM     24  C   UNL     1       5.804   4.852  17.770  0.00  0.00    +0.000 A 
ATOM     25  C   UNL     1       6.711   5.392  16.841  0.00  0.00    +0.000 A 
ATOM     26  C   UNL     1       6.628   5.070  15.490  0.00  0.00    +0.000 A 
ATOM     27  C   UNL     1       5.643   4.188  15.044  0.00  0.00    +0.000 A 
ATOM     28  C   UNL     1       5.457   3.966  13.571  0.00  0.00    +0.000 C 
ATOM     29  C   UNL     1       4.840   3.526  15.991  0.00  0.00    +0.000 A 
ATOM     30  C   UNL     1       4.936   3.835  17.363  0.00  0.00    +0.000 A 
BRANCH  24  32
ATOM     31  C   UNL     1       7.044   5.621  19.589  0.00  0.00    +0.000 C 
ATOM     32  O   UNL     1       5.745   5.342  19.047  0.00  0.00    +0.000 OA
ENDBRANCH  24  32
ENDBRANCH  21  30
ENDBRANCH   1  21
TORSDOF 5
ENDMDL
MODEL 7
REMARK VINA RESULT:      -7.1      2.712      3.773
REMARK  Name = 
REMARK  7 active torsions:
REMARK  status: ('A' for Active; 'I' for Inactive)
REMARK    1  A    between atoms: C_1  and  O_2
REMARK    2  A    between atoms: O_2  and  C_3
REMARK    3  A    between atoms: C_6  and  C_7
REMARK    4  A    between atoms: C_9  and  S_10
REMARK    5  A    between atoms: S_10  and  N_13
REMARK    6  A    between atoms: C_17  and  C_19
REMARK    7  A    between atoms: C_23  and  C_24
REMARK                            x       y       z     vdW  Elec       q    Type
REMARK                         _______ _______ _______ _____ _____    ______ ____
ROOT
ATOM      1  N   UNL     1      -0.294  11.138  19.966  0.00  0.00    +0.000 NA
ATOM      2  C   UNL     1      -0.105  10.913  18.518  0.00  0.00    +0.000 C 
ATOM      3  C   UNL     1       1.120  10.048  18.211  0.00  0.00    +0.000 C 
ATOM      4  N   UNL     1       1.214   8.794  18.970  0.00  0.00    +0.000 N 
ATOM      5  C   UNL     1       2.217   7.908  18.491  0.00  0.00    +0.000 C 
ATOM      6  O   UNL     1       2.790   8.179  17.430  0.00  0.00    +0.000 OA
ATOM      7  C   UNL     1       0.759   8.832  20.370  0.00  0.00    +0.000 C 
ATOM      8  C   UNL     1      -0.394   9.821  20.677  0.00  0.00    +0.000 C 
ENDROOT
BRANCH   5   9
ATOM      9  C   UNL     1       2.577   6.674  19.206  0.00  0.00    +0.000 A 
ATOM     10  N   UNL     1       1.971   6.211  20.374  0.00  0.00    +0.000 NA
ATOM     11  C   UNL     1       2.651   5.136  20.693  0.00  0.00    +0.000 A 
ATOM     12  O   UNL     1       3.654   4.822  19.840  0.00  0.00    +0.000 OA
ATOM     13  C   UNL     1       3.615   5.797  18.870  0.00  0.00    +0.000 A 
BRANCH  13  14
ATOM     14  C   UNL     1       4.594   5.604  17.791  0.00  0.00    +0.000 A 
ATOM     15  C   UNL     1       4.420   4.621  16.802  0.00  0.00    +0.000 A 
ATOM     16  C   UNL     1       5.399   4.391  15.827  0.00  0.00    +0.000 A 
ATOM     17  C   UNL     1       6.568   5.140  15.832  0.00  0.00    +0.000 A 
ATOM     18  F   UNL     1       7.518   4.894  14.921  0.00  0.00    +0.000 F 
ATOM     19  C   UNL     1       6.770   6.125  16.788  0.00  0.00    +0.000 A 
ATOM     20  C   UNL     1       5.785   6.358  17.757  0.00  0.00    +0.000 A 
ENDBRANCH  13  14
ENDBRANCH   5   9
BRANCH   1  21
ATOM     21  S   UNL     1       0.662  12.322  20.728  0.00  0.00    +0.000 S 
ATOM     22  O   UNL     1       0.924  13.343  19.729  0.00  0.00    +0.000 OA
ATOM     23  O   UNL     1       1.775  11.654  21.370  0.00  0.00    +0.000 OA
BRANCH  21  30
ATOM     24  C   UNL     1       0.001  14.350  22.529  0.00  0.00    +0.000 A 
ATOM     25  C   UNL     1      -0.974  15.062  23.247  0.00  0.00    +0.000 A 
ATOM     26  C   UNL     1      -2.169  14.457  23.624  0.00  0.00    +0.000 A 
ATOM     27  C   UNL     1      -2.417  13.129  23.275  0.00  0.00    +0.000 A 
ATOM     28  C   UNL     1      -3.632  12.434  23.816  0.00  0.00    +0.000 C 
ATOM     29  C   UNL     1      -1.514  12.468  22.422  0.00  0.00    +0.000 A 
ATOM     30  C   UNL     1      -0.312  13.086  22.023  0.00  0.00    +0.000 A 
BRANCH  24  32
ATOM     31  C   UNL     1       1.230  16.237  21.925  0.00  0.00    +0.000 C 
ATOM     32  O   UNL     1       1.256  14.870  22.360  0.00  0.00    +0.000 OA
ENDBRANCH  24  32
ENDBRANCH  21  30
ENDBRANCH   1  21
TORSDOF 5
ENDMDL
MODEL 8
REMARK VINA RESULT:      -7.1      2.546      3.561
REMARK  Name = 
REMARK  7 active torsions:
REMARK  status: ('A' for Active; 'I' for Inactive)
REMARK    1  A    between atoms: C_1  and  O_2
REMARK    2  A    between atoms: O_2  and  C_3
REMARK    3  A    between atoms: C_6  and  C_7
REMARK    4  A    between atoms: C_9  and  S_10
REMARK    5  A    between atoms: S_10  and  N_13
REMARK    6  A    between atoms: C_17  and  C_19
REMARK    7  A    between atoms: C_23  and  C_24
REMARK                            x       y       z     vdW  Elec       q    Type
REMARK                         _______ _______ _______ _____ _____    ______ ____
ROOT
ATOM      1  N   UNL     1      -0.082  10.949  19.754  0.00  0.00    +0.000 NA
ATOM      2  C   UNL     1       0.325  10.703  18.354  0.00  0.00    +0.000 C 
ATOM      3  C   UNL     1       1.531   9.766  18.248  0.00  0.00    +0.000 C 
ATOM      4  N   UNL     1       1.428   8.513  19.009  0.00  0.00    +0.000 N 
ATOM      5  C   UNL     1       2.441   7.567  18.695  0.00  0.00    +0.000 C 
ATOM      6  O   UNL     1       3.193   7.798  17.741  0.00  0.00    +0.000 OA
ATOM      7  C   UNL     1       0.755   8.587  20.317  0.00  0.00    +0.000 C 
ATOM      8  C   UNL     1      -0.372   9.644  20.436  0.00  0.00    +0.000 C 
ENDROOT
BRANCH   5   9
ATOM      9  C   UNL     1       2.608   6.319  19.456  0.00  0.00    +0.000 A 
ATOM     10  N   UNL     1       1.849   5.941  20.563  0.00  0.00    +0.000 NA
ATOM     11  C   UNL     1       2.387   4.812  20.959  0.00  0.00    +0.000 A 
ATOM     12  O   UNL     1       3.433   4.386  20.213  0.00  0.00    +0.000 OA
ATOM     13  C   UNL     1       3.583   5.340  19.233  0.00  0.00    +0.000 A 
BRANCH  13  14
ATOM     14  C   UNL     1       4.639   5.033  18.258  0.00  0.00    +0.000 A 
ATOM     15  C   UNL     1       5.990   5.320  18.517  0.00  0.00    +0.000 A 
ATOM     16  C   UNL     1       6.977   5.100  17.548  0.00  0.00    +0.000 A 
ATOM     17  C   UNL     1       6.624   4.594  16.305  0.00  0.00    +0.000 A 
ATOM     18  F   UNL     1       7.564   4.418  15.368  0.00  0.00    +0.000 F 
ATOM     19  C   UNL     1       5.301   4.291  16.017  0.00  0.00    +0.000 A 
ATOM     20  C   UNL     1       4.317   4.504  16.991  0.00  0.00    +0.000 A 
ENDBRANCH  13  14
ENDBRANCH   5   9
BRANCH   1  21
ATOM     21  S   UNL     1       0.806  12.080  20.664  0.00  0.00    +0.000 S 
ATOM     22  O   UNL     1       1.399  12.999  19.709  0.00  0.00    +0.000 OA
ATOM     23  O   UNL     1       1.664  11.349  21.573  0.00  0.00    +0.000 OA
BRANCH  21  30
ATOM     24  C   UNL     1       0.020  14.242  22.245  0.00  0.00    +0.000 A 
ATOM     25  C   UNL     1      -0.987  15.116  22.688  0.00  0.00    +0.000 A 
ATOM     26  C   UNL     1      -2.317  14.710  22.735  0.00  0.00    +0.000 A 
ATOM     27  C   UNL     1      -2.666  13.423  22.325  0.00  0.00    +0.000 A 
ATOM     28  C   UNL     1      -4.072  12.936  22.525  0.00  0.00    +0.000 C 
ATOM     29  C   UNL     1      -1.686  12.606  21.732  0.00  0.00    +0.000 A 
ATOM     30  C   UNL     1      -0.341  13.023  21.665  0.00  0.00    +0.000 A 
BRANCH  24  32
ATOM     31  C   UNL     1       1.663  15.859  21.888  0.00  0.00    +0.000 C 
ATOM     32  O   UNL     1       1.341  14.563  22.413  0.00  0.00    +0.000 OA
ENDBRANCH  24  32
ENDBRANCH  21  30
ENDBRANCH   1  21
TORSDOF 5
ENDMDL
MODEL 9
REMARK VINA RESULT:      -6.9      2.407      3.083
REMARK  Name = 
REMARK  7 active torsions:
REMARK  status: ('A' for Active; 'I' for Inactive)
REMARK    1  A    between atoms: C_1  and  O_2
REMARK    2  A    between atoms: O_2  and  C_3
REMARK    3  A    between atoms: C_6  and  C_7
REMARK    4  A    between atoms: C_9  and  S_10
REMARK    5  A    between atoms: S_10  and  N_13
REMARK    6  A    between atoms: C_17  and  C_19
REMARK    7  A    between atoms: C_23  and  C_24
REMARK                            x       y       z     vdW  Elec       q    Type
REMARK                         _______ _______ _______ _____ _____    ______ ____
ROOT
ATOM      1  N   UNL     1       0.033  11.179  19.563  0.00  0.00    +0.000 NA
ATOM      2  C   UNL     1       0.430  10.893  18.169  0.00  0.00    +0.000 C 
ATOM      3  C   UNL     1       1.608   9.920  18.080  0.00  0.00    +0.000 C 
ATOM      4  N   UNL     1       1.470   8.687  18.867  0.00  0.00    +0.000 N 
ATOM      5  C   UNL     1       2.455   7.705  18.571  0.00  0.00    +0.000 C 
ATOM      6  O   UNL     1       3.211   7.894  17.612  0.00  0.00    +0.000 OA
ATOM      7  C   UNL     1       0.802   8.807  20.173  0.00  0.00    +0.000 C 
ATOM      8  C   UNL     1      -0.294   9.898  20.272  0.00  0.00    +0.000 C 
ENDROOT
BRANCH   5   9
ATOM      9  C   UNL     1       2.586   6.469  19.357  0.00  0.00    +0.000 A 
ATOM     10  N   UNL     1       1.807   6.127  20.462  0.00  0.00    +0.000 NA
ATOM     11  C   UNL     1       2.316   4.996  20.885  0.00  0.00    +0.000 A 
ATOM     12  O   UNL     1       3.362   4.534  20.160  0.00  0.00    +0.000 OA
ATOM     13  C   UNL     1       3.544   5.466  19.165  0.00  0.00    +0.000 A 
BRANCH  13  14
ATOM     14  C   UNL     1       4.604   5.119  18.209  0.00  0.00    +0.000 A 
ATOM     15  C   UNL     1       5.923   5.574  18.371  0.00  0.00    +0.000 A 
ATOM     16  C   UNL     1       6.907   5.306  17.410  0.00  0.00    +0.000 A 
ATOM     17  C   UNL     1       6.582   4.583  16.271  0.00  0.00    +0.000 A 
ATOM     18  F   UNL     1       7.514   4.359  15.337  0.00  0.00    +0.000 F 
ATOM     19  C   UNL     1       5.291   4.110  16.082  0.00  0.00    +0.000 A 
ATOM     20  C   UNL     1       4.311   4.373  17.048  0.00  0.00    +0.000 A 
ENDBRANCH  13  14
ENDBRANCH   5   9
BRANCH   1  21
ATOM     21  S   UNL     1       0.954  12.303  20.449  0.00  0.00    +0.000 S 
ATOM     22  O   UNL     1       1.819  12.969  19.492  0.00  0.00    +0.000 OA
ATOM     23  O   UNL     1       1.543  11.609  21.575  0.00  0.00    +0.000 OA
BRANCH  21  30
ATOM     24  C   UNL     1      -0.636  13.470  22.423  0.00  0.00    +0.000 A 
ATOM     25  C   UNL     1      -1.177  14.623  23.020  0.00  0.00    +0.000 A 
ATOM     26  C   UNL     1      -1.413  15.771  22.272  0.00  0.00    +0.000 A 
ATOM     27  C   UNL     1      -1.099  15.794  20.912  0.00  0.00    +0.000 A 
ATOM     28  C   UNL     1      -1.500  16.975  20.077  0.00  0.00    +0.000 C 
ATOM     29  C   UNL     1      -0.413  14.700  20.352  0.00  0.00    +0.000 A 
ATOM     30  C   UNL     1      -0.154  13.543  21.114  0.00  0.00    +0.000 A 
BRANCH  24  32
ATOM     31  C   UNL     1      -1.894  11.626  23.096  0.00  0.00    +0.000 C 
ATOM     32  O   UNL     1      -0.618  12.281  23.101  0.00  0.00    +0.000 OA
ENDBRANCH  24  32
ENDBRANCH  21  30
ENDBRANCH   1  21
TORSDOF 5
ENDMDL
