MODEL 1
REMARK VINA RESULT:      -7.3      0.000      0.000
REMARK  Name = 
REMARK  6 active torsions:
REMARK  status: ('A' for Active; 'I' for Inactive)
REMARK    1  A    between atoms: C_1  and  O_2
REMARK    2  A    between atoms: O_2  and  C_3
REMARK    3  A    between atoms: C_6  and  C_7
REMARK    4  A    between atoms: C_8  and  C_9
REMARK    5  A    between atoms: C_16  and  C_17
REMARK    6  A    between atoms: C_16  and  C_18
REMARK                            x       y       z     vdW  Elec       q    Type
REMARK                         _______ _______ _______ _____ _____    ______ ____
ROOT
ATOM      1  C   UNL     1       3.589   3.816  19.935  0.00  0.00    +0.000 C 
ATOM      2  N   UNL     1       4.511   4.193  18.829  0.00  0.00    +0.000 N 
ATOM      3  O   UNL     1       5.766   3.985  18.921  0.00  0.00    +0.000 OA
ATOM      4  C   UNL     1       3.954   4.697  17.760  0.00  0.00    +0.000 C 
ATOM      5  C   UNL     1       2.495   4.906  18.002  0.00  0.00    +0.000 C 
ATOM      6  C   UNL     1       2.271   4.510  19.477  0.00  0.00    +0.000 C 
ATOM      7  C   UNL     1       1.031   3.607  19.572  0.00  0.00    +0.000 C 
ATOM      8  C   UNL     1       2.025   5.770  20.327  0.00  0.00    +0.000 C 
ENDROOT
BRANCH   1  10
ATOM      9  C   UNL     1       3.727   1.591  19.109  0.00  0.00    +0.000 C 
ATOM     10  O   UNL     1       3.354   2.422  20.202  0.00  0.00    +0.000 OA
ENDBRANCH   1  10
BRANCH   4  11
ATOM     11  C   UNL     1       4.655   4.972  16.494  0.00  0.00    +0.000 C 
ATOM     12  C   UNL     1       5.074   3.987  15.686  0.00  0.00    +0.000 C 
BRANCH  12  13
ATOM     13  C   UNL     1       5.905   4.207  14.494  0.00  0.00    +0.000 A 
ATOM     14  C   UNL     1       5.571   3.533  13.310  0.00  0.00    +0.000 A 
ATOM     15  C   UNL     1       6.343   3.684  12.156  0.00  0.00    +0.000 A 
ATOM     16  C   UNL     1       7.457   4.520  12.169  0.00  0.00    +0.000 A 
ATOM     17  C   UNL     1       7.790   5.212  13.330  0.00  0.00    +0.000 A 
ATOM     18  C   UNL     1       7.014   5.066  14.483  0.00  0.00    +0.000 A 
ENDBRANCH  12  13
ENDBRANCH   4  11
TORSDOF 3
ENDMDL
MODEL 2
REMARK VINA RESULT:      -7.2      7.689      9.331
REMARK  Name = 
REMARK  6 active torsions:
REMARK  status: ('A' for Active; 'I' for Inactive)
REMARK    1  A    between atoms: C_1  and  O_2
REMARK    2  A    between atoms: O_2  and  C_3
REMARK    3  A    between atoms: C_6  and  C_7
REMARK    4  A    between atoms: C_8  and  C_9
REMARK    5  A    between atoms: C_16  and  C_17
REMARK    6  A    between atoms: C_16  and  C_18
REMARK                            x       y       z     vdW  Elec       q    Type
REMARK                         _______ _______ _______ _____ _____    ______ ____
ROOT
ATOM      1  C   UNL     1       9.929  13.123  18.487  0.00  0.00    +0.000 C 
ATOM      2  N   UNL     1       8.961  12.103  18.001  0.00  0.00    +0.000 N 
ATOM      3  O   UNL     1       8.020  12.419  17.200  0.00  0.00    +0.000 OA
ATOM      4  C   UNL     1       9.163  10.876  18.404  0.00  0.00    +0.000 C 
ATOM      5  C   UNL     1      10.272  10.851  19.405  0.00  0.00    +0.000 C 
ATOM      6  C   UNL     1      10.662  12.330  19.611  0.00  0.00    +0.000 C 
ATOM      7  C   UNL     1      12.194  12.457  19.561  0.00  0.00    +0.000 C 
ATOM      8  C   UNL     1      10.176  12.815  20.988  0.00  0.00    +0.000 C 
ENDROOT
BRANCH   1  10
ATOM      9  C   UNL     1      10.745  15.082  17.413  0.00  0.00    +0.000 C 
ATOM     10  O   UNL     1      10.883  13.674  17.561  0.00  0.00    +0.000 OA
ENDBRANCH   1  10
BRANCH   4  11
ATOM     11  C   UNL     1       8.437   9.695  17.909  0.00  0.00    +0.000 C 
ATOM     12  C   UNL     1       8.374   8.554  18.611  0.00  0.00    +0.000 C 
BRANCH  12  13
ATOM     13  C   UNL     1       7.792   7.307  18.092  0.00  0.00    +0.000 A 
ATOM     14  C   UNL     1       8.038   6.114  18.787  0.00  0.00    +0.000 A 
ATOM     15  C   UNL     1       7.533   4.897  18.322  0.00  0.00    +0.000 A 
ATOM     16  C   UNL     1       6.767   4.860  17.160  0.00  0.00    +0.000 A 
ATOM     17  C   UNL     1       6.497   6.038  16.470  0.00  0.00    +0.000 A 
ATOM     18  C   UNL     1       6.997   7.257  16.938  0.00  0.00    +0.000 A 
ENDBRANCH  12  13
ENDBRANCH   4  11
TORSDOF 3
ENDMDL
MODEL 3
REMARK VINA RESULT:      -7.1      0.805      1.478
REMARK  Name = 
REMARK  6 active torsions:
REMARK  status: ('A' for Active; 'I' for Inactive)
REMARK    1  A    between atoms: C_1  and  O_2
REMARK    2  A    between atoms: O_2  and  C_3
REMARK    3  A    between atoms: C_6  and  C_7
REMARK    4  A    between atoms: C_8  and  C_9
REMARK    5  A    between atoms: C_16  and  C_17
REMARK    6  A    between atoms: C_16  and  C_18
REMARK                            x       y       z     vdW  Elec       q    Type
REMARK                         _______ _______ _______ _____ _____    ______ ____
ROOT
ATOM      1  C   UNL     1       3.276   3.793  19.978  0.00  0.00    +0.000 C 
ATOM      2  N   UNL     1       4.409   3.760  19.014  0.00  0.00    +0.000 N 
ATOM      3  O   UNL     1       5.586   3.450  19.395  0.00  0.00    +0.000 OA
ATOM      4  C   UNL     1       4.114   4.017  17.767  0.00  0.00    +0.000 C 
ATOM      5  C   UNL     1       2.684   4.438  17.664  0.00  0.00    +0.000 C 
ATOM      6  C   UNL     1       2.170   4.476  19.118  0.00  0.00    +0.000 C 
ATOM      7  C   UNL     1       0.806   3.769  19.188  0.00  0.00    +0.000 C 
ATOM      8  C   UNL     1       1.988   5.935  19.573  0.00  0.00    +0.000 C 
ENDROOT
BRANCH   1  10
ATOM      9  C   UNL     1       2.392   2.678  21.884  0.00  0.00    +0.000 C 
ATOM     10  O   UNL     1       2.790   2.553  20.524  0.00  0.00    +0.000 OA
ENDBRANCH   1  10
BRANCH   4  11
ATOM     11  C   UNL     1       5.041   3.867  16.633  0.00  0.00    +0.000 C 
ATOM     12  C   UNL     1       4.961   4.645  15.543  0.00  0.00    +0.000 C 
BRANCH  12  13
ATOM     13  C   UNL     1       5.763   4.433  14.329  0.00  0.00    +0.000 A 
ATOM     14  C   UNL     1       6.975   5.127  14.199  0.00  0.00    +0.000 A 
ATOM     15  C   UNL     1       7.763   4.985  13.054  0.00  0.00    +0.000 A 
ATOM     16  C   UNL     1       7.352   4.139  12.028  0.00  0.00    +0.000 A 
ATOM     17  C   UNL     1       6.162   3.428  12.151  0.00  0.00    +0.000 A 
ATOM     18  C   UNL     1       5.376   3.565  13.298  0.00  0.00    +0.000 A 
ENDBRANCH  12  13
ENDBRANCH   4  11
TORSDOF 3
ENDMDL
MODEL 4
REMARK VINA RESULT:      -7.0      2.948      7.239
REMARK  Name = 
REMARK  6 active torsions:
REMARK  status: ('A' for Active; 'I' for Inactive)
REMARK    1  A    between atoms: C_1  and  O_2
REMARK    2  A    between atoms: O_2  and  C_3
REMARK    3  A    between atoms: C_6  and  C_7
REMARK    4  A    between atoms: C_8  and  C_9
REMARK    5  A    between atoms: C_16  and  C_17
REMARK    6  A    between atoms: C_16  and  C_18
REMARK                            x       y       z     vdW  Elec       q    Type
REMARK                         _______ _______ _______ _____ _____    ______ ____
ROOT
ATOM      1  C   UNL     1       3.882   4.027  17.373  0.00  0.00    +0.000 C 
ATOM      2  N   UNL     1       2.855   5.046  17.719  0.00  0.00    +0.000 N 
ATOM      3  O   UNL     1       1.631   4.720  17.869  0.00  0.00    +0.000 OA
ATOM      4  C   UNL     1       3.290   6.265  17.902  0.00  0.00    +0.000 C 
ATOM      5  C   UNL     1       4.741   6.340  17.556  0.00  0.00    +0.000 C 
ATOM      6  C   UNL     1       5.103   4.934  17.033  0.00  0.00    +0.000 C 
ATOM      7  C   UNL     1       6.416   4.477  17.688  0.00  0.00    +0.000 C 
ATOM      8  C   UNL     1       5.306   4.978  15.507  0.00  0.00    +0.000 C 
ENDROOT
BRANCH   1  10
ATOM      9  C   UNL     1       3.549   1.818  18.189  0.00  0.00    +0.000 C 
ATOM     10  O   UNL     1       4.249   3.045  18.358  0.00  0.00    +0.000 OA
ENDBRANCH   1  10
BRANCH   4  11
ATOM     11  C   UNL     1       2.479   7.381  18.418  0.00  0.00    +0.000 C 
ATOM     12  C   UNL     1       2.255   7.549  19.730  0.00  0.00    +0.000 C 
BRANCH  12  13
ATOM     13  C   UNL     1       1.333   8.555  20.278  0.00  0.00    +0.000 A 
ATOM     14  C   UNL     1       1.016   8.498  21.643  0.00  0.00    +0.000 A 
ATOM     15  C   UNL     1       0.123   9.412  22.210  0.00  0.00    +0.000 A 
ATOM     16  C   UNL     1      -0.457  10.399  21.419  0.00  0.00    +0.000 A 
ATOM     17  C   UNL     1      -0.136  10.481  20.067  0.00  0.00    +0.000 A 
ATOM     18  C   UNL     1       0.761   9.572  19.500  0.00  0.00    +0.000 A 
ENDBRANCH  12  13
ENDBRANCH   4  11
TORSDOF 3
ENDMDL
MODEL 5
REMARK VINA RESULT:      -6.9      3.017      6.793
REMARK  Name = 
REMARK  6 active torsions:
REMARK  status: ('A' for Active; 'I' for Inactive)
REMARK    1  A    between atoms: C_1  and  O_2
REMARK    2  A    between atoms: O_2  and  C_3
REMARK    3  A    between atoms: C_6  and  C_7
REMARK    4  A    between atoms: C_8  and  C_9
REMARK    5  A    between atoms: C_16  and  C_17
REMARK    6  A    between atoms: C_16  and  C_18
REMARK                            x       y       z     vdW  Elec       q    Type
REMARK                         _______ _______ _______ _____ _____    ______ ____
ROOT
ATOM      1  C   UNL     1       4.444   3.688  18.251  0.00  0.00    +0.000 C 
ATOM      2  N   UNL     1       3.215   4.524  18.296  0.00  0.00    +0.000 N 
ATOM      3  O   UNL     1       2.118   4.057  18.750  0.00  0.00    +0.000 OA
ATOM      4  C   UNL     1       3.343   5.761  17.893  0.00  0.00    +0.000 C 
ATOM      5  C   UNL     1       4.711   5.970  17.333  0.00  0.00    +0.000 C 
ATOM      6  C   UNL     1       5.385   4.582  17.388  0.00  0.00    +0.000 C 
ATOM      7  C   UNL     1       6.800   4.733  17.969  0.00  0.00    +0.000 C 
ATOM      8  C   UNL     1       5.497   3.997  15.969  0.00  0.00    +0.000 C 
ENDROOT
BRANCH   1  10
ATOM      9  C   UNL     1       4.529   2.163  20.075  0.00  0.00    +0.000 C 
ATOM     10  O   UNL     1       5.089   3.331  19.487  0.00  0.00    +0.000 OA
ENDBRANCH   1  10
BRANCH   4  11
ATOM     11  C   UNL     1       2.307   6.801  18.018  0.00  0.00    +0.000 C 
ATOM     12  C   UNL     1       2.460   7.863  18.823  0.00  0.00    +0.000 C 
BRANCH  12  13
ATOM     13  C   UNL     1       1.397   8.841  19.093  0.00  0.00    +0.000 A 
ATOM     14  C   UNL     1       0.984   9.031  20.421  0.00  0.00    +0.000 A 
ATOM     15  C   UNL     1      -0.042   9.928  20.731  0.00  0.00    +0.000 A 
ATOM     16  C   UNL     1      -0.661  10.654  19.717  0.00  0.00    +0.000 A 
ATOM     17  C   UNL     1      -0.248  10.492  18.398  0.00  0.00    +0.000 A 
ATOM     18  C   UNL     1       0.781   9.600  18.087  0.00  0.00    +0.000 A 
ENDBRANCH  12  13
ENDBRANCH   4  11
TORSDOF 3
ENDMDL
MODEL 6
REMARK VINA RESULT:      -6.9      7.556      9.277
REMARK  Name = 
REMARK  6 active torsions:
REMARK  status: ('A' for Active; 'I' for Inactive)
REMARK    1  A    between atoms: C_1  and  O_2
REMARK    2  A    between atoms: O_2  and  C_3
REMARK    3  A    between atoms: C_6  and  C_7
REMARK    4  A    between atoms: C_8  and  C_9
REMARK    5  A    between atoms: C_16  and  C_17
REMARK    6  A    between atoms: C_16  and  C_18
REMARK                            x       y       z     vdW  Elec       q    Type
REMARK                         _______ _______ _______ _____ _____    ______ ____
ROOT
ATOM      1  C   UNL     1       9.884  12.852  19.919  0.00  0.00    +0.000 C 
ATOM      2  N   UNL     1       9.453  11.441  20.114  0.00  0.00    +0.000 N 
ATOM      3  O   UNL     1       9.031  11.034  21.247  0.00  0.00    +0.000 OA
ATOM      4  C   UNL     1       9.490  10.674  19.057  0.00  0.00    +0.000 C 
ATOM      5  C   UNL     1      10.121  11.411  17.921  0.00  0.00    +0.000 C 
ATOM      6  C   UNL     1      10.552  12.770  18.513  0.00  0.00    +0.000 C 
ATOM      7  C   UNL     1      10.123  13.894  17.556  0.00  0.00    +0.000 C 
ATOM      8  C   UNL     1      12.084  12.814  18.664  0.00  0.00    +0.000 C 
ENDROOT
BRANCH   1  10
ATOM      9  C   UNL     1       9.093  14.816  21.003  0.00  0.00    +0.000 C 
ATOM     10  O   UNL     1       8.890  13.893  19.939  0.00  0.00    +0.000 OA
ENDBRANCH   1  10
BRANCH   4  11
ATOM     11  C   UNL     1       8.947   9.307  18.987  0.00  0.00    +0.000 C 
ATOM     12  C   UNL     1       8.259   8.870  17.921  0.00  0.00    +0.000 C 
BRANCH  12  13
ATOM     13  C   UNL     1       7.573   7.571  17.871  0.00  0.00    +0.000 A 
ATOM     14  C   UNL     1       8.021   6.543  18.715  0.00  0.00    +0.000 A 
ATOM     15  C   UNL     1       7.422   5.281  18.687  0.00  0.00    +0.000 A 
ATOM     16  C   UNL     1       6.361   5.033  17.820  0.00  0.00    +0.000 A 
ATOM     17  C   UNL     1       5.892   6.048  16.992  0.00  0.00    +0.000 A 
ATOM     18  C   UNL     1       6.486   7.313  17.023  0.00  0.00    +0.000 A 
ENDBRANCH  12  13
ENDBRANCH   4  11
TORSDOF 3
ENDMDL
MODEL 7
REMARK VINA RESULT:      -6.9      2.990      7.232
REMARK  Name = 
REMARK  6 active torsions:
REMARK  status: ('A' for Active; 'I' for Inactive)
REMARK    1  A    between atoms: C_1  and  O_2
REMARK    2  A    between atoms: O_2  and  C_3
REMARK    3  A    between atoms: C_6  and  C_7
REMARK    4  A    between atoms: C_8  and  C_9
REMARK    5  A    between atoms: C_16  and  C_17
REMARK    6  A    between atoms: C_16  and  C_18
REMARK                            x       y       z     vdW  Elec       q    Type
REMARK                         _______ _______ _______ _____ _____    ______ ____
ROOT
ATOM      1  C   UNL     1       3.719   3.952  17.497  0.00  0.00    +0.000 C 
ATOM      2  N   UNL     1       2.697   4.984  17.822  0.00  0.00    +0.000 N 
ATOM      3  O   UNL     1       1.466   4.674  17.945  0.00  0.00    +0.000 OA
ATOM      4  C   UNL     1       3.144   6.197  18.017  0.00  0.00    +0.000 C 
ATOM      5  C   UNL     1       4.603   6.254  17.702  0.00  0.00    +0.000 C 
ATOM      6  C   UNL     1       4.958   4.844  17.185  0.00  0.00    +0.000 C 
ATOM      7  C   UNL     1       6.251   4.369  17.868  0.00  0.00    +0.000 C 
ATOM      8  C   UNL     1       5.196   4.887  15.664  0.00  0.00    +0.000 C 
ENDROOT
BRANCH   1  10
ATOM      9  C   UNL     1       3.470   1.696  18.208  0.00  0.00    +0.000 C 
ATOM     10  O   UNL     1       4.051   2.964  18.489  0.00  0.00    +0.000 OA
ENDBRANCH   1  10
BRANCH   4  11
ATOM     11  C   UNL     1       2.337   7.323  18.516  0.00  0.00    +0.000 C 
ATOM     12  C   UNL     1       2.188   7.564  19.827  0.00  0.00    +0.000 C 
BRANCH  12  13
ATOM     13  C   UNL     1       1.275   8.579  20.372  0.00  0.00    +0.000 A 
ATOM     14  C   UNL     1       0.880   9.639  19.542  0.00  0.00    +0.000 A 
ATOM     15  C   UNL     1       0.036  10.645  20.018  0.00  0.00    +0.000 A 
ATOM     16  C   UNL     1      -0.431  10.599  21.328  0.00  0.00    +0.000 A 
ATOM     17  C   UNL     1      -0.066   9.543  22.158  0.00  0.00    +0.000 A 
ATOM     18  C   UNL     1       0.774   8.533  21.681  0.00  0.00    +0.000 A 
ENDBRANCH  12  13
ENDBRANCH   4  11
TORSDOF 3
ENDMDL
MODEL 8
REMARK VINA RESULT:      -6.8      3.780      6.703
REMARK  Name = 
REMARK  6 active torsions:
REMARK  status: ('A' for Active; 'I' for Inactive)
REMARK    1  A    between atoms: C_1  and  O_2
REMARK    2  A    between atoms: O_2  and  C_3
REMARK    3  A    between atoms: C_6  and  C_7
REMARK    4  A    between atoms: C_8  and  C_9
REMARK    5  A    between atoms: C_16  and  C_17
REMARK    6  A    between atoms: C_16  and  C_18
REMARK                            x       y       z     vdW  Elec       q    Type
REMARK                         _______ _______ _______ _____ _____    ______ ____
ROOT
ATOM      1  C   UNL     1       3.818   4.039  17.563  0.00  0.00    +0.000 C 
ATOM      2  N   UNL     1       2.734   5.046  17.722  0.00  0.00    +0.000 N 
ATOM      3  O   UNL     1       1.512   4.689  17.796  0.00  0.00    +0.000 OA
ATOM      4  C   UNL     1       3.114   6.292  17.826  0.00  0.00    +0.000 C 
ATOM      5  C   UNL     1       4.587   6.390  17.600  0.00  0.00    +0.000 C 
ATOM      6  C   UNL     1       5.037   4.957  17.245  0.00  0.00    +0.000 C 
ATOM      7  C   UNL     1       6.299   4.612  18.051  0.00  0.00    +0.000 C 
ATOM      8  C   UNL     1       5.374   4.869  15.746  0.00  0.00    +0.000 C 
ENDROOT
BRANCH   1  10
ATOM      9  C   UNL     1       3.636   1.845  18.464  0.00  0.00    +0.000 C 
ATOM     10  O   UNL     1       4.124   3.166  18.665  0.00  0.00    +0.000 OA
ENDBRANCH   1  10
BRANCH   4  11
ATOM     11  C   UNL     1       2.227   7.419  18.162  0.00  0.00    +0.000 C 
ATOM     12  C   UNL     1       2.418   8.647  17.657  0.00  0.00    +0.000 C 
BRANCH  12  13
ATOM     13  C   UNL     1       1.654   9.830  18.080  0.00  0.00    +0.000 A 
ATOM     14  C   UNL     1       0.297   9.671  18.399  0.00  0.00    +0.000 A 
ATOM     15  C   UNL     1      -0.482  10.767  18.780  0.00  0.00    +0.000 A 
ATOM     16  C   UNL     1       0.089  12.034  18.854  0.00  0.00    +0.000 A 
ATOM     17  C   UNL     1       1.439  12.205  18.560  0.00  0.00    +0.000 A 
ATOM     18  C   UNL     1       2.220  11.108  18.185  0.00  0.00    +0.000 A 
ENDBRANCH  12  13
ENDBRANCH   4  11
TORSDOF 3
ENDMDL
MODEL 9
REMARK VINA RESULT:      -6.8      3.748      6.765
REMARK  Name = 
REMARK  6 active torsions:
REMARK  status: ('A' for Active; 'I' for Inactive)
REMARK    1  A    between atoms: C_1  and  O_2
REMARK    2  A    between atoms: O_2  and  C_3
REMARK    3  A    between atoms: C_6  and  C_7
REMARK    4  A    between atoms: C_8  and  C_9
REMARK    5  A    between atoms: C_16  and  C_17
REMARK    6  A    between atoms: C_16  and  C_18
REMARK                            x       y       z     vdW  Elec       q    Type
REMARK                         _______ _______ _______ _____ _____    ______ ____
ROOT
ATOM      1  C   UNL     1       3.999   4.115  17.677  0.00  0.00    +0.000 C 
ATOM      2  N   UNL     1       2.976   5.153  17.977  0.00  0.00    +0.000 N 
ATOM      3  O   UNL     1       1.768   4.831  18.230  0.00  0.00    +0.000 OA
ATOM      4  C   UNL     1       3.400   6.389  18.013  0.00  0.00    +0.000 C 
ATOM      5  C   UNL     1       4.828   6.444  17.578  0.00  0.00    +0.000 C 
ATOM      6  C   UNL     1       5.184   4.996  17.178  0.00  0.00    +0.000 C 
ATOM      7  C   UNL     1       6.539   4.622  17.800  0.00  0.00    +0.000 C 
ATOM      8  C   UNL     1       5.301   4.888  15.647  0.00  0.00    +0.000 C 
ENDROOT
BRANCH   1  10
ATOM      9  C   UNL     1       3.701   2.024  18.771  0.00  0.00    +0.000 C 
ATOM     10  O   UNL     1       4.436   3.241  18.733  0.00  0.00    +0.000 OA
ENDBRANCH   1  10
BRANCH   4  11
ATOM     11  C   UNL     1       2.601   7.542  18.460  0.00  0.00    +0.000 C 
ATOM     12  C   UNL     1       2.142   8.464  17.600  0.00  0.00    +0.000 C 
BRANCH  12  13
ATOM     13  C   UNL     1       1.473   9.705  18.015  0.00  0.00    +0.000 A 
ATOM     14  C   UNL     1       2.253  10.858  18.195  0.00  0.00    +0.000 A 
ATOM     15  C   UNL     1       1.673  12.057  18.616  0.00  0.00    +0.000 A 
ATOM     16  C   UNL     1       0.303  12.121  18.854  0.00  0.00    +0.000 A 
ATOM     17  C   UNL     1      -0.488  10.992  18.660  0.00  0.00    +0.000 A 
ATOM     18  C   UNL     1       0.091   9.793  18.233  0.00  0.00    +0.000 A 
ENDBRANCH  12  13
ENDBRANCH   4  11
TORSDOF 3
ENDMDL
