MODEL 1
REMARK VINA RESULT:      -6.7      0.000      0.000
REMARK  Name = 
REMARK  7 active torsions:
REMARK  status: ('A' for Active; 'I' for Inactive)
REMARK    1  A    between atoms: C_1  and  O_2
REMARK    2  A    between atoms: O_2  and  C_3
REMARK    3  A    between atoms: C_6  and  O_7
REMARK    4  A    between atoms: O_7  and  C_8
REMARK    5  A    between atoms: C_9  and  C_10
REMARK    6  A    between atoms: C_10  and  C_12
REMARK    7  A    between atoms: C_13  and  C_14
REMARK                            x       y       z     vdW  Elec       q    Type
REMARK                         _______ _______ _______ _____ _____    ______ ____
ROOT
ATOM      1  C   UNL     1       5.555   4.292  15.082  0.00  0.00    +0.000 A 
ATOM      2  C   UNL     1       6.881   4.521  15.423  0.00  0.00    +0.000 A 
ATOM      3  C   UNL     1       7.242   4.719  16.755  0.00  0.00    +0.000 A 
ATOM      4  C   UNL     1       6.287   4.672  17.785  0.00  0.00    +0.000 A 
ATOM      5  C   UNL     1       4.934   4.457  17.456  0.00  0.00    +0.000 A 
ATOM      6  C   UNL     1       4.595   4.271  16.094  0.00  0.00    +0.000 A 
ENDROOT
BRANCH   1   8
ATOM      7  C   UNL     1       6.449   3.698  12.964  0.00  0.00    +0.000 C 
ATOM      8  O   UNL     1       5.333   4.103  13.748  0.00  0.00    +0.000 OA
ENDBRANCH   1   8
BRANCH   4   9
ATOM      9  O   UNL     1       6.647   4.859  19.091  0.00  0.00    +0.000 OA
ATOM     10  C   UNL     1       7.773   5.697  19.343  0.00  0.00    +0.000 C 
ENDBRANCH   4   9
BRANCH   5  11
ATOM     11  C   UNL     1       3.762   4.368  18.398  0.00  0.00    +0.000 C 
ATOM     12  O   UNL     1       3.595   3.326  19.038  0.00  0.00    +0.000 OA
BRANCH  11  13
ATOM     13  C   UNL     1       2.793   5.480  18.579  0.00  0.00    +0.000 C 
ATOM     14  C   UNL     1       3.225   6.747  18.460  0.00  0.00    +0.000 C 
BRANCH  14  15
ATOM     15  C   UNL     1       2.337   7.842  18.659  0.00  0.00    +0.000 A 
ATOM     16  C   UNL     1       1.852   8.747  17.723  0.00  0.00    +0.000 A 
ATOM     17  C   UNL     1       1.026   9.676  18.400  0.00  0.00    +0.000 A 
ATOM     18  C   UNL     1       1.032   9.291  19.714  0.00  0.00    +0.000 A 
ATOM     19  O   UNL     1       1.808   8.194  19.884  0.00  0.00    +0.000 OA
ENDBRANCH  14  15
ENDBRANCH  11  13
ENDBRANCH   5  11
TORSDOF 5
ENDMDL
MODEL 2
REMARK VINA RESULT:      -6.7      1.835      6.468
REMARK  Name = 
REMARK  7 active torsions:
REMARK  status: ('A' for Active; 'I' for Inactive)
REMARK    1  A    between atoms: C_1  and  O_2
REMARK    2  A    between atoms: O_2  and  C_3
REMARK    3  A    between atoms: C_6  and  O_7
REMARK    4  A    between atoms: O_7  and  C_8
REMARK    5  A    between atoms: C_9  and  C_10
REMARK    6  A    between atoms: C_10  and  C_12
REMARK    7  A    between atoms: C_13  and  C_14
REMARK                            x       y       z     vdW  Elec       q    Type
REMARK                         _______ _______ _______ _____ _____    ______ ____
ROOT
ATOM      1  C   UNL     1       1.867   5.608  20.442  0.00  0.00    +0.000 A 
ATOM      2  C   UNL     1       1.370   4.334  20.681  0.00  0.00    +0.000 A 
ATOM      3  C   UNL     1       2.124   3.209  20.347  0.00  0.00    +0.000 A 
ATOM      4  C   UNL     1       3.406   3.331  19.783  0.00  0.00    +0.000 A 
ATOM      5  C   UNL     1       3.919   4.617  19.518  0.00  0.00    +0.000 A 
ATOM      6  C   UNL     1       3.126   5.740  19.857  0.00  0.00    +0.000 A 
ENDROOT
BRANCH   1   8
ATOM      7  C   UNL     1       1.608   7.926  20.885  0.00  0.00    +0.000 C 
ATOM      8  O   UNL     1       1.038   6.624  20.823  0.00  0.00    +0.000 OA
ENDBRANCH   1   8
BRANCH   4   9
ATOM      9  O   UNL     1       4.146   2.225  19.464  0.00  0.00    +0.000 OA
ATOM     10  C   UNL     1       3.667   1.407  18.400  0.00  0.00    +0.000 C 
ENDBRANCH   4   9
BRANCH   5  11
ATOM     11  C   UNL     1       5.259   4.967  18.925  0.00  0.00    +0.000 C 
ATOM     12  O   UNL     1       6.214   5.142  19.687  0.00  0.00    +0.000 OA
BRANCH  11  13
ATOM     13  C   UNL     1       5.474   5.122  17.464  0.00  0.00    +0.000 C 
ATOM     14  C   UNL     1       6.344   4.305  16.843  0.00  0.00    +0.000 C 
BRANCH  14  15
ATOM     15  C   UNL     1       6.604   4.440  15.450  0.00  0.00    +0.000 A 
ATOM     16  C   UNL     1       5.990   3.793  14.386  0.00  0.00    +0.000 A 
ATOM     17  C   UNL     1       6.611   4.230  13.191  0.00  0.00    +0.000 A 
ATOM     18  C   UNL     1       7.566   5.132  13.576  0.00  0.00    +0.000 A 
ATOM     19  O   UNL     1       7.572   5.272  14.924  0.00  0.00    +0.000 OA
ENDBRANCH  14  15
ENDBRANCH  11  13
ENDBRANCH   5  11
TORSDOF 5
ENDMDL
MODEL 3
REMARK VINA RESULT:      -6.6      1.817      6.361
REMARK  Name = 
REMARK  7 active torsions:
REMARK  status: ('A' for Active; 'I' for Inactive)
REMARK    1  A    between atoms: C_1  and  O_2
REMARK    2  A    between atoms: O_2  and  C_3
REMARK    3  A    between atoms: C_6  and  O_7
REMARK    4  A    between atoms: O_7  and  C_8
REMARK    5  A    between atoms: C_9  and  C_10
REMARK    6  A    between atoms: C_10  and  C_12
REMARK    7  A    between atoms: C_13  and  C_14
REMARK                            x       y       z     vdW  Elec       q    Type
REMARK                         _______ _______ _______ _____ _____    ______ ____
ROOT
ATOM      1  C   UNL     1       2.985   3.382  19.679  0.00  0.00    +0.000 A 
ATOM      2  C   UNL     1       1.963   4.200  19.220  0.00  0.00    +0.000 A 
ATOM      3  C   UNL     1       2.249   5.300  18.412  0.00  0.00    +0.000 A 
ATOM      4  C   UNL     1       3.567   5.598  18.024  0.00  0.00    +0.000 A 
ATOM      5  C   UNL     1       4.620   4.788  18.495  0.00  0.00    +0.000 A 
ATOM      6  C   UNL     1       4.300   3.685  19.324  0.00  0.00    +0.000 A 
ENDROOT
BRANCH   1   8
ATOM      7  C   UNL     1       1.710   2.641  21.540  0.00  0.00    +0.000 C 
ATOM      8  O   UNL     1       2.575   2.334  20.452  0.00  0.00    +0.000 OA
ENDBRANCH   1   8
BRANCH   4   9
ATOM      9  O   UNL     1       3.843   6.673  17.225  0.00  0.00    +0.000 OA
ATOM     10  C   UNL     1       3.304   7.933  17.619  0.00  0.00    +0.000 C 
ENDBRANCH   4   9
BRANCH   5  11
ATOM     11  C   UNL     1       6.090   4.928  18.201  0.00  0.00    +0.000 C 
ATOM     12  O   UNL     1       6.882   4.960  19.147  0.00  0.00    +0.000 OA
BRANCH  11  13
ATOM     13  C   UNL     1       6.624   5.041  16.819  0.00  0.00    +0.000 C 
ATOM     14  C   UNL     1       6.021   4.361  15.829  0.00  0.00    +0.000 C 
BRANCH  14  15
ATOM     15  C   UNL     1       6.520   4.415  14.497  0.00  0.00    +0.000 A 
ATOM     16  C   UNL     1       6.132   3.665  13.394  0.00  0.00    +0.000 A 
ATOM     17  C   UNL     1       6.938   4.052  12.296  0.00  0.00    +0.000 A 
ATOM     18  C   UNL     1       7.772   5.028  12.773  0.00  0.00    +0.000 A 
ATOM     19  O   UNL     1       7.532   5.259  14.087  0.00  0.00    +0.000 OA
ENDBRANCH  14  15
ENDBRANCH  11  13
ENDBRANCH   5  11
TORSDOF 5
ENDMDL
MODEL 4
REMARK VINA RESULT:      -6.5      1.923      6.541
REMARK  Name = 
REMARK  7 active torsions:
REMARK  status: ('A' for Active; 'I' for Inactive)
REMARK    1  A    between atoms: C_1  and  O_2
REMARK    2  A    between atoms: O_2  and  C_3
REMARK    3  A    between atoms: C_6  and  O_7
REMARK    4  A    between atoms: O_7  and  C_8
REMARK    5  A    between atoms: C_9  and  C_10
REMARK    6  A    between atoms: C_10  and  C_12
REMARK    7  A    between atoms: C_13  and  C_14
REMARK                            x       y       z     vdW  Elec       q    Type
REMARK                         _______ _______ _______ _____ _____    ______ ____
ROOT
ATOM      1  C   UNL     1       2.714   4.342  20.807  0.00  0.00    +0.000 A 
ATOM      2  C   UNL     1       1.884   5.427  20.560  0.00  0.00    +0.000 A 
ATOM      3  C   UNL     1       2.229   6.373  19.594  0.00  0.00    +0.000 A 
ATOM      4  C   UNL     1       3.404   6.245  18.834  0.00  0.00    +0.000 A 
ATOM      5  C   UNL     1       4.267   5.159  19.084  0.00  0.00    +0.000 A 
ATOM      6  C   UNL     1       3.897   4.221  20.078  0.00  0.00    +0.000 A 
ENDROOT
BRANCH   1   8
ATOM      7  C   UNL     1       1.244   2.567  21.379  0.00  0.00    +0.000 C 
ATOM      8  O   UNL     1       2.260   3.484  21.767  0.00  0.00    +0.000 OA
ENDBRANCH   1   8
BRANCH   4   9
ATOM      9  O   UNL     1       3.735   7.170  17.883  0.00  0.00    +0.000 OA
ATOM     10  C   UNL     1       2.805   8.226  17.650  0.00  0.00    +0.000 C 
ENDBRANCH   4   9
BRANCH   5  11
ATOM     11  C   UNL     1       5.563   4.836  18.388  0.00  0.00    +0.000 C 
ATOM     12  O   UNL     1       6.599   4.795  19.058  0.00  0.00    +0.000 OA
BRANCH  11  13
ATOM     13  C   UNL     1       5.647   4.576  16.928  0.00  0.00    +0.000 C 
ATOM     14  C   UNL     1       6.753   4.953  16.261  0.00  0.00    +0.000 C 
BRANCH  14  15
ATOM     15  C   UNL     1       6.861   4.753  14.856  0.00  0.00    +0.000 A 
ATOM     16  C   UNL     1       6.159   3.866  14.049  0.00  0.00    +0.000 A 
ATOM     17  C   UNL     1       6.637   4.009  12.724  0.00  0.00    +0.000 A 
ATOM     18  C   UNL     1       7.598   4.982  12.778  0.00  0.00    +0.000 A 
ATOM     19  O   UNL     1       7.741   5.439  14.045  0.00  0.00    +0.000 OA
ENDBRANCH  14  15
ENDBRANCH  11  13
ENDBRANCH   5  11
TORSDOF 5
ENDMDL
MODEL 5
REMARK VINA RESULT:      -6.3      3.070      6.777
REMARK  Name = 
REMARK  7 active torsions:
REMARK  status: ('A' for Active; 'I' for Inactive)
REMARK    1  A    between atoms: C_1  and  O_2
REMARK    2  A    between atoms: O_2  and  C_3
REMARK    3  A    between atoms: C_6  and  O_7
REMARK    4  A    between atoms: O_7  and  C_8
REMARK    5  A    between atoms: C_9  and  C_10
REMARK    6  A    between atoms: C_10  and  C_12
REMARK    7  A    between atoms: C_13  and  C_14
REMARK                            x       y       z     vdW  Elec       q    Type
REMARK                         _______ _______ _______ _____ _____    ______ ____
ROOT
ATOM      1  C   UNL     1       3.467   3.192  18.144  0.00  0.00    +0.000 A 
ATOM      2  C   UNL     1       3.894   3.772  19.331  0.00  0.00    +0.000 A 
ATOM      3  C   UNL     1       4.857   4.781  19.316  0.00  0.00    +0.000 A 
ATOM      4  C   UNL     1       5.403   5.251  18.109  0.00  0.00    +0.000 A 
ATOM      5  C   UNL     1       4.994   4.662  16.896  0.00  0.00    +0.000 A 
ATOM      6  C   UNL     1       4.023   3.631  16.943  0.00  0.00    +0.000 A 
ENDROOT
BRANCH   1   8
ATOM      7  C   UNL     1       1.190   2.667  18.565  0.00  0.00    +0.000 C 
ATOM      8  O   UNL     1       2.514   2.225  18.292  0.00  0.00    +0.000 OA
ENDBRANCH   1   8
BRANCH   4   9
ATOM      9  O   UNL     1       6.342   6.245  18.099  0.00  0.00    +0.000 OA
ATOM     10  C   UNL     1       7.671   5.891  18.476  0.00  0.00    +0.000 C 
ENDBRANCH   4   9
BRANCH   5  11
ATOM     11  C   UNL     1       5.448   5.014  15.504  0.00  0.00    +0.000 C 
ATOM     12  O   UNL     1       5.376   6.191  15.139  0.00  0.00    +0.000 OA
BRANCH  11  13
ATOM     13  C   UNL     1       5.969   4.001  14.550  0.00  0.00    +0.000 C 
ATOM     14  C   UNL     1       5.646   4.106  13.249  0.00  0.00    +0.000 C 
BRANCH  14  15
ATOM     15  C   UNL     1       6.097   3.139  12.306  0.00  0.00    +0.000 A 
ATOM     16  C   UNL     1       5.377   2.120  11.696  0.00  0.00    +0.000 A 
ATOM     17  C   UNL     1       6.262   1.398  10.860  0.00  0.00    +0.000 A 
ATOM     18  C   UNL     1       7.478   2.015  10.985  0.00  0.00    +0.000 A 
ATOM     19  O   UNL     1       7.395   3.060  11.843  0.00  0.00    +0.000 OA
ENDBRANCH  14  15
ENDBRANCH  11  13
ENDBRANCH   5  11
TORSDOF 5
ENDMDL
MODEL 6
REMARK VINA RESULT:      -6.3      1.697      6.455
REMARK  Name = 
REMARK  7 active torsions:
REMARK  status: ('A' for Active; 'I' for Inactive)
REMARK    1  A    between atoms: C_1  and  O_2
REMARK    2  A    between atoms: O_2  and  C_3
REMARK    3  A    between atoms: C_6  and  O_7
REMARK    4  A    between atoms: O_7  and  C_8
REMARK    5  A    between atoms: C_9  and  C_10
REMARK    6  A    between atoms: C_10  and  C_12
REMARK    7  A    between atoms: C_13  and  C_14
REMARK                            x       y       z     vdW  Elec       q    Type
REMARK                         _______ _______ _______ _____ _____    ______ ____
ROOT
ATOM      1  C   UNL     1       2.670   6.360  19.010  0.00  0.00    +0.000 A 
ATOM      2  C   UNL     1       1.623   5.457  18.885  0.00  0.00    +0.000 A 
ATOM      3  C   UNL     1       1.862   4.161  18.429  0.00  0.00    +0.000 A 
ATOM      4  C   UNL     1       3.159   3.728  18.106  0.00  0.00    +0.000 A 
ATOM      5  C   UNL     1       4.231   4.637  18.210  0.00  0.00    +0.000 A 
ATOM      6  C   UNL     1       3.957   5.950  18.665  0.00  0.00    +0.000 A 
ENDROOT
BRANCH   1   8
ATOM      7  C   UNL     1       1.650   7.632  20.737  0.00  0.00    +0.000 C 
ATOM      8  O   UNL     1       2.308   7.591  19.476  0.00  0.00    +0.000 OA
ENDBRANCH   1   8
BRANCH   4   9
ATOM      9  O   UNL     1       3.390   2.453  17.666  0.00  0.00    +0.000 OA
ATOM     10  C   UNL     1       3.514   1.435  18.656  0.00  0.00    +0.000 C 
ENDBRANCH   4   9
BRANCH   5  11
ATOM     11  C   UNL     1       5.686   4.380  17.918  0.00  0.00    +0.000 C 
ATOM     12  O   UNL     1       6.491   4.409  18.854  0.00  0.00    +0.000 OA
BRANCH  11  13
ATOM     13  C   UNL     1       6.193   4.102  16.550  0.00  0.00    +0.000 C 
ATOM     14  C   UNL     1       6.265   5.112  15.664  0.00  0.00    +0.000 C 
BRANCH  14  15
ATOM     15  C   UNL     1       6.714   4.883  14.333  0.00  0.00    +0.000 A 
ATOM     16  C   UNL     1       6.274   3.934  13.420  0.00  0.00    +0.000 A 
ATOM     17  C   UNL     1       7.043   4.073  12.239  0.00  0.00    +0.000 A 
ATOM     18  C   UNL     1       7.908   5.107  12.478  0.00  0.00    +0.000 A 
ATOM     19  O   UNL     1       7.721   5.605  13.725  0.00  0.00    +0.000 OA
ENDBRANCH  14  15
ENDBRANCH  11  13
ENDBRANCH   5  11
TORSDOF 5
ENDMDL
MODEL 7
REMARK VINA RESULT:      -6.3      1.316      6.343
REMARK  Name = 
REMARK  7 active torsions:
REMARK  status: ('A' for Active; 'I' for Inactive)
REMARK    1  A    between atoms: C_1  and  O_2
REMARK    2  A    between atoms: O_2  and  C_3
REMARK    3  A    between atoms: C_6  and  O_7
REMARK    4  A    between atoms: O_7  and  C_8
REMARK    5  A    between atoms: C_9  and  C_10
REMARK    6  A    between atoms: C_10  and  C_12
REMARK    7  A    between atoms: C_13  and  C_14
REMARK                            x       y       z     vdW  Elec       q    Type
REMARK                         _______ _______ _______ _____ _____    ______ ____
ROOT
ATOM      1  C   UNL     1       3.091   7.419  18.268  0.00  0.00    +0.000 A 
ATOM      2  C   UNL     1       2.266   6.947  19.280  0.00  0.00    +0.000 A 
ATOM      3  C   UNL     1       2.480   5.685  19.833  0.00  0.00    +0.000 A 
ATOM      4  C   UNL     1       3.541   4.869  19.402  0.00  0.00    +0.000 A 
ATOM      5  C   UNL     1       4.378   5.325  18.364  0.00  0.00    +0.000 A 
ATOM      6  C   UNL     1       4.130   6.606  17.813  0.00  0.00    +0.000 A 
ENDROOT
BRANCH   1   8
ATOM      7  C   UNL     1       1.425   9.076  17.930  0.00  0.00    +0.000 C 
ATOM      8  O   UNL     1       2.784   8.671  17.819  0.00  0.00    +0.000 OA
ENDBRANCH   1   8
BRANCH   4   9
ATOM      9  O   UNL     1       3.752   3.635  19.952  0.00  0.00    +0.000 OA
ATOM     10  C   UNL     1       2.696   3.080  20.733  0.00  0.00    +0.000 C 
ENDBRANCH   4   9
BRANCH   5  11
ATOM     11  C   UNL     1       5.562   4.617  17.760  0.00  0.00    +0.000 C 
ATOM     12  O   UNL     1       6.514   4.329  18.490  0.00  0.00    +0.000 OA
BRANCH  11  13
ATOM     13  C   UNL     1       5.635   4.261  16.319  0.00  0.00    +0.000 C 
ATOM     14  C   UNL     1       6.657   4.730  15.583  0.00  0.00    +0.000 C 
BRANCH  14  15
ATOM     15  C   UNL     1       6.747   4.440  14.192  0.00  0.00    +0.000 A 
ATOM     16  C   UNL     1       7.554   5.037  13.232  0.00  0.00    +0.000 A 
ATOM     17  C   UNL     1       7.268   4.433  11.983  0.00  0.00    +0.000 A 
ATOM     18  C   UNL     1       6.311   3.487  12.238  0.00  0.00    +0.000 A 
ATOM     19  O   UNL     1       5.992   3.476  13.555  0.00  0.00    +0.000 OA
ENDBRANCH  14  15
ENDBRANCH  11  13
ENDBRANCH   5  11
TORSDOF 5
ENDMDL
MODEL 8
REMARK VINA RESULT:      -6.2      2.345      4.140
REMARK  Name = 
REMARK  7 active torsions:
REMARK  status: ('A' for Active; 'I' for Inactive)
REMARK    1  A    between atoms: C_1  and  O_2
REMARK    2  A    between atoms: O_2  and  C_3
REMARK    3  A    between atoms: C_6  and  O_7
REMARK    4  A    between atoms: O_7  and  C_8
REMARK    5  A    between atoms: C_9  and  C_10
REMARK    6  A    between atoms: C_10  and  C_12
REMARK    7  A    between atoms: C_13  and  C_14
REMARK                            x       y       z     vdW  Elec       q    Type
REMARK                         _______ _______ _______ _____ _____    ______ ____
ROOT
ATOM      1  C   UNL     1       2.306   4.062  17.707  0.00  0.00    +0.000 A 
ATOM      2  C   UNL     1       3.599   3.754  17.306  0.00  0.00    +0.000 A 
ATOM      3  C   UNL     1       4.560   4.758  17.192  0.00  0.00    +0.000 A 
ATOM      4  C   UNL     1       4.257   6.096  17.496  0.00  0.00    +0.000 A 
ATOM      5  C   UNL     1       2.945   6.430  17.888  0.00  0.00    +0.000 A 
ATOM      6  C   UNL     1       1.987   5.392  17.984  0.00  0.00    +0.000 A 
ENDROOT
BRANCH   1   8
ATOM      7  C   UNL     1       0.992   2.646  19.087  0.00  0.00    +0.000 C 
ATOM      8  O   UNL     1       1.464   2.991  17.789  0.00  0.00    +0.000 OA
ENDBRANCH   1   8
BRANCH   4   9
ATOM      9  O   UNL     1       5.204   7.077  17.390  0.00  0.00    +0.000 OA
ATOM     10  C   UNL     1       6.546   6.663  17.145  0.00  0.00    +0.000 C 
ENDBRANCH   4   9
BRANCH   5  11
ATOM     11  C   UNL     1       2.414   7.790  18.258  0.00  0.00    +0.000 C 
ATOM     12  O   UNL     1       2.453   8.690  17.413  0.00  0.00    +0.000 OA
BRANCH  11  13
ATOM     13  C   UNL     1       1.857   8.096  19.601  0.00  0.00    +0.000 C 
ATOM     14  C   UNL     1       1.040   9.155  19.742  0.00  0.00    +0.000 C 
BRANCH  14  15
ATOM     15  C   UNL     1       0.511   9.503  21.016  0.00  0.00    +0.000 A 
ATOM     16  C   UNL     1      -0.368  10.529  21.340  0.00  0.00    +0.000 A 
ATOM     17  C   UNL     1      -0.579  10.499  22.739  0.00  0.00    +0.000 A 
ATOM     18  C   UNL     1       0.167   9.450  23.206  0.00  0.00    +0.000 A 
ATOM     19  O   UNL     1       0.822   8.843  22.187  0.00  0.00    +0.000 OA
ENDBRANCH  14  15
ENDBRANCH  11  13
ENDBRANCH   5  11
TORSDOF 5
ENDMDL
MODEL 9
REMARK VINA RESULT:      -6.2      1.725      6.326
REMARK  Name = 
REMARK  7 active torsions:
REMARK  status: ('A' for Active; 'I' for Inactive)
REMARK    1  A    between atoms: C_1  and  O_2
REMARK    2  A    between atoms: O_2  and  C_3
REMARK    3  A    between atoms: C_6  and  O_7
REMARK    4  A    between atoms: O_7  and  C_8
REMARK    5  A    between atoms: C_9  and  C_10
REMARK    6  A    between atoms: C_10  and  C_12
REMARK    7  A    between atoms: C_13  and  C_14
REMARK                            x       y       z     vdW  Elec       q    Type
REMARK                         _______ _______ _______ _____ _____    ______ ____
ROOT
ATOM      1  C   UNL     1       2.695   7.315  18.382  0.00  0.00    +0.000 A 
ATOM      2  C   UNL     1       2.073   7.106  19.605  0.00  0.00    +0.000 A 
ATOM      3  C   UNL     1       2.107   5.848  20.207  0.00  0.00    +0.000 A 
ATOM      4  C   UNL     1       2.782   4.770  19.608  0.00  0.00    +0.000 A 
ATOM      5  C   UNL     1       3.403   4.960  18.358  0.00  0.00    +0.000 A 
ATOM      6  C   UNL     1       3.343   6.245  17.765  0.00  0.00    +0.000 A 
ENDROOT
BRANCH   1   8
ATOM      7  C   UNL     1       1.561   9.401  18.443  0.00  0.00    +0.000 C 
ATOM      8  O   UNL     1       2.599   8.591  17.904  0.00  0.00    +0.000 OA
ENDBRANCH   1   8
BRANCH   4   9
ATOM      9  O   UNL     1       2.818   3.540  20.205  0.00  0.00    +0.000 OA
ATOM     10  C   UNL     1       1.795   3.245  21.153  0.00  0.00    +0.000 C 
ENDBRANCH   4   9
BRANCH   5  11
ATOM     11  C   UNL     1       4.174   3.948  17.552  0.00  0.00    +0.000 C 
ATOM     12  O   UNL     1       4.404   2.844  18.053  0.00  0.00    +0.000 OA
BRANCH  11  13
ATOM     13  C   UNL     1       4.678   4.229  16.182  0.00  0.00    +0.000 C 
ATOM     14  C   UNL     1       5.970   3.984  15.900  0.00  0.00    +0.000 C 
BRANCH  14  15
ATOM     15  C   UNL     1       6.501   4.268  14.611  0.00  0.00    +0.000 A 
ATOM     16  C   UNL     1       6.170   3.695  13.390  0.00  0.00    +0.000 A 
ATOM     17  C   UNL     1       6.990   4.281  12.395  0.00  0.00    +0.000 A 
ATOM     18  C   UNL     1       7.774   5.193  13.049  0.00  0.00    +0.000 A 
ATOM     19  O   UNL     1       7.492   5.200  14.374  0.00  0.00    +0.000 OA
ENDBRANCH  14  15
ENDBRANCH  11  13
ENDBRANCH   5  11
TORSDOF 5
ENDMDL
