MODEL 1
REMARK VINA RESULT:      -6.1      0.000      0.000
REMARK  Name = 
REMARK  2 active torsions:
REMARK  status: ('A' for Active; 'I' for Inactive)
REMARK    1  A    between atoms: O_1  and  C_2
REMARK    2  A    between atoms: C_6  and  S_7
REMARK                            x       y       z     vdW  Elec       q    Type
REMARK                         _______ _______ _______ _____ _____    ______ ____
ROOT
ATOM      1  C   UNL     1       7.017   6.108  17.396  0.00  0.00    +0.000 A 
ATOM      2  N   UNL     1       7.546   6.082  16.222  0.00  0.00    +0.000 NA
ATOM      3  C   UNL     1       6.933   5.233  15.356  0.00  0.00    +0.000 A 
ATOM      4  N   UNL     1       7.258   5.018  14.120  0.00  0.00    +0.000 NA
ATOM      5  C   UNL     1       6.329   4.063  13.736  0.00  0.00    +0.000 A 
ATOM      6  N   UNL     1       5.461   3.666  14.624  0.00  0.00    +0.000 NA
ATOM      7  C   UNL     1       5.793   4.401  15.732  0.00  0.00    +0.000 A 
ATOM      8  C   UNL     1       5.311   4.484  16.981  0.00  0.00    +0.000 A 
ATOM      9  N   UNL     1       5.921   5.401  17.864  0.00  0.00    +0.000 N 
ATOM     10  C   UNL     1       5.544   5.519  19.278  0.00  0.00    +0.000 C 
ATOM     11  C   UNL     1       4.151   4.996  19.603  0.00  0.00    +0.000 C 
ATOM     12  C   UNL     1       3.985   3.552  19.172  0.00  0.00    +0.000 C 
ATOM     13  S   UNL     1       3.951   3.449  17.374  0.00  0.00    +0.000 S 
ENDROOT
BRANCH   1  14
ATOM     14  O   UNL     1       7.610   6.918  18.287  0.00  0.00    +0.000 OA
ATOM     15  H   UNL     1       8.341   7.362  17.823  0.00  0.00    +0.000 HD
ENDBRANCH   1  14
BRANCH   5  16
ATOM     16  S   UNL     1       6.338   3.427  12.126  0.00  0.00    +0.000 S 
ATOM     17  H   UNL     1       5.093   2.939  12.181  0.00  0.00    +0.000 HD
ENDBRANCH   5  16
TORSDOF 2
ENDMDL
MODEL 2
REMARK VINA RESULT:      -6.1      2.673      3.481
REMARK  Name = 
REMARK  2 active torsions:
REMARK  status: ('A' for Active; 'I' for Inactive)
REMARK    1  A    between atoms: O_1  and  C_2
REMARK    2  A    between atoms: C_6  and  S_7
REMARK                            x       y       z     vdW  Elec       q    Type
REMARK                         _______ _______ _______ _____ _____    ______ ____
ROOT
ATOM      1  C   UNL     1       2.894   6.344  19.118  0.00  0.00    +0.000 A 
ATOM      2  N   UNL     1       3.737   6.833  18.276  0.00  0.00    +0.000 NA
ATOM      3  C   UNL     1       4.238   5.923  17.399  0.00  0.00    +0.000 A 
ATOM      4  N   UNL     1       5.095   6.148  16.453  0.00  0.00    +0.000 NA
ATOM      5  C   UNL     1       5.259   4.885  15.904  0.00  0.00    +0.000 A 
ATOM      6  N   UNL     1       4.583   3.900  16.426  0.00  0.00    +0.000 NA
ATOM      7  C   UNL     1       3.874   4.509  17.428  0.00  0.00    +0.000 A 
ATOM      8  C   UNL     1       2.994   4.082  18.347  0.00  0.00    +0.000 A 
ATOM      9  N   UNL     1       2.441   5.039  19.225  0.00  0.00    +0.000 N 
ATOM     10  C   UNL     1       1.540   4.683  20.327  0.00  0.00    +0.000 C 
ATOM     11  C   UNL     1       0.834   3.344  20.155  0.00  0.00    +0.000 C 
ATOM     12  C   UNL     1       1.827   2.216  19.953  0.00  0.00    +0.000 C 
ATOM     13  S   UNL     1       2.610   2.371  18.338  0.00  0.00    +0.000 S 
ENDROOT
BRANCH   1  14
ATOM     14  O   UNL     1       2.396   7.209  20.016  0.00  0.00    +0.000 OA
ATOM     15  H   UNL     1       3.062   7.908  20.135  0.00  0.00    +0.000 HD
ENDBRANCH   1  14
BRANCH   5  16
ATOM     16  S   UNL     1       6.333   4.642  14.568  0.00  0.00    +0.000 S 
ATOM     17  H   UNL     1       7.432   5.031  15.224  0.00  0.00    +0.000 HD
ENDBRANCH   5  16
TORSDOF 2
ENDMDL
MODEL 3
REMARK VINA RESULT:      -5.9      1.183      1.208
REMARK  Name = 
REMARK  2 active torsions:
REMARK  status: ('A' for Active; 'I' for Inactive)
REMARK    1  A    between atoms: O_1  and  C_2
REMARK    2  A    between atoms: C_6  and  S_7
REMARK                            x       y       z     vdW  Elec       q    Type
REMARK                         _______ _______ _______ _____ _____    ______ ____
ROOT
ATOM      1  C   UNL     1       6.666   5.108  18.561  0.00  0.00    +0.000 A 
ATOM      2  N   UNL     1       7.479   5.162  17.563  0.00  0.00    +0.000 NA
ATOM      3  C   UNL     1       6.929   4.786  16.378  0.00  0.00    +0.000 A 
ATOM      4  N   UNL     1       7.520   4.751  15.226  0.00  0.00    +0.000 NA
ATOM      5  C   UNL     1       6.512   4.281  14.397  0.00  0.00    +0.000 A 
ATOM      6  N   UNL     1       5.353   4.021  14.934  0.00  0.00    +0.000 NA
ATOM      7  C   UNL     1       5.545   4.335  16.253  0.00  0.00    +0.000 A 
ATOM      8  C   UNL     1       4.771   4.300  17.347  0.00  0.00    +0.000 A 
ATOM      9  N   UNL     1       5.332   4.735  18.568  0.00  0.00    +0.000 N 
ATOM     10  C   UNL     1       4.616   4.660  19.847  0.00  0.00    +0.000 C 
ATOM     11  C   UNL     1       3.100   4.589  19.716  0.00  0.00    +0.000 C 
ATOM     12  C   UNL     1       2.673   3.421  18.848  0.00  0.00    +0.000 C 
ATOM     13  S   UNL     1       3.125   3.734  17.133  0.00  0.00    +0.000 S 
ENDROOT
BRANCH   1  14
ATOM     14  O   UNL     1       7.181   5.449  19.753  0.00  0.00    +0.000 OA
ATOM     15  H   UNL     1       8.127   5.224  19.727  0.00  0.00    +0.000 HD
ENDBRANCH   1  14
BRANCH   5  16
ATOM     16  S   UNL     1       6.803   4.051  12.705  0.00  0.00    +0.000 S 
ATOM     17  H   UNL     1       5.638   4.577  12.310  0.00  0.00    +0.000 HD
ENDBRANCH   5  16
TORSDOF 2
ENDMDL
MODEL 4
REMARK VINA RESULT:      -5.7      3.968      4.902
REMARK  Name = 
REMARK  2 active torsions:
REMARK  status: ('A' for Active; 'I' for Inactive)
REMARK    1  A    between atoms: O_1  and  C_2
REMARK    2  A    between atoms: C_6  and  S_7
REMARK                            x       y       z     vdW  Elec       q    Type
REMARK                         _______ _______ _______ _____ _____    ______ ____
ROOT
ATOM      1  C   UNL     1       4.907   4.459  18.619  0.00  0.00    +0.000 A 
ATOM      2  N   UNL     1       4.984   5.578  17.986  0.00  0.00    +0.000 NA
ATOM      3  C   UNL     1       3.936   6.414  18.205  0.00  0.00    +0.000 A 
ATOM      4  N   UNL     1       3.766   7.595  17.698  0.00  0.00    +0.000 NA
ATOM      5  C   UNL     1       2.543   7.968  18.235  0.00  0.00    +0.000 A 
ATOM      6  N   UNL     1       1.941   7.124  19.025  0.00  0.00    +0.000 NA
ATOM      7  C   UNL     1       2.805   6.062  19.061  0.00  0.00    +0.000 A 
ATOM      8  C   UNL     1       2.800   4.870  19.674  0.00  0.00    +0.000 A 
ATOM      9  N   UNL     1       3.913   4.023  19.482  0.00  0.00    +0.000 N 
ATOM     10  C   UNL     1       3.985   2.662  20.026  0.00  0.00    +0.000 C 
ATOM     11  C   UNL     1       3.062   2.410  21.212  0.00  0.00    +0.000 C 
ATOM     12  C   UNL     1       1.619   2.724  20.869  0.00  0.00    +0.000 C 
ATOM     13  S   UNL     1       1.408   4.502  20.676  0.00  0.00    +0.000 S 
ENDROOT
BRANCH   1  14
ATOM     14  O   UNL     1       5.914   3.597  18.409  0.00  0.00    +0.000 OA
ATOM     15  H   UNL     1       5.780   3.216  17.524  0.00  0.00    +0.000 HD
ENDBRANCH   1  14
BRANCH   5  16
ATOM     16  S   UNL     1       1.852   9.510  17.854  0.00  0.00    +0.000 S 
ATOM     17  H   UNL     1       0.974   9.033  16.966  0.00  0.00    +0.000 HD
ENDBRANCH   5  16
TORSDOF 2
ENDMDL
MODEL 5
REMARK VINA RESULT:      -5.4      3.483      4.680
REMARK  Name = 
REMARK  2 active torsions:
REMARK  status: ('A' for Active; 'I' for Inactive)
REMARK    1  A    between atoms: O_1  and  C_2
REMARK    2  A    between atoms: C_6  and  S_7
REMARK                            x       y       z     vdW  Elec       q    Type
REMARK                         _______ _______ _______ _____ _____    ______ ____
ROOT
ATOM      1  C   UNL     1       4.809   4.318  17.104  0.00  0.00    +0.000 A 
ATOM      2  N   UNL     1       4.946   5.573  16.848  0.00  0.00    +0.000 NA
ATOM      3  C   UNL     1       3.962   6.356  17.362  0.00  0.00    +0.000 A 
ATOM      4  N   UNL     1       3.860   7.643  17.255  0.00  0.00    +0.000 NA
ATOM      5  C   UNL     1       2.678   7.899  17.935  0.00  0.00    +0.000 A 
ATOM      6  N   UNL     1       2.040   6.885  18.449  0.00  0.00    +0.000 NA
ATOM      7  C   UNL     1       2.832   5.818  18.115  0.00  0.00    +0.000 A 
ATOM      8  C   UNL     1       2.762   4.496  18.328  0.00  0.00    +0.000 A 
ATOM      9  N   UNL     1       3.810   3.691  17.832  0.00  0.00    +0.000 N 
ATOM     10  C   UNL     1       3.804   2.226  17.923  0.00  0.00    +0.000 C 
ATOM     11  C   UNL     1       2.896   1.668  19.012  0.00  0.00    +0.000 C 
ATOM     12  C   UNL     1       1.469   2.154  18.848  0.00  0.00    +0.000 C 
ATOM     13  S   UNL     1       1.373   3.912  19.226  0.00  0.00    +0.000 S 
ENDROOT
BRANCH   1  14
ATOM     14  O   UNL     1       5.751   3.510  16.592  0.00  0.00    +0.000 OA
ATOM     15  H   UNL     1       5.834   3.735  15.650  0.00  0.00    +0.000 HD
ENDBRANCH   1  14
BRANCH   5  16
ATOM     16  S   UNL     1       2.083   9.518  18.083  0.00  0.00    +0.000 S 
ATOM     17  H   UNL     1       1.103   9.370  17.186  0.00  0.00    +0.000 HD
ENDBRANCH   5  16
TORSDOF 2
ENDMDL
MODEL 6
REMARK VINA RESULT:      -5.3      3.296      5.844
REMARK  Name = 
REMARK  2 active torsions:
REMARK  status: ('A' for Active; 'I' for Inactive)
REMARK    1  A    between atoms: O_1  and  C_2
REMARK    2  A    between atoms: C_6  and  S_7
REMARK                            x       y       z     vdW  Elec       q    Type
REMARK                         _______ _______ _______ _____ _____    ______ ____
ROOT
ATOM      1  C   UNL     1       3.697   3.214  18.305  0.00  0.00    +0.000 A 
ATOM      2  N   UNL     1       2.923   3.528  19.285  0.00  0.00    +0.000 NA
ATOM      3  C   UNL     1       2.710   4.863  19.420  0.00  0.00    +0.000 A 
ATOM      4  N   UNL     1       1.975   5.445  20.314  0.00  0.00    +0.000 NA
ATOM      5  C   UNL     1       2.139   6.786  19.997  0.00  0.00    +0.000 A 
ATOM      6  N   UNL     1       2.911   7.084  18.990  0.00  0.00    +0.000 NA
ATOM      7  C   UNL     1       3.329   5.858  18.546  0.00  0.00    +0.000 A 
ATOM      8  C   UNL     1       4.132   5.443  17.555  0.00  0.00    +0.000 A 
ATOM      9  N   UNL     1       4.313   4.053  17.390  0.00  0.00    +0.000 N 
ATOM     10  C   UNL     1       5.234   3.480  16.401  0.00  0.00    +0.000 C 
ATOM     11  C   UNL     1       5.574   4.411  15.245  0.00  0.00    +0.000 C 
ATOM     12  C   UNL     1       6.145   5.726  15.740  0.00  0.00    +0.000 C 
ATOM     13  S   UNL     1       4.856   6.687  16.552  0.00  0.00    +0.000 S 
ENDROOT
BRANCH   1  14
ATOM     14  O   UNL     1       3.949   1.904  18.155  0.00  0.00    +0.000 OA
ATOM     15  H   UNL     1       3.969   1.728  17.198  0.00  0.00    +0.000 HD
ENDBRANCH   1  14
BRANCH   5  16
ATOM     16  S   UNL     1       1.338   8.010  20.924  0.00  0.00    +0.000 S 
ATOM     17  H   UNL     1       0.136   7.813  20.372  0.00  0.00    +0.000 HD
ENDBRANCH   5  16
TORSDOF 2
ENDMDL
MODEL 7
REMARK VINA RESULT:      -5.3      3.065      5.593
REMARK  Name = 
REMARK  2 active torsions:
REMARK  status: ('A' for Active; 'I' for Inactive)
REMARK    1  A    between atoms: O_1  and  C_2
REMARK    2  A    between atoms: C_6  and  S_7
REMARK                            x       y       z     vdW  Elec       q    Type
REMARK                         _______ _______ _______ _____ _____    ______ ____
ROOT
ATOM      1  C   UNL     1       3.119   7.185  18.224  0.00  0.00    +0.000 A 
ATOM      2  N   UNL     1       2.377   6.924  19.244  0.00  0.00    +0.000 NA
ATOM      3  C   UNL     1       2.421   5.627  19.647  0.00  0.00    +0.000 A 
ATOM      4  N   UNL     1       1.778   5.101  20.642  0.00  0.00    +0.000 NA
ATOM      5  C   UNL     1       2.175   3.773  20.575  0.00  0.00    +0.000 A 
ATOM      6  N   UNL     1       3.002   3.431  19.628  0.00  0.00    +0.000 NA
ATOM      7  C   UNL     1       3.220   4.611  18.966  0.00  0.00    +0.000 A 
ATOM      8  C   UNL     1       3.958   4.967  17.904  0.00  0.00    +0.000 A 
ATOM      9  N   UNL     1       3.945   6.325  17.517  0.00  0.00    +0.000 N 
ATOM     10  C   UNL     1       4.637   6.821  16.322  0.00  0.00    +0.000 C 
ATOM     11  C   UNL     1       5.768   5.925  15.833  0.00  0.00    +0.000 C 
ATOM     12  C   UNL     1       5.282   4.514  15.566  0.00  0.00    +0.000 C 
ATOM     13  S   UNL     1       4.882   3.699  17.122  0.00  0.00    +0.000 S 
ENDROOT
BRANCH   1  14
ATOM     14  O   UNL     1       3.082   8.451  17.783  0.00  0.00    +0.000 OA
ATOM     15  H   UNL     1       3.711   8.511  17.043  0.00  0.00    +0.000 HD
ENDBRANCH   1  14
BRANCH   5  16
ATOM     16  S   UNL     1       1.577   2.621  21.720  0.00  0.00    +0.000 S 
ATOM     17  H   UNL     1       0.492   3.329  22.050  0.00  0.00    +0.000 HD
ENDBRANCH   5  16
TORSDOF 2
ENDMDL
MODEL 8
REMARK VINA RESULT:      -5.2      2.133      4.633
REMARK  Name = 
REMARK  2 active torsions:
REMARK  status: ('A' for Active; 'I' for Inactive)
REMARK    1  A    between atoms: O_1  and  C_2
REMARK    2  A    between atoms: C_6  and  S_7
REMARK                            x       y       z     vdW  Elec       q    Type
REMARK                         _______ _______ _______ _____ _____    ______ ____
ROOT
ATOM      1  C   UNL     1       6.121   4.889  19.205  0.00  0.00    +0.000 A 
ATOM      2  N   UNL     1       5.169   4.495  19.976  0.00  0.00    +0.000 NA
ATOM      3  C   UNL     1       4.119   3.934  19.321  0.00  0.00    +0.000 A 
ATOM      4  N   UNL     1       3.039   3.454  19.853  0.00  0.00    +0.000 NA
ATOM      5  C   UNL     1       2.323   3.044  18.738  0.00  0.00    +0.000 A 
ATOM      6  N   UNL     1       2.862   3.228  17.566  0.00  0.00    +0.000 NA
ATOM      7  C   UNL     1       4.063   3.814  17.866  0.00  0.00    +0.000 A 
ATOM      8  C   UNL     1       5.096   4.261  17.137  0.00  0.00    +0.000 A 
ATOM      9  N   UNL     1       6.205   4.801  17.824  0.00  0.00    +0.000 N 
ATOM     10  C   UNL     1       7.354   5.402  17.137  0.00  0.00    +0.000 C 
ATOM     11  C   UNL     1       7.529   4.952  15.693  0.00  0.00    +0.000 C 
ATOM     12  C   UNL     1       6.280   5.214  14.875  0.00  0.00    +0.000 C 
ATOM     13  S   UNL     1       4.962   4.102  15.396  0.00  0.00    +0.000 S 
ENDROOT
BRANCH   1  14
ATOM     14  O   UNL     1       7.166   5.471  19.815  0.00  0.00    +0.000 OA
ATOM     15  H   UNL     1       7.067   5.300  20.767  0.00  0.00    +0.000 HD
ENDBRANCH   1  14
BRANCH   5  16
ATOM     16  S   UNL     1       0.763   2.313  18.917  0.00  0.00    +0.000 S 
ATOM     17  H   UNL     1       1.222   1.179  19.458  0.00  0.00    +0.000 HD
ENDBRANCH   5  16
TORSDOF 2
ENDMDL
MODEL 9
REMARK VINA RESULT:      -5.2      4.175      5.880
REMARK  Name = 
REMARK  2 active torsions:
REMARK  status: ('A' for Active; 'I' for Inactive)
REMARK    1  A    between atoms: O_1  and  C_2
REMARK    2  A    between atoms: C_6  and  S_7
REMARK                            x       y       z     vdW  Elec       q    Type
REMARK                         _______ _______ _______ _____ _____    ______ ____
ROOT
ATOM      1  C   UNL     1       3.787   5.399  17.524  0.00  0.00    +0.000 A 
ATOM      2  N   UNL     1       3.547   6.635  17.797  0.00  0.00    +0.000 NA
ATOM      3  C   UNL     1       2.774   6.821  18.899  0.00  0.00    +0.000 A 
ATOM      4  N   UNL     1       2.389   7.955  19.394  0.00  0.00    +0.000 NA
ATOM      5  C   UNL     1       1.622   7.553  20.478  0.00  0.00    +0.000 A 
ATOM      6  N   UNL     1       1.497   6.274  20.696  0.00  0.00    +0.000 NA
ATOM      7  C   UNL     1       2.239   5.715  19.690  0.00  0.00    +0.000 A 
ATOM      8  C   UNL     1       2.531   4.456  19.328  0.00  0.00    +0.000 A 
ATOM      9  N   UNL     1       3.372   4.269  18.210  0.00  0.00    +0.000 N 
ATOM     10  C   UNL     1       3.691   2.944  17.664  0.00  0.00    +0.000 C 
ATOM     11  C   UNL     1       3.505   1.797  18.649  0.00  0.00    +0.000 C 
ATOM     12  C   UNL     1       2.097   1.769  19.209  0.00  0.00    +0.000 C 
ATOM     13  S   UNL     1       1.846   3.173  20.308  0.00  0.00    +0.000 S 
ENDROOT
BRANCH   1  14
ATOM     14  O   UNL     1       4.528   5.176  16.428  0.00  0.00    +0.000 OA
ATOM     15  H   UNL     1       4.201   5.777  15.738  0.00  0.00    +0.000 HD
ENDBRANCH   1  14
BRANCH   5  16
ATOM     16  S   UNL     1       0.860   8.728  21.497  0.00  0.00    +0.000 S 
ATOM     17  H   UNL     1       1.988   9.115  22.100  0.00  0.00    +0.000 HD
ENDBRANCH   5  16
TORSDOF 2
ENDMDL
