MODEL 1
REMARK VINA RESULT:      -7.7      0.000      0.000
REMARK  Name = 
REMARK  2 active torsions:
REMARK  status: ('A' for Active; 'I' for Inactive)
REMARK    1  A    between atoms: C_2  and  C_3
REMARK    2  A    between atoms: C_5  and  C_6
REMARK                            x       y       z     vdW  Elec       q    Type
REMARK                         _______ _______ _______ _____ _____    ______ ____
ROOT
ATOM      1  C   UNL     1       7.477   6.783  17.802  0.00  0.00    +0.000 A 
ATOM      2  C   UNL     1       8.255   7.468  18.773  0.00  0.00    +0.000 A 
ATOM      3  C   UNL     1       8.378   8.747  18.285  0.00  0.00    +0.000 A 
ATOM      4  O   UNL     1       7.693   8.832  17.114  0.00  0.00    +0.000 OA
ATOM      5  N   UNL     1       7.083   7.636  16.841  0.00  0.00    +0.000 NA
ENDROOT
BRANCH   3   6
ATOM      6  C   UNL     1       9.048   9.968  18.708  0.00  0.00    +0.000 A 
ATOM      7  C   UNL     1       9.254  10.227  20.087  0.00  0.00    +0.000 A 
ATOM      8  C   UNL     1       9.872  11.400  20.523  0.00  0.00    +0.000 A 
ATOM      9  C   UNL     1      10.274  12.297  19.563  0.00  0.00    +0.000 A 
ATOM     10  C   UNL     1      10.090  12.054  18.222  0.00  0.00    +0.000 A 
ATOM     11  C   UNL     1       9.491  10.902  17.763  0.00  0.00    +0.000 A 
ATOM     12  O   UNL     1      10.551  13.072  17.445  0.00  0.00    +0.000 OA
ATOM     13  C   UNL     1      10.989  14.006  18.456  0.00  0.00    +0.000 C 
ATOM     14  O   UNL     1      10.869  13.495  19.798  0.00  0.00    +0.000 OA
ENDBRANCH   3   6
BRANCH   1  16
ATOM     15  O   UNL     1       7.867   4.510  17.407  0.00  0.00    +0.000 OA
ATOM     16  C   UNL     1       7.087   5.367  17.808  0.00  0.00    +0.000 C 
ATOM     17  N   UNL     1       5.800   5.046  18.243  0.00  0.00    +0.000 N 
ATOM     18  C   UNL     1       5.396   3.648  18.397  0.00  0.00    +0.000 C 
ATOM     19  C   UNL     1       4.095   3.362  17.634  0.00  0.00    +0.000 C 
ATOM     20  O   UNL     1       3.062   4.307  17.965  0.00  0.00    +0.000 OA
ATOM     21  C   UNL     1       3.487   5.640  17.671  0.00  0.00    +0.000 C 
ATOM     22  C   UNL     1       4.717   6.007  18.498  0.00  0.00    +0.000 C 
ENDBRANCH   1  16
TORSDOF 2
ENDMDL
MODEL 2
REMARK VINA RESULT:      -7.7      4.690      7.705
REMARK  Name = 
REMARK  2 active torsions:
REMARK  status: ('A' for Active; 'I' for Inactive)
REMARK    1  A    between atoms: C_2  and  C_3
REMARK    2  A    between atoms: C_5  and  C_6
REMARK                            x       y       z     vdW  Elec       q    Type
REMARK                         _______ _______ _______ _____ _____    ______ ____
ROOT
ATOM      1  C   UNL     1       3.239   5.683  18.404  0.00  0.00    +0.000 A 
ATOM      2  C   UNL     1       2.567   6.921  18.223  0.00  0.00    +0.000 A 
ATOM      3  C   UNL     1       2.114   7.259  19.476  0.00  0.00    +0.000 A 
ATOM      4  O   UNL     1       2.515   6.303  20.355  0.00  0.00    +0.000 OA
ATOM      5  N   UNL     1       3.264   5.357  19.707  0.00  0.00    +0.000 NA
ENDROOT
BRANCH   3   6
ATOM      6  C   UNL     1       1.334   8.347  20.047  0.00  0.00    +0.000 A 
ATOM      7  C   UNL     1       1.081   9.519  19.288  0.00  0.00    +0.000 A 
ATOM      8  C   UNL     1       0.356  10.587  19.818  0.00  0.00    +0.000 A 
ATOM      9  C   UNL     1      -0.103  10.462  21.106  0.00  0.00    +0.000 A 
ATOM     10  C   UNL     1       0.126   9.328  21.851  0.00  0.00    +0.000 A 
ATOM     11  C   UNL     1       0.831   8.255  21.351  0.00  0.00    +0.000 A 
ATOM     12  O   UNL     1      -0.405   9.415  23.100  0.00  0.00    +0.000 OA
ATOM     13  C   UNL     1      -0.941  10.756  23.074  0.00  0.00    +0.000 C 
ATOM     14  O   UNL     1      -0.803  11.403  21.792  0.00  0.00    +0.000 OA
ENDBRANCH   3   6
BRANCH   1  16
ATOM     15  O   UNL     1       3.511   3.695  17.200  0.00  0.00    +0.000 OA
ATOM     16  C   UNL     1       3.874   4.853  17.371  0.00  0.00    +0.000 C 
ATOM     17  N   UNL     1       4.918   5.415  16.633  0.00  0.00    +0.000 N 
ATOM     18  C   UNL     1       5.503   4.690  15.504  0.00  0.00    +0.000 C 
ATOM     19  C   UNL     1       7.028   4.591  15.643  0.00  0.00    +0.000 C 
ATOM     20  O   UNL     1       7.628   5.876  15.884  0.00  0.00    +0.000 OA
ATOM     21  C   UNL     1       7.093   6.467  17.070  0.00  0.00    +0.000 C 
ATOM     22  C   UNL     1       5.589   6.689  16.930  0.00  0.00    +0.000 C 
ENDBRANCH   1  16
TORSDOF 2
ENDMDL
MODEL 3
REMARK VINA RESULT:      -7.7      5.793      8.447
REMARK  Name = 
REMARK  2 active torsions:
REMARK  status: ('A' for Active; 'I' for Inactive)
REMARK    1  A    between atoms: C_2  and  C_3
REMARK    2  A    between atoms: C_5  and  C_6
REMARK                            x       y       z     vdW  Elec       q    Type
REMARK                         _______ _______ _______ _____ _____    ______ ____
ROOT
ATOM      1  C   UNL     1       1.602   8.766  19.364  0.00  0.00    +0.000 A 
ATOM      2  C   UNL     1       2.163   8.365  18.121  0.00  0.00    +0.000 A 
ATOM      3  C   UNL     1       2.784   7.168  18.387  0.00  0.00    +0.000 A 
ATOM      4  O   UNL     1       2.582   6.856  19.695  0.00  0.00    +0.000 OA
ATOM      5  N   UNL     1       1.800   7.811  20.289  0.00  0.00    +0.000 NA
ENDROOT
BRANCH   3   6
ATOM      6  C   UNL     1       3.576   6.210  17.630  0.00  0.00    +0.000 A 
ATOM      7  C   UNL     1       3.268   4.827  17.687  0.00  0.00    +0.000 A 
ATOM      8  C   UNL     1       4.025   3.883  16.991  0.00  0.00    +0.000 A 
ATOM      9  C   UNL     1       5.082   4.346  16.246  0.00  0.00    +0.000 A 
ATOM     10  C   UNL     1       5.386   5.685  16.172  0.00  0.00    +0.000 A 
ATOM     11  C   UNL     1       4.651   6.639  16.842  0.00  0.00    +0.000 A 
ATOM     12  O   UNL     1       6.472   5.926  15.390  0.00  0.00    +0.000 OA
ATOM     13  C   UNL     1       6.851   4.579  15.031  0.00  0.00    +0.000 C 
ATOM     14  O   UNL     1       5.938   3.578  15.524  0.00  0.00    +0.000 OA
ENDBRANCH   3   6
BRANCH   1  16
ATOM     15  O   UNL     1       1.062  11.010  18.982  0.00  0.00    +0.000 OA
ATOM     16  C   UNL     1       0.866  10.003  19.653  0.00  0.00    +0.000 C 
ATOM     17  N   UNL     1      -0.022   9.997  20.732  0.00  0.00    +0.000 N 
ATOM     18  C   UNL     1      -0.881  11.153  20.991  0.00  0.00    +0.000 C 
ATOM     19  C   UNL     1      -0.738  11.632  22.442  0.00  0.00    +0.000 C 
ATOM     20  O   UNL     1      -0.910  10.555  23.381  0.00  0.00    +0.000 OA
ATOM     21  C   UNL     1       0.045   9.520  23.139  0.00  0.00    +0.000 C 
ATOM     22  C   UNL     1      -0.138   8.934  21.740  0.00  0.00    +0.000 C 
ENDBRANCH   1  16
TORSDOF 2
ENDMDL
MODEL 4
REMARK VINA RESULT:      -7.6      5.723      8.581
REMARK  Name = 
REMARK  2 active torsions:
REMARK  status: ('A' for Active; 'I' for Inactive)
REMARK    1  A    between atoms: C_2  and  C_3
REMARK    2  A    between atoms: C_5  and  C_6
REMARK                            x       y       z     vdW  Elec       q    Type
REMARK                         _______ _______ _______ _____ _____    ______ ____
ROOT
ATOM      1  C   UNL     1       1.319   9.292  19.323  0.00  0.00    +0.000 A 
ATOM      2  C   UNL     1       1.967   8.825  18.147  0.00  0.00    +0.000 A 
ATOM      3  C   UNL     1       2.494   7.606  18.498  0.00  0.00    +0.000 A 
ATOM      4  O   UNL     1       2.159   7.343  19.789  0.00  0.00    +0.000 OA
ATOM      5  N   UNL     1       1.380   8.356  20.285  0.00  0.00    +0.000 NA
ENDROOT
BRANCH   3   6
ATOM      6  C   UNL     1       3.297   6.586  17.841  0.00  0.00    +0.000 A 
ATOM      7  C   UNL     1       2.890   5.227  17.872  0.00  0.00    +0.000 A 
ATOM      8  C   UNL     1       3.652   4.224  17.271  0.00  0.00    +0.000 A 
ATOM      9  C   UNL     1       4.815   4.603  16.647  0.00  0.00    +0.000 A 
ATOM     10  C   UNL     1       5.218   5.918  16.599  0.00  0.00    +0.000 A 
ATOM     11  C   UNL     1       4.481   6.929  17.176  0.00  0.00    +0.000 A 
ATOM     12  O   UNL     1       6.399   6.073  15.942  0.00  0.00    +0.000 OA
ATOM     13  C   UNL     1       6.721   4.698  15.637  0.00  0.00    +0.000 C 
ATOM     14  O   UNL     1       5.692   3.768  16.030  0.00  0.00    +0.000 OA
ENDBRANCH   3   6
BRANCH   1  16
ATOM     15  O   UNL     1       0.954  11.321  20.428  0.00  0.00    +0.000 OA
ATOM     16  C   UNL     1       0.629  10.574  19.512  0.00  0.00    +0.000 C 
ATOM     17  N   UNL     1      -0.422  10.884  18.646  0.00  0.00    +0.000 N 
ATOM     18  C   UNL     1      -1.062  12.199  18.698  0.00  0.00    +0.000 C 
ATOM     19  C   UNL     1      -2.584  12.066  18.841  0.00  0.00    +0.000 C 
ATOM     20  O   UNL     1      -3.141  11.185  17.848  0.00  0.00    +0.000 OA
ATOM     21  C   UNL     1      -2.552   9.887  17.942  0.00  0.00    +0.000 C 
ATOM     22  C   UNL     1      -1.047   9.958  17.691  0.00  0.00    +0.000 C 
ENDBRANCH   1  16
TORSDOF 2
ENDMDL
MODEL 5
REMARK VINA RESULT:      -7.5      1.258      1.326
REMARK  Name = 
REMARK  2 active torsions:
REMARK  status: ('A' for Active; 'I' for Inactive)
REMARK    1  A    between atoms: C_2  and  C_3
REMARK    2  A    between atoms: C_5  and  C_6
REMARK                            x       y       z     vdW  Elec       q    Type
REMARK                         _______ _______ _______ _____ _____    ______ ____
ROOT
ATOM      1  C   UNL     1       7.188   7.091  17.582  0.00  0.00    +0.000 A 
ATOM      2  C   UNL     1       7.347   8.488  17.375  0.00  0.00    +0.000 A 
ATOM      3  C   UNL     1       8.289   8.873  18.298  0.00  0.00    +0.000 A 
ATOM      4  O   UNL     1       8.691   7.775  18.992  0.00  0.00    +0.000 OA
ATOM      5  N   UNL     1       8.057   6.660  18.511  0.00  0.00    +0.000 NA
ENDROOT
BRANCH   3   6
ATOM      6  C   UNL     1       8.917  10.125  18.691  0.00  0.00    +0.000 A 
ATOM      7  C   UNL     1       9.395  10.299  20.016  0.00  0.00    +0.000 A 
ATOM      8  C   UNL     1       9.981  11.497  20.427  0.00  0.00    +0.000 A 
ATOM      9  C   UNL     1      10.076  12.505  19.499  0.00  0.00    +0.000 A 
ATOM     10  C   UNL     1       9.626  12.348  18.209  0.00  0.00    +0.000 A 
ATOM     11  C   UNL     1       9.052  11.174  17.773  0.00  0.00    +0.000 A 
ATOM     12  O   UNL     1       9.807  13.469  17.458  0.00  0.00    +0.000 OA
ATOM     13  C   UNL     1      10.366  14.366  18.443  0.00  0.00    +0.000 C 
ATOM     14  O   UNL     1      10.592  13.742  19.723  0.00  0.00    +0.000 OA
ENDBRANCH   3   6
BRANCH   1  16
ATOM     15  O   UNL     1       6.160   6.224  15.667  0.00  0.00    +0.000 OA
ATOM     16  C   UNL     1       6.262   6.186  16.888  0.00  0.00    +0.000 C 
ATOM     17  N   UNL     1       5.488   5.322  17.665  0.00  0.00    +0.000 N 
ATOM     18  C   UNL     1       4.646   4.307  17.031  0.00  0.00    +0.000 C 
ATOM     19  C   UNL     1       3.199   4.397  17.536  0.00  0.00    +0.000 C 
ATOM     20  O   UNL     1       3.131   4.396  18.973  0.00  0.00    +0.000 OA
ATOM     21  C   UNL     1       3.879   5.488  19.512  0.00  0.00    +0.000 C 
ATOM     22  C   UNL     1       5.353   5.375  19.128  0.00  0.00    +0.000 C 
ENDBRANCH   1  16
TORSDOF 2
ENDMDL
MODEL 6
REMARK VINA RESULT:      -7.5      1.327      1.800
REMARK  Name = 
REMARK  2 active torsions:
REMARK  status: ('A' for Active; 'I' for Inactive)
REMARK    1  A    between atoms: C_2  and  C_3
REMARK    2  A    between atoms: C_5  and  C_6
REMARK                            x       y       z     vdW  Elec       q    Type
REMARK                         _______ _______ _______ _____ _____    ______ ____
ROOT
ATOM      1  C   UNL     1       7.180   6.526  17.646  0.00  0.00    +0.000 A 
ATOM      2  C   UNL     1       7.235   7.895  17.270  0.00  0.00    +0.000 A 
ATOM      3  C   UNL     1       8.104   8.470  18.166  0.00  0.00    +0.000 A 
ATOM      4  O   UNL     1       8.563   7.504  19.005  0.00  0.00    +0.000 OA
ATOM      5  N   UNL     1       8.041   6.288  18.650  0.00  0.00    +0.000 NA
ENDROOT
BRANCH   3   6
ATOM      6  C   UNL     1       8.612   9.810  18.417  0.00  0.00    +0.000 A 
ATOM      7  C   UNL     1       8.276  10.876  17.543  0.00  0.00    +0.000 A 
ATOM      8  C   UNL     1       8.767  12.166  17.745  0.00  0.00    +0.000 A 
ATOM      9  C   UNL     1       9.592  12.366  18.825  0.00  0.00    +0.000 A 
ATOM     10  C   UNL     1       9.918  11.345  19.688  0.00  0.00    +0.000 A 
ATOM     11  C   UNL     1       9.441  10.064  19.517  0.00  0.00    +0.000 A 
ATOM     12  O   UNL     1      10.751  11.755  20.682  0.00  0.00    +0.000 OA
ATOM     13  C   UNL     1      10.958  13.135  20.309  0.00  0.00    +0.000 C 
ATOM     14  O   UNL     1      10.179  13.543  19.166  0.00  0.00    +0.000 OA
ENDBRANCH   3   6
BRANCH   1  16
ATOM     15  O   UNL     1       6.542   5.132  15.879  0.00  0.00    +0.000 OA
ATOM     16  C   UNL     1       6.360   5.467  17.044  0.00  0.00    +0.000 C 
ATOM     17  N   UNL     1       5.355   4.894  17.827  0.00  0.00    +0.000 N 
ATOM     18  C   UNL     1       4.592   3.748  17.332  0.00  0.00    +0.000 C 
ATOM     19  C   UNL     1       3.082   4.011  17.419  0.00  0.00    +0.000 C 
ATOM     20  O   UNL     1       2.690   4.449  18.731  0.00  0.00    +0.000 OA
ATOM     21  C   UNL     1       3.389   5.642  19.092  0.00  0.00    +0.000 C 
ATOM     22  C   UNL     1       4.895   5.394  19.130  0.00  0.00    +0.000 C 
ENDBRANCH   1  16
TORSDOF 2
ENDMDL
MODEL 7
REMARK VINA RESULT:      -7.4      4.706      7.417
REMARK  Name = 
REMARK  2 active torsions:
REMARK  status: ('A' for Active; 'I' for Inactive)
REMARK    1  A    between atoms: C_2  and  C_3
REMARK    2  A    between atoms: C_5  and  C_6
REMARK                            x       y       z     vdW  Elec       q    Type
REMARK                         _______ _______ _______ _____ _____    ______ ____
ROOT
ATOM      1  C   UNL     1       3.168   5.762  18.448  0.00  0.00    +0.000 A 
ATOM      2  C   UNL     1       2.619   7.071  18.378  0.00  0.00    +0.000 A 
ATOM      3  C   UNL     1       2.137   7.317  19.641  0.00  0.00    +0.000 A 
ATOM      4  O   UNL     1       2.407   6.240  20.426  0.00  0.00    +0.000 OA
ATOM      5  N   UNL     1       3.099   5.300  19.708  0.00  0.00    +0.000 NA
ENDROOT
BRANCH   3   6
ATOM      6  C   UNL     1       1.431   8.407  20.297  0.00  0.00    +0.000 A 
ATOM      7  C   UNL     1       1.182   8.358  21.693  0.00  0.00    +0.000 A 
ATOM      8  C   UNL     1       0.488   9.378  22.345  0.00  0.00    +0.000 A 
ATOM      9  C   UNL     1       0.052  10.433  21.582  0.00  0.00    +0.000 A 
ATOM     10  C   UNL     1       0.295  10.500  20.230  0.00  0.00    +0.000 A 
ATOM     11  C   UNL     1       0.985   9.512  19.562  0.00  0.00    +0.000 A 
ATOM     12  O   UNL     1      -0.229  11.622  19.665  0.00  0.00    +0.000 OA
ATOM     13  C   UNL     1      -0.881  12.220  20.808  0.00  0.00    +0.000 C 
ATOM     14  O   UNL     1      -0.656  11.501  22.037  0.00  0.00    +0.000 OA
ENDBRANCH   3   6
BRANCH   1  16
ATOM     15  O   UNL     1       3.365   3.866  17.092  0.00  0.00    +0.000 OA
ATOM     16  C   UNL     1       3.775   4.990  17.357  0.00  0.00    +0.000 C 
ATOM     17  N   UNL     1       4.849   5.563  16.670  0.00  0.00    +0.000 N 
ATOM     18  C   UNL     1       5.411   4.904  15.491  0.00  0.00    +0.000 C 
ATOM     19  C   UNL     1       6.930   4.729  15.629  0.00  0.00    +0.000 C 
ATOM     20  O   UNL     1       7.582   5.964  15.973  0.00  0.00    +0.000 OA
ATOM     21  C   UNL     1       7.062   6.482  17.200  0.00  0.00    +0.000 C 
ATOM     22  C   UNL     1       5.570   6.779  17.070  0.00  0.00    +0.000 C 
ENDBRANCH   1  16
TORSDOF 2
ENDMDL
MODEL 8
REMARK VINA RESULT:      -7.4      0.802      1.369
REMARK  Name = 
REMARK  2 active torsions:
REMARK  status: ('A' for Active; 'I' for Inactive)
REMARK    1  A    between atoms: C_2  and  C_3
REMARK    2  A    between atoms: C_5  and  C_6
REMARK                            x       y       z     vdW  Elec       q    Type
REMARK                         _______ _______ _______ _____ _____    ______ ____
ROOT
ATOM      1  C   UNL     1       7.398   6.605  17.933  0.00  0.00    +0.000 A 
ATOM      2  C   UNL     1       8.003   7.515  18.841  0.00  0.00    +0.000 A 
ATOM      3  C   UNL     1       8.183   8.667  18.114  0.00  0.00    +0.000 A 
ATOM      4  O   UNL     1       7.691   8.472  16.863  0.00  0.00    +0.000 OA
ATOM      5  N   UNL     1       7.149   7.218  16.763  0.00  0.00    +0.000 NA
ENDROOT
BRANCH   3   6
ATOM      6  C   UNL     1       8.760   9.980  18.362  0.00  0.00    +0.000 A 
ATOM      7  C   UNL     1       8.363  11.094  17.578  0.00  0.00    +0.000 A 
ATOM      8  C   UNL     1       8.916  12.359  17.777  0.00  0.00    +0.000 A 
ATOM      9  C   UNL     1       9.863  12.487  18.763  0.00  0.00    +0.000 A 
ATOM     10  C   UNL     1      10.251  11.419  19.539  0.00  0.00    +0.000 A 
ATOM     11  C   UNL     1       9.716  10.161  19.370  0.00  0.00    +0.000 A 
ATOM     12  O   UNL     1      11.204  11.760  20.448  0.00  0.00    +0.000 OA
ATOM     13  C   UNL     1      11.413  13.149  20.112  0.00  0.00    +0.000 C 
ATOM     14  O   UNL     1      10.523  13.630  19.084  0.00  0.00    +0.000 OA
ENDBRANCH   3   6
BRANCH   1  16
ATOM     15  O   UNL     1       7.862   4.314  18.035  0.00  0.00    +0.000 OA
ATOM     16  C   UNL     1       7.033   5.205  18.183  0.00  0.00    +0.000 C 
ATOM     17  N   UNL     1       5.714   4.930  18.551  0.00  0.00    +0.000 N 
ATOM     18  C   UNL     1       5.320   3.576  18.941  0.00  0.00    +0.000 C 
ATOM     19  C   UNL     1       4.105   3.101  18.132  0.00  0.00    +0.000 C 
ATOM     20  O   UNL     1       3.029   4.055  18.170  0.00  0.00    +0.000 OA
ATOM     21  C   UNL     1       3.460   5.318  17.659  0.00  0.00    +0.000 C 
ATOM     22  C   UNL     1       4.596   5.884  18.508  0.00  0.00    +0.000 C 
ENDBRANCH   1  16
TORSDOF 2
ENDMDL
MODEL 9
REMARK VINA RESULT:      -7.4      6.094      9.464
REMARK  Name = 
REMARK  2 active torsions:
REMARK  status: ('A' for Active; 'I' for Inactive)
REMARK    1  A    between atoms: C_2  and  C_3
REMARK    2  A    between atoms: C_5  and  C_6
REMARK                            x       y       z     vdW  Elec       q    Type
REMARK                         _______ _______ _______ _____ _____    ______ ____
ROOT
ATOM      1  C   UNL     1       1.383   9.793  18.612  0.00  0.00    +0.000 A 
ATOM      2  C   UNL     1       1.480   8.488  19.166  0.00  0.00    +0.000 A 
ATOM      3  C   UNL     1       2.268   7.791  18.281  0.00  0.00    +0.000 A 
ATOM      4  O   UNL     1       2.644   8.630  17.280  0.00  0.00    +0.000 OA
ATOM      5  N   UNL     1       2.149   9.886  17.512  0.00  0.00    +0.000 NA
ENDROOT
BRANCH   3   6
ATOM      6  C   UNL     1       2.760   6.425  18.171  0.00  0.00    +0.000 A 
ATOM      7  C   UNL     1       4.156   6.171  18.127  0.00  0.00    +0.000 A 
ATOM      8  C   UNL     1       4.656   4.875  17.999  0.00  0.00    +0.000 A 
ATOM      9  C   UNL     1       3.744   3.851  17.915  0.00  0.00    +0.000 A 
ATOM     10  C   UNL     1       2.389   4.081  17.967  0.00  0.00    +0.000 A 
ATOM     11  C   UNL     1       1.867   5.349  18.102  0.00  0.00    +0.000 A 
ATOM     12  O   UNL     1       1.665   2.934  17.858  0.00  0.00    +0.000 OA
ATOM     13  C   UNL     1       2.721   1.966  17.671  0.00  0.00    +0.000 C 
ATOM     14  O   UNL     1       4.043   2.534  17.765  0.00  0.00    +0.000 OA
ENDBRANCH   3   6
BRANCH   1  16
ATOM     15  O   UNL     1       1.028  11.563  20.099  0.00  0.00    +0.000 OA
ATOM     16  C   UNL     1       0.614  10.930  19.136  0.00  0.00    +0.000 C 
ATOM     17  N   UNL     1      -0.607  11.228  18.526  0.00  0.00    +0.000 N 
ATOM     18  C   UNL     1      -1.356  12.424  18.913  0.00  0.00    +0.000 C 
ATOM     19  C   UNL     1      -2.803  12.072  19.284  0.00  0.00    +0.000 C 
ATOM     20  O   UNL     1      -3.443  11.289  18.261  0.00  0.00    +0.000 OA
ATOM     21  C   UNL     1      -2.718  10.080  18.027  0.00  0.00    +0.000 C 
ATOM     22  C   UNL     1      -1.302  10.385  17.543  0.00  0.00    +0.000 C 
ENDBRANCH   1  16
TORSDOF 2
ENDMDL
