MODEL 1
REMARK VINA RESULT:      -7.4      0.000      0.000
REMARK  Name = 
REMARK  9 active torsions:
REMARK  status: ('A' for Active; 'I' for Inactive)
REMARK    1  A    between atoms: C_1  and  C_2
REMARK    2  A    between atoms: C_2  and  O_3
REMARK    3  A    between atoms: O_3  and  C_4
REMARK    4  A    between atoms: C_4  and  C_6
REMARK    5  A    between atoms: N_8  and  C_9
REMARK    6  A    between atoms: C_10  and  C_11
REMARK    7  A    between atoms: C_18  and  C_19
REMARK    8  A    between atoms: C_20  and  C_21
REMARK    9  A    between atoms: C_21  and  O_22
REMARK                            x       y       z     vdW  Elec       q    Type
REMARK                         _______ _______ _______ _____ _____    ______ ____
ROOT
ATOM      1  C   UNL     1       5.336   4.550  16.790  0.00  0.00    +0.000 A 
ATOM      2  N   UNL     1       4.238   3.781  16.916  0.00  0.00    +0.000 NA
ATOM      3  N   UNL     1       3.307   4.586  17.462  0.00  0.00    +0.000 N 
ATOM      4  C   UNL     1       1.983   4.033  17.625  0.00  0.00    +0.000 C 
ATOM      5  C   UNL     1       3.752   5.869  17.726  0.00  0.00    +0.000 A 
ATOM      6  C   UNL     1       5.089   5.837  17.337  0.00  0.00    +0.000 A 
ENDROOT
BRANCH   5   7
ATOM      7  C   UNL     1       2.944   6.997  18.243  0.00  0.00    +0.000 A 
ATOM      8  C   UNL     1       2.644   8.090  17.408  0.00  0.00    +0.000 A 
ATOM      9  C   UNL     1       1.953   9.213  17.872  0.00  0.00    +0.000 A 
ATOM     10  C   UNL     1       1.481   9.240  19.178  0.00  0.00    +0.000 A 
ATOM     11  C   UNL     1       1.727   8.153  20.009  0.00  0.00    +0.000 A 
ATOM     12 CL   UNL     1       1.106   8.157  21.616  0.00  0.00    +0.000 Cl
ATOM     13  C   UNL     1       2.471   7.055  19.560  0.00  0.00    +0.000 A 
ENDBRANCH   5   7
BRANCH   1  14
ATOM     14  C   UNL     1       6.550   4.091  16.097  0.00  0.00    +0.000 C 
ATOM     15  O   UNL     1       7.687   4.336  16.485  0.00  0.00    +0.000 OA
BRANCH  14  16
ATOM     16  O   UNL     1       6.272   3.468  14.909  0.00  0.00    +0.000 OA
BRANCH  16  18
ATOM     17  C   UNL     1       6.014   3.450  12.532  0.00  0.00    +0.000 C 
ATOM     18  C   UNL     1       6.481   4.254  13.732  0.00  0.00    +0.000 C 
ENDBRANCH  16  18
ENDBRANCH  14  16
ENDBRANCH   1  14
BRANCH   6  19
ATOM     19  C   UNL     1       6.003   6.931  17.414  0.00  0.00    +0.000 C 
ATOM     20  C   UNL     1       6.840   7.783  17.552  0.00  0.00    +0.000 C 
BRANCH  20  21
ATOM     21  C   UNL     1       7.931   8.726  17.768  0.00  0.00    +0.000 C 
BRANCH  21  22
ATOM     22  O   UNL     1       8.727   8.292  18.866  0.00  0.00    +0.000 OA
ATOM     23  H   UNL     1       9.613   8.665  18.729  0.00  0.00    +0.000 HD
ENDBRANCH  21  22
ENDBRANCH  20  21
ENDBRANCH   6  19
TORSDOF 7
ENDMDL
MODEL 2
REMARK VINA RESULT:      -6.9      1.058      1.484
REMARK  Name = 
REMARK  9 active torsions:
REMARK  status: ('A' for Active; 'I' for Inactive)
REMARK    1  A    between atoms: C_1  and  C_2
REMARK    2  A    between atoms: C_2  and  O_3
REMARK    3  A    between atoms: O_3  and  C_4
REMARK    4  A    between atoms: C_4  and  C_6
REMARK    5  A    between atoms: N_8  and  C_9
REMARK    6  A    between atoms: C_10  and  C_11
REMARK    7  A    between atoms: C_18  and  C_19
REMARK    8  A    between atoms: C_20  and  C_21
REMARK    9  A    between atoms: C_21  and  O_22
REMARK                            x       y       z     vdW  Elec       q    Type
REMARK                         _______ _______ _______ _____ _____    ______ ____
ROOT
ATOM      1  C   UNL     1       4.965   4.426  16.499  0.00  0.00    +0.000 A 
ATOM      2  N   UNL     1       3.870   3.661  16.668  0.00  0.00    +0.000 NA
ATOM      3  N   UNL     1       3.045   4.396  17.436  0.00  0.00    +0.000 N 
ATOM      4  C   UNL     1       1.737   3.843  17.702  0.00  0.00    +0.000 C 
ATOM      5  C   UNL     1       3.559   5.626  17.806  0.00  0.00    +0.000 A 
ATOM      6  C   UNL     1       4.831   5.630  17.240  0.00  0.00    +0.000 A 
ENDROOT
BRANCH   5   7
ATOM      7  C   UNL     1       2.861   6.684  18.571  0.00  0.00    +0.000 A 
ATOM      8  C   UNL     1       2.497   6.461  19.913  0.00  0.00    +0.000 A 
ATOM      9  C   UNL     1       1.768   7.397  20.652  0.00  0.00    +0.000 A 
ATOM     10  C   UNL     1       1.439   8.618  20.081  0.00  0.00    +0.000 A 
ATOM     11  C   UNL     1       1.824   8.879  18.770  0.00  0.00    +0.000 A 
ATOM     12 CL   UNL     1       1.460  10.410  18.069  0.00  0.00    +0.000 Cl
ATOM     13  C   UNL     1       2.502   7.918  18.013  0.00  0.00    +0.000 A 
ENDBRANCH   5   7
BRANCH   1  14
ATOM     14  C   UNL     1       6.062   4.050  15.594  0.00  0.00    +0.000 C 
ATOM     15  O   UNL     1       7.238   3.995  15.938  0.00  0.00    +0.000 OA
BRANCH  14  16
ATOM     16  O   UNL     1       5.643   3.888  14.300  0.00  0.00    +0.000 OA
BRANCH  16  18
ATOM     17  C   UNL     1       6.212   3.264  12.062  0.00  0.00    +0.000 C 
ATOM     18  C   UNL     1       6.655   4.028  13.297  0.00  0.00    +0.000 C 
ENDBRANCH  16  18
ENDBRANCH  14  16
ENDBRANCH   1  14
BRANCH   6  19
ATOM     19  C   UNL     1       5.780   6.692  17.337  0.00  0.00    +0.000 C 
ATOM     20  C   UNL     1       6.650   7.511  17.482  0.00  0.00    +0.000 C 
BRANCH  20  21
ATOM     21  C   UNL     1       7.779   8.408  17.696  0.00  0.00    +0.000 C 
BRANCH  21  22
ATOM     22  O   UNL     1       8.585   7.914  18.761  0.00  0.00    +0.000 OA
ATOM     23  H   UNL     1       9.509   8.050  18.494  0.00  0.00    +0.000 HD
ENDBRANCH  21  22
ENDBRANCH  20  21
ENDBRANCH   6  19
TORSDOF 7
ENDMDL
MODEL 3
REMARK VINA RESULT:      -6.1      4.370      7.586
REMARK  Name = 
REMARK  9 active torsions:
REMARK  status: ('A' for Active; 'I' for Inactive)
REMARK    1  A    between atoms: C_1  and  C_2
REMARK    2  A    between atoms: C_2  and  O_3
REMARK    3  A    between atoms: O_3  and  C_4
REMARK    4  A    between atoms: C_4  and  C_6
REMARK    5  A    between atoms: N_8  and  C_9
REMARK    6  A    between atoms: C_10  and  C_11
REMARK    7  A    between atoms: C_18  and  C_19
REMARK    8  A    between atoms: C_20  and  C_21
REMARK    9  A    between atoms: C_21  and  O_22
REMARK                            x       y       z     vdW  Elec       q    Type
REMARK                         _______ _______ _______ _____ _____    ______ ____
ROOT
ATOM      1  C   UNL     1       1.323   7.913  20.431  0.00  0.00    +0.000 A 
ATOM      2  N   UNL     1       1.640   8.865  19.533  0.00  0.00    +0.000 NA
ATOM      3  N   UNL     1       2.398   8.240  18.614  0.00  0.00    +0.000 N 
ATOM      4  C   UNL     1       2.808   9.019  17.469  0.00  0.00    +0.000 C 
ATOM      5  C   UNL     1       2.619   6.900  18.876  0.00  0.00    +0.000 A 
ATOM      6  C   UNL     1       1.962   6.693  20.086  0.00  0.00    +0.000 A 
ENDROOT
BRANCH   5   7
ATOM      7  C   UNL     1       3.337   5.935  18.012  0.00  0.00    +0.000 A 
ATOM      8  C   UNL     1       2.728   4.716  17.658  0.00  0.00    +0.000 A 
ATOM      9  C   UNL     1       3.395   3.742  16.910  0.00  0.00    +0.000 A 
ATOM     10  C   UNL     1       4.676   3.992  16.438  0.00  0.00    +0.000 A 
ATOM     11  C   UNL     1       5.282   5.207  16.739  0.00  0.00    +0.000 A 
ATOM     12 CL   UNL     1       6.853   5.547  16.119  0.00  0.00    +0.000 Cl
ATOM     13  C   UNL     1       4.636   6.158  17.538  0.00  0.00    +0.000 A 
ENDBRANCH   5   7
BRANCH   1  14
ATOM     14  C   UNL     1       0.376   8.146  21.533  0.00  0.00    +0.000 C 
ATOM     15  O   UNL     1      -0.782   7.742  21.531  0.00  0.00    +0.000 OA
BRANCH  14  16
ATOM     16  O   UNL     1       0.891   8.965  22.503  0.00  0.00    +0.000 OA
BRANCH  16  18
ATOM     17  C   UNL     1      -0.582  10.843  22.651  0.00  0.00    +0.000 C 
ATOM     18  C   UNL     1      -0.070   9.598  23.354  0.00  0.00    +0.000 C 
ENDBRANCH  16  18
ENDBRANCH  14  16
ENDBRANCH   1  14
BRANCH   6  19
ATOM     19  C   UNL     1       1.894   5.454  20.793  0.00  0.00    +0.000 C 
ATOM     20  C   UNL     1       1.803   4.360  21.285  0.00  0.00    +0.000 C 
BRANCH  20  21
ATOM     21  C   UNL     1       1.689   2.987  21.761  0.00  0.00    +0.000 C 
BRANCH  21  22
ATOM     22  O   UNL     1       2.989   2.429  21.926  0.00  0.00    +0.000 OA
ATOM     23  H   UNL     1       3.389   2.882  22.687  0.00  0.00    +0.000 HD
ENDBRANCH  21  22
ENDBRANCH  20  21
ENDBRANCH   6  19
TORSDOF 7
ENDMDL
MODEL 4
REMARK VINA RESULT:      -5.9      3.302      5.632
REMARK  Name = 
REMARK  9 active torsions:
REMARK  status: ('A' for Active; 'I' for Inactive)
REMARK    1  A    between atoms: C_1  and  C_2
REMARK    2  A    between atoms: C_2  and  O_3
REMARK    3  A    between atoms: O_3  and  C_4
REMARK    4  A    between atoms: C_4  and  C_6
REMARK    5  A    between atoms: N_8  and  C_9
REMARK    6  A    between atoms: C_10  and  C_11
REMARK    7  A    between atoms: C_18  and  C_19
REMARK    8  A    between atoms: C_20  and  C_21
REMARK    9  A    between atoms: C_21  and  O_22
REMARK                            x       y       z     vdW  Elec       q    Type
REMARK                         _______ _______ _______ _____ _____    ______ ____
ROOT
ATOM      1  C   UNL     1       3.061   4.138  17.141  0.00  0.00    +0.000 A 
ATOM      2  N   UNL     1       3.886   3.551  16.254  0.00  0.00    +0.000 NA
ATOM      3  N   UNL     1       5.075   4.156  16.428  0.00  0.00    +0.000 N 
ATOM      4  C   UNL     1       6.184   3.649  15.654  0.00  0.00    +0.000 C 
ATOM      5  C   UNL     1       5.071   5.148  17.393  0.00  0.00    +0.000 A 
ATOM      6  C   UNL     1       3.748   5.175  17.825  0.00  0.00    +0.000 A 
ENDROOT
BRANCH   5   7
ATOM      7  C   UNL     1       6.238   5.927  17.866  0.00  0.00    +0.000 A 
ATOM      8  C   UNL     1       7.120   5.371  18.811  0.00  0.00    +0.000 A 
ATOM      9  C   UNL     1       8.189   6.095  19.347  0.00  0.00    +0.000 A 
ATOM     10  C   UNL     1       8.444   7.383  18.895  0.00  0.00    +0.000 A 
ATOM     11  C   UNL     1       7.611   7.938  17.930  0.00  0.00    +0.000 A 
ATOM     12 CL   UNL     1       7.945   9.518  17.329  0.00  0.00    +0.000 Cl
ATOM     13  C   UNL     1       6.506   7.234  17.439  0.00  0.00    +0.000 A 
ENDBRANCH   5   7
BRANCH   1  14
ATOM     14  C   UNL     1       1.687   3.666  17.379  0.00  0.00    +0.000 C 
ATOM     15  O   UNL     1       0.687   4.320  17.106  0.00  0.00    +0.000 OA
BRANCH  14  16
ATOM     16  O   UNL     1       1.652   2.472  18.050  0.00  0.00    +0.000 OA
BRANCH  16  18
ATOM     17  C   UNL     1       1.219   3.050  20.330  0.00  0.00    +0.000 C 
ATOM     18  C   UNL     1       0.670   2.372  19.086  0.00  0.00    +0.000 C 
ENDBRANCH  16  18
ENDBRANCH  14  16
ENDBRANCH   1  14
BRANCH   6  19
ATOM     19  C   UNL     1       3.219   6.044  18.827  0.00  0.00    +0.000 C 
ATOM     20  C   UNL     1       2.671   6.778  19.608  0.00  0.00    +0.000 C 
BRANCH  20  21
ATOM     21  C   UNL     1       1.898   7.637  20.495  0.00  0.00    +0.000 C 
BRANCH  21  22
ATOM     22  O   UNL     1       1.413   8.762  19.767  0.00  0.00    +0.000 OA
ATOM     23  H   UNL     1       2.143   9.402  19.731  0.00  0.00    +0.000 HD
ENDBRANCH  21  22
ENDBRANCH  20  21
ENDBRANCH   6  19
TORSDOF 7
ENDMDL
MODEL 5
REMARK VINA RESULT:      -5.9      4.098      6.437
REMARK  Name = 
REMARK  9 active torsions:
REMARK  status: ('A' for Active; 'I' for Inactive)
REMARK    1  A    between atoms: C_1  and  C_2
REMARK    2  A    between atoms: C_2  and  O_3
REMARK    3  A    between atoms: O_3  and  C_4
REMARK    4  A    between atoms: C_4  and  C_6
REMARK    5  A    between atoms: N_8  and  C_9
REMARK    6  A    between atoms: C_10  and  C_11
REMARK    7  A    between atoms: C_18  and  C_19
REMARK    8  A    between atoms: C_20  and  C_21
REMARK    9  A    between atoms: C_21  and  O_22
REMARK                            x       y       z     vdW  Elec       q    Type
REMARK                         _______ _______ _______ _____ _____    ______ ____
ROOT
ATOM      1  C   UNL     1       2.688   5.348  19.733  0.00  0.00    +0.000 A 
ATOM      2  N   UNL     1       2.468   6.537  19.144  0.00  0.00    +0.000 NA
ATOM      3  N   UNL     1       3.355   6.597  18.133  0.00  0.00    +0.000 N 
ATOM      4  C   UNL     1       3.276   7.748  17.265  0.00  0.00    +0.000 C 
ATOM      5  C   UNL     1       4.180   5.491  18.037  0.00  0.00    +0.000 A 
ATOM      6  C   UNL     1       3.784   4.695  19.109  0.00  0.00    +0.000 A 
ENDROOT
BRANCH   5   7
ATOM      7  C   UNL     1       5.191   5.229  16.986  0.00  0.00    +0.000 A 
ATOM      8  C   UNL     1       6.541   5.558  17.209  0.00  0.00    +0.000 A 
ATOM      9  C   UNL     1       7.517   5.403  16.220  0.00  0.00    +0.000 A 
ATOM     10  C   UNL     1       7.174   4.848  14.995  0.00  0.00    +0.000 A 
ATOM     11  C   UNL     1       5.853   4.476  14.767  0.00  0.00    +0.000 A 
ATOM     12 CL   UNL     1       5.427   3.744  13.267  0.00  0.00    +0.000 Cl
ATOM     13  C   UNL     1       4.866   4.687  15.736  0.00  0.00    +0.000 A 
ENDBRANCH   5   7
BRANCH   1  14
ATOM     14  C   UNL     1       1.826   4.821  20.803  0.00  0.00    +0.000 C 
ATOM     15  O   UNL     1       2.141   4.815  21.988  0.00  0.00    +0.000 OA
BRANCH  14  16
ATOM     16  O   UNL     1       0.690   4.230  20.318  0.00  0.00    +0.000 OA
BRANCH  16  18
ATOM     17  C   UNL     1       0.796   2.447  18.727  0.00  0.00    +0.000 C 
ATOM     18  C   UNL     1       0.733   2.804  20.202  0.00  0.00    +0.000 C 
ENDBRANCH  16  18
ENDBRANCH  14  16
ENDBRANCH   1  14
BRANCH   6  19
ATOM     19  C   UNL     1       4.342   3.427  19.452  0.00  0.00    +0.000 C 
ATOM     20  C   UNL     1       4.707   2.334  19.797  0.00  0.00    +0.000 C 
BRANCH  20  21
ATOM     21  C   UNL     1       5.029   0.984  20.244  0.00  0.00    +0.000 C 
BRANCH  21  22
ATOM     22  O   UNL     1       5.718   1.045  21.489  0.00  0.00    +0.000 OA
ATOM     23  H   UNL     1       5.265   0.427  22.086  0.00  0.00    +0.000 HD
ENDBRANCH  21  22
ENDBRANCH  20  21
ENDBRANCH   6  19
TORSDOF 7
ENDMDL
MODEL 6
REMARK VINA RESULT:      -5.9      3.135      5.097
REMARK  Name = 
REMARK  9 active torsions:
REMARK  status: ('A' for Active; 'I' for Inactive)
REMARK    1  A    between atoms: C_1  and  C_2
REMARK    2  A    between atoms: C_2  and  O_3
REMARK    3  A    between atoms: O_3  and  C_4
REMARK    4  A    between atoms: C_4  and  C_6
REMARK    5  A    between atoms: N_8  and  C_9
REMARK    6  A    between atoms: C_10  and  C_11
REMARK    7  A    between atoms: C_18  and  C_19
REMARK    8  A    between atoms: C_20  and  C_21
REMARK    9  A    between atoms: C_21  and  O_22
REMARK                            x       y       z     vdW  Elec       q    Type
REMARK                         _______ _______ _______ _____ _____    ______ ____
ROOT
ATOM      1  C   UNL     1       3.199   6.946  17.980  0.00  0.00    +0.000 A 
ATOM      2  N   UNL     1       3.143   8.126  17.335  0.00  0.00    +0.000 NA
ATOM      3  N   UNL     1       2.387   8.917  18.118  0.00  0.00    +0.000 N 
ATOM      4  C   UNL     1       2.236  10.292  17.703  0.00  0.00    +0.000 C 
ATOM      5  C   UNL     1       1.914   8.298  19.262  0.00  0.00    +0.000 A 
ATOM      6  C   UNL     1       2.399   6.998  19.151  0.00  0.00    +0.000 A 
ENDROOT
BRANCH   5   7
ATOM      7  C   UNL     1       1.133   8.929  20.351  0.00  0.00    +0.000 A 
ATOM      8  C   UNL     1       1.324   8.519  21.684  0.00  0.00    +0.000 A 
ATOM      9  C   UNL     1       0.556   9.027  22.735  0.00  0.00    +0.000 A 
ATOM     10  C   UNL     1      -0.386  10.016  22.485  0.00  0.00    +0.000 A 
ATOM     11  C   UNL     1      -0.562  10.468  21.182  0.00  0.00    +0.000 A 
ATOM     12 CL   UNL     1      -1.695  11.727  20.868  0.00  0.00    +0.000 Cl
ATOM     13  C   UNL     1       0.166   9.915  20.122  0.00  0.00    +0.000 A 
ENDBRANCH   5   7
BRANCH   1  14
ATOM     14  C   UNL     1       4.055   5.836  17.530  0.00  0.00    +0.000 C 
ATOM     15  O   UNL     1       5.278   5.902  17.471  0.00  0.00    +0.000 OA
BRANCH  14  16
ATOM     16  O   UNL     1       3.330   4.768  17.071  0.00  0.00    +0.000 OA
BRANCH  16  18
ATOM     17  C   UNL     1       2.415   2.672  17.768  0.00  0.00    +0.000 C 
ATOM     18  C   UNL     1       3.683   3.496  17.624  0.00  0.00    +0.000 C 
ENDBRANCH  16  18
ENDBRANCH  14  16
ENDBRANCH   1  14
BRANCH   6  19
ATOM     19  C   UNL     1       2.180   5.948  20.094  0.00  0.00    +0.000 C 
ATOM     20  C   UNL     1       1.989   4.987  20.793  0.00  0.00    +0.000 C 
BRANCH  20  21
ATOM     21  C   UNL     1       1.782   3.752  21.538  0.00  0.00    +0.000 C 
BRANCH  21  22
ATOM     22  O   UNL     1       0.735   3.000  20.933  0.00  0.00    +0.000 OA
ATOM     23  H   UNL     1      -0.096   3.324  21.318  0.00  0.00    +0.000 HD
ENDBRANCH  21  22
ENDBRANCH  20  21
ENDBRANCH   6  19
TORSDOF 7
ENDMDL
MODEL 7
REMARK VINA RESULT:      -5.8      4.116      6.387
REMARK  Name = 
REMARK  9 active torsions:
REMARK  status: ('A' for Active; 'I' for Inactive)
REMARK    1  A    between atoms: C_1  and  C_2
REMARK    2  A    between atoms: C_2  and  O_3
REMARK    3  A    between atoms: O_3  and  C_4
REMARK    4  A    between atoms: C_4  and  C_6
REMARK    5  A    between atoms: N_8  and  C_9
REMARK    6  A    between atoms: C_10  and  C_11
REMARK    7  A    between atoms: C_18  and  C_19
REMARK    8  A    between atoms: C_20  and  C_21
REMARK    9  A    between atoms: C_21  and  O_22
REMARK                            x       y       z     vdW  Elec       q    Type
REMARK                         _______ _______ _______ _____ _____    ______ ____
ROOT
ATOM      1  C   UNL     1       1.981   3.195  18.778  0.00  0.00    +0.000 A 
ATOM      2  N   UNL     1       2.493   1.969  18.563  0.00  0.00    +0.000 NA
ATOM      3  N   UNL     1       3.630   2.180  17.875  0.00  0.00    +0.000 N 
ATOM      4  C   UNL     1       4.441   1.021  17.585  0.00  0.00    +0.000 C 
ATOM      5  C   UNL     1       3.889   3.512  17.602  0.00  0.00    +0.000 A 
ATOM      6  C   UNL     1       2.791   4.174  18.145  0.00  0.00    +0.000 A 
ENDROOT
BRANCH   5   7
ATOM      7  C   UNL     1       5.095   4.061  16.942  0.00  0.00    +0.000 A 
ATOM      8  C   UNL     1       6.079   4.719  17.704  0.00  0.00    +0.000 A 
ATOM      9  C   UNL     1       7.194   5.322  17.117  0.00  0.00    +0.000 A 
ATOM     10  C   UNL     1       7.389   5.224  15.746  0.00  0.00    +0.000 A 
ATOM     11  C   UNL     1       6.452   4.542  14.977  0.00  0.00    +0.000 A 
ATOM     12 CL   UNL     1       6.709   4.374  13.282  0.00  0.00    +0.000 Cl
ATOM     13  C   UNL     1       5.306   3.990  15.559  0.00  0.00    +0.000 A 
ENDBRANCH   5   7
BRANCH   1  14
ATOM     14  C   UNL     1       0.803   3.425  19.630  0.00  0.00    +0.000 C 
ATOM     15  O   UNL     1      -0.313   2.980  19.380  0.00  0.00    +0.000 OA
BRANCH  14  16
ATOM     16  O   UNL     1       1.061   4.287  20.662  0.00  0.00    +0.000 OA
BRANCH  16  18
ATOM     17  C   UNL     1       1.787   2.508  22.086  0.00  0.00    +0.000 C 
ATOM     18  C   UNL     1       2.111   3.892  21.552  0.00  0.00    +0.000 C 
ENDBRANCH  16  18
ENDBRANCH  14  16
ENDBRANCH   1  14
BRANCH   6  19
ATOM     19  C   UNL     1       2.579   5.586  18.122  0.00  0.00    +0.000 C 
ATOM     20  C   UNL     1       2.447   6.778  18.215  0.00  0.00    +0.000 C 
BRANCH  20  21
ATOM     21  C   UNL     1       2.362   8.217  18.429  0.00  0.00    +0.000 C 
BRANCH  21  22
ATOM     22  O   UNL     1       2.303   8.884  17.172  0.00  0.00    +0.000 OA
ATOM     23  H   UNL     1       2.243   9.834  17.366  0.00  0.00    +0.000 HD
ENDBRANCH  21  22
ENDBRANCH  20  21
ENDBRANCH   6  19
TORSDOF 7
ENDMDL
MODEL 8
REMARK VINA RESULT:      -5.8      3.094      5.053
REMARK  Name = 
REMARK  9 active torsions:
REMARK  status: ('A' for Active; 'I' for Inactive)
REMARK    1  A    between atoms: C_1  and  C_2
REMARK    2  A    between atoms: C_2  and  O_3
REMARK    3  A    between atoms: O_3  and  C_4
REMARK    4  A    between atoms: C_4  and  C_6
REMARK    5  A    between atoms: N_8  and  C_9
REMARK    6  A    between atoms: C_10  and  C_11
REMARK    7  A    between atoms: C_18  and  C_19
REMARK    8  A    between atoms: C_20  and  C_21
REMARK    9  A    between atoms: C_21  and  O_22
REMARK                            x       y       z     vdW  Elec       q    Type
REMARK                         _______ _______ _______ _____ _____    ______ ____
ROOT
ATOM      1  C   UNL     1       3.272   6.899  17.991  0.00  0.00    +0.000 A 
ATOM      2  N   UNL     1       3.251   8.080  17.345  0.00  0.00    +0.000 NA
ATOM      3  N   UNL     1       2.474   8.878  18.100  0.00  0.00    +0.000 N 
ATOM      4  C   UNL     1       2.352  10.254  17.681  0.00  0.00    +0.000 C 
ATOM      5  C   UNL     1       1.954   8.263  19.225  0.00  0.00    +0.000 A 
ATOM      6  C   UNL     1       2.430   6.958  19.133  0.00  0.00    +0.000 A 
ENDROOT
BRANCH   5   7
ATOM      7  C   UNL     1       1.139   8.901  20.285  0.00  0.00    +0.000 A 
ATOM      8  C   UNL     1       1.313   8.524  21.630  0.00  0.00    +0.000 A 
ATOM      9  C   UNL     1       0.515   9.040  22.656  0.00  0.00    +0.000 A 
ATOM     10  C   UNL     1      -0.441  10.004  22.366  0.00  0.00    +0.000 A 
ATOM     11  C   UNL     1      -0.602  10.423  21.050  0.00  0.00    +0.000 A 
ATOM     12 CL   UNL     1      -1.753  11.653  20.687  0.00  0.00    +0.000 Cl
ATOM     13  C   UNL     1       0.157   9.863  20.016  0.00  0.00    +0.000 A 
ENDBRANCH   5   7
BRANCH   1  14
ATOM     14  C   UNL     1       4.132   5.781  17.572  0.00  0.00    +0.000 C 
ATOM     15  O   UNL     1       3.721   4.796  16.968  0.00  0.00    +0.000 OA
BRANCH  14  16
ATOM     16  O   UNL     1       5.415   5.904  18.037  0.00  0.00    +0.000 OA
BRANCH  16  18
ATOM     17  C   UNL     1       7.300   7.250  17.438  0.00  0.00    +0.000 C 
ATOM     18  C   UNL     1       6.423   6.077  17.035  0.00  0.00    +0.000 C 
ENDBRANCH  16  18
ENDBRANCH  14  16
ENDBRANCH   1  14
BRANCH   6  19
ATOM     19  C   UNL     1       2.166   5.910  20.066  0.00  0.00    +0.000 C 
ATOM     20  C   UNL     1       2.026   4.961  20.791  0.00  0.00    +0.000 C 
BRANCH  20  21
ATOM     21  C   UNL     1       1.963   3.763  21.620  0.00  0.00    +0.000 C 
BRANCH  21  22
ATOM     22  O   UNL     1       0.876   2.946  21.194  0.00  0.00    +0.000 OA
ATOM     23  H   UNL     1       1.044   2.728  20.262  0.00  0.00    +0.000 HD
ENDBRANCH  21  22
ENDBRANCH  20  21
ENDBRANCH   6  19
TORSDOF 7
ENDMDL
MODEL 9
REMARK VINA RESULT:      -5.7      3.331      4.200
REMARK  Name = 
REMARK  9 active torsions:
REMARK  status: ('A' for Active; 'I' for Inactive)
REMARK    1  A    between atoms: C_1  and  C_2
REMARK    2  A    between atoms: C_2  and  O_3
REMARK    3  A    between atoms: O_3  and  C_4
REMARK    4  A    between atoms: C_4  and  C_6
REMARK    5  A    between atoms: N_8  and  C_9
REMARK    6  A    between atoms: C_10  and  C_11
REMARK    7  A    between atoms: C_18  and  C_19
REMARK    8  A    between atoms: C_20  and  C_21
REMARK    9  A    between atoms: C_21  and  O_22
REMARK                            x       y       z     vdW  Elec       q    Type
REMARK                         _______ _______ _______ _____ _____    ______ ____
ROOT
ATOM      1  C   UNL     1       3.590   2.651  19.749  0.00  0.00    +0.000 A 
ATOM      2  N   UNL     1       2.284   2.467  20.017  0.00  0.00    +0.000 NA
ATOM      3  N   UNL     1       1.735   3.693  19.942  0.00  0.00    +0.000 N 
ATOM      4  C   UNL     1       0.302   3.777  20.100  0.00  0.00    +0.000 C 
ATOM      5  C   UNL     1       2.637   4.702  19.652  0.00  0.00    +0.000 A 
ATOM      6  C   UNL     1       3.857   4.035  19.575  0.00  0.00    +0.000 A 
ENDROOT
BRANCH   5   7
ATOM      7  C   UNL     1       2.324   6.131  19.423  0.00  0.00    +0.000 A 
ATOM      8  C   UNL     1       2.470   6.688  18.139  0.00  0.00    +0.000 A 
ATOM      9  C   UNL     1       2.262   8.048  17.890  0.00  0.00    +0.000 A 
ATOM     10  C   UNL     1       1.835   8.878  18.917  0.00  0.00    +0.000 A 
ATOM     11  C   UNL     1       1.643   8.342  20.185  0.00  0.00    +0.000 A 
ATOM     12 CL   UNL     1       1.068   9.355  21.455  0.00  0.00    +0.000 Cl
ATOM     13  C   UNL     1       1.908   6.993  20.446  0.00  0.00    +0.000 A 
ENDBRANCH   5   7
BRANCH   1  14
ATOM     14  C   UNL     1       4.532   1.532  19.586  0.00  0.00    +0.000 C 
ATOM     15  O   UNL     1       4.414   0.665  18.727  0.00  0.00    +0.000 OA
BRANCH  14  16
ATOM     16  O   UNL     1       5.482   1.497  20.572  0.00  0.00    +0.000 OA
BRANCH  16  18
ATOM     17  C   UNL     1       6.323  -0.020  22.218  0.00  0.00    +0.000 C 
ATOM     18  C   UNL     1       5.118   0.781  21.758  0.00  0.00    +0.000 C 
ENDBRANCH  16  18
ENDBRANCH  14  16
ENDBRANCH   1  14
BRANCH   6  19
ATOM     19  C   UNL     1       5.119   4.641  19.297  0.00  0.00    +0.000 C 
ATOM     20  C   UNL     1       6.197   5.163  19.183  0.00  0.00    +0.000 C 
BRANCH  20  21
ATOM     21  C   UNL     1       7.521   5.773  19.168  0.00  0.00    +0.000 C 
BRANCH  21  22
ATOM     22  O   UNL     1       8.165   5.545  20.418  0.00  0.00    +0.000 OA
ATOM     23  H   UNL     1       7.651   4.856  20.872  0.00  0.00    +0.000 HD
ENDBRANCH  21  22
ENDBRANCH  20  21
ENDBRANCH   6  19
TORSDOF 7
ENDMDL
