MODEL 1
REMARK VINA RESULT:      -8.2      0.000      0.000
REMARK  Name = 
REMARK  7 active torsions:
REMARK  status: ('A' for Active; 'I' for Inactive)
REMARK    1  A    between atoms: C_1  and  C_2
REMARK    2  A    between atoms: C_2  and  O_3
REMARK    3  A    between atoms: O_3  and  C_4
REMARK    4  A    between atoms: N_6  and  S_7
REMARK    5  A    between atoms: S_7  and  N_10
REMARK    6  A    between atoms: C_13  and  C_14
REMARK    7  A    between atoms: N_24  and  C_25
REMARK                            x       y       z     vdW  Elec       q    Type
REMARK                         _______ _______ _______ _____ _____    ______ ____
ROOT
ATOM      1  C   UNL     1       1.836   6.593  19.940  0.00  0.00    +0.000 A 
ATOM      2  N   UNL     1       1.446   5.558  20.793  0.00  0.00    +0.000 N 
ATOM      3  C   UNL     1       2.403   4.572  20.795  0.00  0.00    +0.000 A 
ATOM      4  N   UNL     1       2.330   3.353  21.351  0.00  0.00    +0.000 NA
ATOM      5  C   UNL     1       3.383   2.565  20.987  0.00  0.00    +0.000 A 
ATOM      6  C   UNL     1       4.509   2.964  20.264  0.00  0.00    +0.000 A 
ATOM      7  C   UNL     1       4.569   4.283  19.819  0.00  0.00    +0.000 A 
ATOM      8  C   UNL     1       3.435   5.073  20.031  0.00  0.00    +0.000 A 
ATOM      9  C   UNL     1       2.787   5.959  19.112  0.00  0.00    +0.000 A 
ATOM     10  C   UNL     1       2.716   5.300  17.694  0.00  0.00    +0.000 C 
ATOM     11  N   UNL     1       3.957   4.766  17.034  0.00  0.00    +0.000 N 
ATOM     12  C   UNL     1       3.841   3.965  15.824  0.00  0.00    +0.000 C 
ATOM     13  C   UNL     1       5.235   5.017  17.528  0.00  0.00    +0.000 A 
ATOM     14  C   UNL     1       6.246   5.489  16.670  0.00  0.00    +0.000 A 
ATOM     15  C   UNL     1       7.426   6.029  17.182  0.00  0.00    +0.000 A 
ATOM     16  C   UNL     1       7.611   6.076  18.555  0.00  0.00    +0.000 A 
ATOM     17  F   UNL     1       8.667   6.731  19.056  0.00  0.00    +0.000 F 
ATOM     18  C   UNL     1       6.705   5.473  19.417  0.00  0.00    +0.000 A 
ATOM     19  C   UNL     1       5.542   4.876  18.905  0.00  0.00    +0.000 A 
ATOM     20  H   UNL     1       0.665   5.569  21.440  0.00  0.00    +0.000 HD
ENDROOT
BRANCH   1  24
ATOM     21  N   UNL     1       0.626  10.689  21.189  0.00  0.00    +0.000 NA
ATOM     22  C   UNL     1       0.565   9.553  22.157  0.00  0.00    +0.000 C 
ATOM     23  C   UNL     1       1.079   8.214  21.610  0.00  0.00    +0.000 C 
ATOM     24  C   UNL     1       1.509   7.955  20.352  0.00  0.00    +0.000 C 
ATOM     25  C   UNL     1       1.459   9.139  19.394  0.00  0.00    +0.000 C 
ATOM     26  C   UNL     1       0.424  10.190  19.781  0.00  0.00    +0.000 C 
BRANCH  21  27
ATOM     27  S   UNL     1      -0.494  11.979  21.443  0.00  0.00    +0.000 S 
ATOM     28  O   UNL     1      -1.050  12.274  20.138  0.00  0.00    +0.000 OA
ATOM     29  O   UNL     1       0.204  12.973  22.214  0.00  0.00    +0.000 OA
BRANCH  27  32
ATOM     30  C   UNL     1      -2.747  12.281  22.752  0.00  0.00    +0.000 C 
ATOM     31  O   UNL     1      -3.005  13.287  22.122  0.00  0.00    +0.000 OA
ATOM     32  N   UNL     1      -1.694  11.379  22.429  0.00  0.00    +0.000 N 
ATOM     33  H   UNL     1      -1.336  10.904  23.250  0.00  0.00    +0.000 HD
BRANCH  30  34
ATOM     34  O   UNL     1      -3.420  11.916  23.883  0.00  0.00    +0.000 OA
BRANCH  34  36
ATOM     35  C   UNL     1      -5.769  12.608  24.249  0.00  0.00    +0.000 C 
ATOM     36  C   UNL     1      -4.295  12.927  24.449  0.00  0.00    +0.000 C 
ENDBRANCH  34  36
ENDBRANCH  30  34
ENDBRANCH  27  32
ENDBRANCH  21  27
ENDBRANCH   1  24
TORSDOF 5
ENDMDL
MODEL 2
REMARK VINA RESULT:      -8.1      5.364      9.502
REMARK  Name = 
REMARK  7 active torsions:
REMARK  status: ('A' for Active; 'I' for Inactive)
REMARK    1  A    between atoms: C_1  and  C_2
REMARK    2  A    between atoms: C_2  and  O_3
REMARK    3  A    between atoms: O_3  and  C_4
REMARK    4  A    between atoms: N_6  and  S_7
REMARK    5  A    between atoms: S_7  and  N_10
REMARK    6  A    between atoms: C_13  and  C_14
REMARK    7  A    between atoms: N_24  and  C_25
REMARK                            x       y       z     vdW  Elec       q    Type
REMARK                         _______ _______ _______ _____ _____    ______ ____
ROOT
ATOM      1  C   UNL     1       1.711   8.504  20.296  0.00  0.00    +0.000 A 
ATOM      2  N   UNL     1       1.563   8.612  21.680  0.00  0.00    +0.000 N 
ATOM      3  C   UNL     1       0.518   9.454  21.971  0.00  0.00    +0.000 A 
ATOM      4  N   UNL     1       0.161   9.942  23.170  0.00  0.00    +0.000 NA
ATOM      5  C   UNL     1      -0.799  10.905  23.060  0.00  0.00    +0.000 A 
ATOM      6  C   UNL     1      -1.482  11.271  21.898  0.00  0.00    +0.000 A 
ATOM      7  C   UNL     1      -1.137  10.634  20.707  0.00  0.00    +0.000 A 
ATOM      8  C   UNL     1      -0.046   9.761  20.751  0.00  0.00    +0.000 A 
ATOM      9  C   UNL     1       1.045   9.658  19.830  0.00  0.00    +0.000 A 
ATOM     10  C   UNL     1       1.526  11.087  19.409  0.00  0.00    +0.000 C 
ATOM     11  N   UNL     1       0.550  12.096  18.870  0.00  0.00    +0.000 N 
ATOM     12  C   UNL     1       0.969  13.479  18.693  0.00  0.00    +0.000 C 
ATOM     13  C   UNL     1      -0.754  11.760  18.513  0.00  0.00    +0.000 A 
ATOM     14  C   UNL     1      -1.268  12.149  17.263  0.00  0.00    +0.000 A 
ATOM     15  C   UNL     1      -2.439  11.579  16.761  0.00  0.00    +0.000 A 
ATOM     16  C   UNL     1      -3.115  10.637  17.521  0.00  0.00    +0.000 A 
ATOM     17  F   UNL     1      -4.148   9.975  16.984  0.00  0.00    +0.000 F 
ATOM     18  C   UNL     1      -2.721  10.355  18.821  0.00  0.00    +0.000 A 
ATOM     19  C   UNL     1      -1.574  10.968  19.354  0.00  0.00    +0.000 A 
ATOM     20  H   UNL     1       2.034   8.053  22.383  0.00  0.00    +0.000 HD
ENDROOT
BRANCH   1  24
ATOM     21  N   UNL     1       3.074   4.549  18.780  0.00  0.00    +0.000 NA
ATOM     22  C   UNL     1       2.683   4.717  20.212  0.00  0.00    +0.000 C 
ATOM     23  C   UNL     1       2.167   6.116  20.576  0.00  0.00    +0.000 C 
ATOM     24  C   UNL     1       2.094   7.199  19.766  0.00  0.00    +0.000 C 
ATOM     25  C   UNL     1       2.593   6.977  18.343  0.00  0.00    +0.000 C 
ATOM     26  C   UNL     1       3.608   5.844  18.225  0.00  0.00    +0.000 C 
BRANCH  21  27
ATOM     27  S   UNL     1       4.242   3.322  18.439  0.00  0.00    +0.000 S 
ATOM     28  O   UNL     1       3.556   2.351  17.611  0.00  0.00    +0.000 OA
ATOM     29  O   UNL     1       4.831   2.964  19.701  0.00  0.00    +0.000 OA
BRANCH  27  32
ATOM     30  C   UNL     1       6.408   4.794  18.291  0.00  0.00    +0.000 C 
ATOM     31  O   UNL     1       6.607   4.662  19.482  0.00  0.00    +0.000 OA
ATOM     32  N   UNL     1       5.447   4.049  17.549  0.00  0.00    +0.000 N 
ATOM     33  H   UNL     1       5.097   4.569  16.753  0.00  0.00    +0.000 HD
BRANCH  30  34
ATOM     34  O   UNL     1       7.063   5.714  17.523  0.00  0.00    +0.000 OA
BRANCH  34  36
ATOM     35  C   UNL     1       7.728   8.099  17.579  0.00  0.00    +0.000 C 
ATOM     36  C   UNL     1       7.794   6.735  18.250  0.00  0.00    +0.000 C 
ENDBRANCH  34  36
ENDBRANCH  30  34
ENDBRANCH  27  32
ENDBRANCH  21  27
ENDBRANCH   1  24
TORSDOF 5
ENDMDL
MODEL 3
REMARK VINA RESULT:      -8.1      1.383      1.953
REMARK  Name = 
REMARK  7 active torsions:
REMARK  status: ('A' for Active; 'I' for Inactive)
REMARK    1  A    between atoms: C_1  and  C_2
REMARK    2  A    between atoms: C_2  and  O_3
REMARK    3  A    between atoms: O_3  and  C_4
REMARK    4  A    between atoms: N_6  and  S_7
REMARK    5  A    between atoms: S_7  and  N_10
REMARK    6  A    between atoms: C_13  and  C_14
REMARK    7  A    between atoms: N_24  and  C_25
REMARK                            x       y       z     vdW  Elec       q    Type
REMARK                         _______ _______ _______ _____ _____    ______ ____
ROOT
ATOM      1  C   UNL     1       1.909   6.528  19.893  0.00  0.00    +0.000 A 
ATOM      2  N   UNL     1       1.516   5.452  20.691  0.00  0.00    +0.000 N 
ATOM      3  C   UNL     1       2.488   4.480  20.672  0.00  0.00    +0.000 A 
ATOM      4  N   UNL     1       2.421   3.237  21.173  0.00  0.00    +0.000 NA
ATOM      5  C   UNL     1       3.493   2.481  20.798  0.00  0.00    +0.000 A 
ATOM      6  C   UNL     1       4.629   2.927  20.118  0.00  0.00    +0.000 A 
ATOM      7  C   UNL     1       4.679   4.265  19.733  0.00  0.00    +0.000 A 
ATOM      8  C   UNL     1       3.528   5.029  19.953  0.00  0.00    +0.000 A 
ATOM      9  C   UNL     1       2.887   5.944  19.059  0.00  0.00    +0.000 A 
ATOM     10  C   UNL     1       2.857   5.347  17.613  0.00  0.00    +0.000 C 
ATOM     11  N   UNL     1       4.120   4.859  16.958  0.00  0.00    +0.000 N 
ATOM     12  C   UNL     1       4.042   4.110  15.712  0.00  0.00    +0.000 C 
ATOM     13  C   UNL     1       5.383   5.107  17.491  0.00  0.00    +0.000 A 
ATOM     14  C   UNL     1       6.404   5.629  16.677  0.00  0.00    +0.000 A 
ATOM     15  C   UNL     1       7.565   6.163  17.238  0.00  0.00    +0.000 A 
ATOM     16  C   UNL     1       7.720   6.153  18.616  0.00  0.00    +0.000 A 
ATOM     17  F   UNL     1       8.755   6.800  19.167  0.00  0.00    +0.000 F 
ATOM     18  C   UNL     1       6.805   5.501  19.430  0.00  0.00    +0.000 A 
ATOM     19  C   UNL     1       5.662   4.910  18.867  0.00  0.00    +0.000 A 
ATOM     20  H   UNL     1       0.721   5.424  21.320  0.00  0.00    +0.000 HD
ENDROOT
BRANCH   1  24
ATOM     21  N   UNL     1       0.614  10.541  21.314  0.00  0.00    +0.000 NA
ATOM     22  C   UNL     1       0.693   9.390  22.264  0.00  0.00    +0.000 C 
ATOM     23  C   UNL     1       1.222   8.086  21.650  0.00  0.00    +0.000 C 
ATOM     24  C   UNL     1       1.553   7.866  20.355  0.00  0.00    +0.000 C 
ATOM     25  C   UNL     1       1.362   9.059  19.427  0.00  0.00    +0.000 C 
ATOM     26  C   UNL     1       0.314  10.052  19.920  0.00  0.00    +0.000 C 
BRANCH  21  27
ATOM     27  S   UNL     1      -0.542  11.770  21.687  0.00  0.00    +0.000 S 
ATOM     28  O   UNL     1       0.232  12.973  21.918  0.00  0.00    +0.000 OA
ATOM     29  O   UNL     1      -1.407  11.218  22.696  0.00  0.00    +0.000 OA
BRANCH  27  32
ATOM     30  C   UNL     1      -2.723  12.633  20.516  0.00  0.00    +0.000 C 
ATOM     31  O   UNL     1      -2.989  13.333  21.473  0.00  0.00    +0.000 OA
ATOM     32  N   UNL     1      -1.478  11.970  20.325  0.00  0.00    +0.000 N 
ATOM     33  H   UNL     1      -1.580  11.121  19.782  0.00  0.00    +0.000 HD
BRANCH  30  34
ATOM     34  O   UNL     1      -3.617  12.365  19.518  0.00  0.00    +0.000 OA
BRANCH  34  36
ATOM     35  C   UNL     1      -4.092  10.617  17.829  0.00  0.00    +0.000 C 
ATOM     36  C   UNL     1      -3.093  11.619  18.388  0.00  0.00    +0.000 C 
ENDBRANCH  34  36
ENDBRANCH  30  34
ENDBRANCH  27  32
ENDBRANCH  21  27
ENDBRANCH   1  24
TORSDOF 5
ENDMDL
MODEL 4
REMARK VINA RESULT:      -8.1      5.420      9.744
REMARK  Name = 
REMARK  7 active torsions:
REMARK  status: ('A' for Active; 'I' for Inactive)
REMARK    1  A    between atoms: C_1  and  C_2
REMARK    2  A    between atoms: C_2  and  O_3
REMARK    3  A    between atoms: O_3  and  C_4
REMARK    4  A    between atoms: N_6  and  S_7
REMARK    5  A    between atoms: S_7  and  N_10
REMARK    6  A    between atoms: C_13  and  C_14
REMARK    7  A    between atoms: N_24  and  C_25
REMARK                            x       y       z     vdW  Elec       q    Type
REMARK                         _______ _______ _______ _____ _____    ______ ____
ROOT
ATOM      1  C   UNL     1       1.718   8.460  20.313  0.00  0.00    +0.000 A 
ATOM      2  N   UNL     1       1.571   8.553  21.699  0.00  0.00    +0.000 N 
ATOM      3  C   UNL     1       0.534   9.402  22.000  0.00  0.00    +0.000 A 
ATOM      4  N   UNL     1       0.181   9.878  23.204  0.00  0.00    +0.000 NA
ATOM      5  C   UNL     1      -0.770  10.852  23.105  0.00  0.00    +0.000 A 
ATOM      6  C   UNL     1      -1.449  11.237  21.948  0.00  0.00    +0.000 A 
ATOM      7  C   UNL     1      -1.110  10.612  20.750  0.00  0.00    +0.000 A 
ATOM      8  C   UNL     1      -0.027   9.728  20.783  0.00  0.00    +0.000 A 
ATOM      9  C   UNL     1       1.063   9.626  19.862  0.00  0.00    +0.000 A 
ATOM     10  C   UNL     1       1.558  11.055  19.458  0.00  0.00    +0.000 C 
ATOM     11  N   UNL     1       0.592  12.079  18.930  0.00  0.00    +0.000 N 
ATOM     12  C   UNL     1       1.024  13.461  18.769  0.00  0.00    +0.000 C 
ATOM     13  C   UNL     1      -0.715  11.761  18.569  0.00  0.00    +0.000 A 
ATOM     14  C   UNL     1      -1.225  12.169  17.323  0.00  0.00    +0.000 A 
ATOM     15  C   UNL     1      -2.402  11.616  16.815  0.00  0.00    +0.000 A 
ATOM     16  C   UNL     1      -3.086  10.672  17.563  0.00  0.00    +0.000 A 
ATOM     17  F   UNL     1      -4.126  10.026  17.018  0.00  0.00    +0.000 F 
ATOM     18  C   UNL     1      -2.695  10.371  18.860  0.00  0.00    +0.000 A 
ATOM     19  C   UNL     1      -1.543  10.966  19.401  0.00  0.00    +0.000 A 
ATOM     20  H   UNL     1       2.036   7.981  22.396  0.00  0.00    +0.000 HD
ENDROOT
BRANCH   1  24
ATOM     21  N   UNL     1       3.035   4.500  18.768  0.00  0.00    +0.000 NA
ATOM     22  C   UNL     1       2.527   4.636  20.166  0.00  0.00    +0.000 C 
ATOM     23  C   UNL     1       2.042   6.045  20.539  0.00  0.00    +0.000 C 
ATOM     24  C   UNL     1       2.089   7.157  19.768  0.00  0.00    +0.000 C 
ATOM     25  C   UNL     1       2.702   6.962  18.386  0.00  0.00    +0.000 C 
ATOM     26  C   UNL     1       3.672   5.788  18.313  0.00  0.00    +0.000 C 
BRANCH  21  27
ATOM     27  S   UNL     1       4.174   3.233  18.482  0.00  0.00    +0.000 S 
ATOM     28  O   UNL     1       3.380   2.047  18.229  0.00  0.00    +0.000 OA
ATOM     29  O   UNL     1       5.125   3.295  19.559  0.00  0.00    +0.000 OA
BRANCH  27  32
ATOM     30  C   UNL     1       6.240   4.323  17.292  0.00  0.00    +0.000 C 
ATOM     31  O   UNL     1       6.871   4.319  18.330  0.00  0.00    +0.000 OA
ATOM     32  N   UNL     1       5.004   3.644  17.098  0.00  0.00    +0.000 N 
ATOM     33  H   UNL     1       4.423   4.103  16.406  0.00  0.00    +0.000 HD
BRANCH  30  34
ATOM     34  O   UNL     1       6.631   5.023  16.185  0.00  0.00    +0.000 OA
BRANCH  34  36
ATOM     35  C   UNL     1       6.321   4.082  13.916  0.00  0.00    +0.000 C 
ATOM     36  C   UNL     1       5.746   4.933  15.039  0.00  0.00    +0.000 C 
ENDBRANCH  34  36
ENDBRANCH  30  34
ENDBRANCH  27  32
ENDBRANCH  21  27
ENDBRANCH   1  24
TORSDOF 5
ENDMDL
MODEL 5
REMARK VINA RESULT:      -7.8      6.774      9.119
REMARK  Name = 
REMARK  7 active torsions:
REMARK  status: ('A' for Active; 'I' for Inactive)
REMARK    1  A    between atoms: C_1  and  C_2
REMARK    2  A    between atoms: C_2  and  O_3
REMARK    3  A    between atoms: O_3  and  C_4
REMARK    4  A    between atoms: N_6  and  S_7
REMARK    5  A    between atoms: S_7  and  N_10
REMARK    6  A    between atoms: C_13  and  C_14
REMARK    7  A    between atoms: N_24  and  C_25
REMARK                            x       y       z     vdW  Elec       q    Type
REMARK                         _______ _______ _______ _____ _____    ______ ____
ROOT
ATOM      1  C   UNL     1       5.092  15.517  19.619  0.00  0.00    +0.000 A 
ATOM      2  N   UNL     1       5.494  16.719  19.032  0.00  0.00    +0.000 N 
ATOM      3  C   UNL     1       6.834  16.664  18.731  0.00  0.00    +0.000 A 
ATOM      4  N   UNL     1       7.627  17.662  18.313  0.00  0.00    +0.000 NA
ATOM      5  C   UNL     1       8.942  17.297  18.305  0.00  0.00    +0.000 A 
ATOM      6  C   UNL     1       9.451  16.017  18.535  0.00  0.00    +0.000 A 
ATOM      7  C   UNL     1       8.551  15.000  18.850  0.00  0.00    +0.000 A 
ATOM      8  C   UNL     1       7.215  15.373  19.029  0.00  0.00    +0.000 A 
ATOM      9  C   UNL     1       6.316  14.978  20.070  0.00  0.00    +0.000 A 
ATOM     10  C   UNL     1       7.057  14.987  21.449  0.00  0.00    +0.000 C 
ATOM     11  N   UNL     1       8.346  14.234  21.631  0.00  0.00    +0.000 N 
ATOM     12  C   UNL     1       9.130  14.432  22.842  0.00  0.00    +0.000 C 
ATOM     13  C   UNL     1       8.826  13.331  20.686  0.00  0.00    +0.000 A 
ATOM     14  C   UNL     1       9.235  12.044  21.080  0.00  0.00    +0.000 A 
ATOM     15  C   UNL     1       9.428  11.033  20.137  0.00  0.00    +0.000 A 
ATOM     16  C   UNL     1       9.238  11.314  18.792  0.00  0.00    +0.000 A 
ATOM     17  F   UNL     1       9.271  10.316  17.900  0.00  0.00    +0.000 F 
ATOM     18  C   UNL     1       8.994  12.611  18.364  0.00  0.00    +0.000 A 
ATOM     19  C   UNL     1       8.854  13.645  19.304  0.00  0.00    +0.000 A 
ATOM     20  H   UNL     1       4.890  17.472  18.721  0.00  0.00    +0.000 HD
ENDROOT
BRANCH   1  24
ATOM     21  N   UNL     1       1.039  13.888  18.772  0.00  0.00    +0.000 NA
ATOM     22  C   UNL     1       1.233  14.922  19.833  0.00  0.00    +0.000 C 
ATOM     23  C   UNL     1       2.671  15.443  19.966  0.00  0.00    +0.000 C 
ATOM     24  C   UNL     1       3.761  15.023  19.281  0.00  0.00    +0.000 C 
ATOM     25  C   UNL     1       3.503  13.904  18.279  0.00  0.00    +0.000 C 
ATOM     26  C   UNL     1       2.284  13.053  18.619  0.00  0.00    +0.000 C 
BRANCH  21  27
ATOM     27  S   UNL     1      -0.287  12.801  18.989  0.00  0.00    +0.000 S 
ATOM     28  O   UNL     1      -1.179  13.459  19.923  0.00  0.00    +0.000 OA
ATOM     29  O   UNL     1       0.289  11.513  19.267  0.00  0.00    +0.000 OA
BRANCH  27  32
ATOM     30  C   UNL     1      -2.060  11.681  17.415  0.00  0.00    +0.000 C 
ATOM     31  O   UNL     1      -2.632  11.192  18.368  0.00  0.00    +0.000 OA
ATOM     32  N   UNL     1      -1.039  12.670  17.510  0.00  0.00    +0.000 N 
ATOM     33  H   UNL     1      -0.389  12.619  16.734  0.00  0.00    +0.000 HD
BRANCH  30  34
ATOM     34  O   UNL     1      -2.304  11.304  16.125  0.00  0.00    +0.000 OA
BRANCH  34  36
ATOM     35  C   UNL     1      -3.683  10.040  14.503  0.00  0.00    +0.000 C 
ATOM     36  C   UNL     1      -3.582  10.659  15.889  0.00  0.00    +0.000 C 
ENDBRANCH  34  36
ENDBRANCH  30  34
ENDBRANCH  27  32
ENDBRANCH  21  27
ENDBRANCH   1  24
TORSDOF 5
ENDMDL
MODEL 6
REMARK VINA RESULT:      -7.8      5.355      9.666
REMARK  Name = 
REMARK  7 active torsions:
REMARK  status: ('A' for Active; 'I' for Inactive)
REMARK    1  A    between atoms: C_1  and  C_2
REMARK    2  A    between atoms: C_2  and  O_3
REMARK    3  A    between atoms: O_3  and  C_4
REMARK    4  A    between atoms: N_6  and  S_7
REMARK    5  A    between atoms: S_7  and  N_10
REMARK    6  A    between atoms: C_13  and  C_14
REMARK    7  A    between atoms: N_24  and  C_25
REMARK                            x       y       z     vdW  Elec       q    Type
REMARK                         _______ _______ _______ _____ _____    ______ ____
ROOT
ATOM      1  C   UNL     1       1.582   8.507  20.447  0.00  0.00    +0.000 A 
ATOM      2  N   UNL     1       1.408   8.634  21.827  0.00  0.00    +0.000 N 
ATOM      3  C   UNL     1       0.387   9.516  22.087  0.00  0.00    +0.000 A 
ATOM      4  N   UNL     1       0.022  10.028  23.272  0.00  0.00    +0.000 NA
ATOM      5  C   UNL     1      -0.902  11.024  23.132  0.00  0.00    +0.000 A 
ATOM      6  C   UNL     1      -1.546  11.400  21.951  0.00  0.00    +0.000 A 
ATOM      7  C   UNL     1      -1.198  10.740  20.775  0.00  0.00    +0.000 A 
ATOM      8  C   UNL     1      -0.139   9.830  20.852  0.00  0.00    +0.000 A 
ATOM      9  C   UNL     1       0.968   9.679  19.956  0.00  0.00    +0.000 A 
ATOM     10  C   UNL     1       1.508  11.085  19.532  0.00  0.00    +0.000 C 
ATOM     11  N   UNL     1       0.580  12.122  18.961  0.00  0.00    +0.000 N 
ATOM     12  C   UNL     1       1.052  13.488  18.780  0.00  0.00    +0.000 C 
ATOM     13  C   UNL     1      -0.726  11.829  18.579  0.00  0.00    +0.000 A 
ATOM     14  C   UNL     1      -1.199  12.222  17.314  0.00  0.00    +0.000 A 
ATOM     15  C   UNL     1      -2.379  11.689  16.792  0.00  0.00    +0.000 A 
ATOM     16  C   UNL     1      -3.103  10.778  17.546  0.00  0.00    +0.000 A 
ATOM     17  F   UNL     1      -4.148  10.148  16.992  0.00  0.00    +0.000 F 
ATOM     18  C   UNL     1      -2.748  10.497  18.857  0.00  0.00    +0.000 A 
ATOM     19  C   UNL     1      -1.593  11.075  19.409  0.00  0.00    +0.000 A 
ATOM     20  H   UNL     1       1.843   8.066  22.546  0.00  0.00    +0.000 HD
ENDROOT
BRANCH   1  24
ATOM     21  N   UNL     1       2.824   4.478  19.023  0.00  0.00    +0.000 NA
ATOM     22  C   UNL     1       2.253   4.654  20.392  0.00  0.00    +0.000 C 
ATOM     23  C   UNL     1       1.804   6.085  20.721  0.00  0.00    +0.000 C 
ATOM     24  C   UNL     1       1.930   7.183  19.939  0.00  0.00    +0.000 C 
ATOM     25  C   UNL     1       2.603   6.945  18.592  0.00  0.00    +0.000 C 
ATOM     26  C   UNL     1       3.531   5.734  18.583  0.00  0.00    +0.000 C 
BRANCH  21  27
ATOM     27  S   UNL     1       3.927   3.165  18.812  0.00  0.00    +0.000 S 
ATOM     28  O   UNL     1       3.363   2.350  17.756  0.00  0.00    +0.000 OA
ATOM     29  O   UNL     1       4.184   2.638  20.125  0.00  0.00    +0.000 OA
BRANCH  27  32
ATOM     30  C   UNL     1       5.497   3.984  16.877  0.00  0.00    +0.000 C 
ATOM     31  O   UNL     1       4.569   3.990  16.094  0.00  0.00    +0.000 OA
ATOM     32  N   UNL     1       5.361   3.830  18.286  0.00  0.00    +0.000 N 
ATOM     33  H   UNL     1       6.178   3.398  18.702  0.00  0.00    +0.000 HD
BRANCH  30  34
ATOM     34  O   UNL     1       6.803   4.083  16.486  0.00  0.00    +0.000 OA
BRANCH  34  36
ATOM     35  C   UNL     1       7.264   6.446  17.065  0.00  0.00    +0.000 C 
ATOM     36  C   UNL     1       7.211   5.381  15.980  0.00  0.00    +0.000 C 
ENDBRANCH  34  36
ENDBRANCH  30  34
ENDBRANCH  27  32
ENDBRANCH  21  27
ENDBRANCH   1  24
TORSDOF 5
ENDMDL
MODEL 7
REMARK VINA RESULT:      -7.8      1.791      2.058
REMARK  Name = 
REMARK  7 active torsions:
REMARK  status: ('A' for Active; 'I' for Inactive)
REMARK    1  A    between atoms: C_1  and  C_2
REMARK    2  A    between atoms: C_2  and  O_3
REMARK    3  A    between atoms: O_3  and  C_4
REMARK    4  A    between atoms: N_6  and  S_7
REMARK    5  A    between atoms: S_7  and  N_10
REMARK    6  A    between atoms: C_13  and  C_14
REMARK    7  A    between atoms: N_24  and  C_25
REMARK                            x       y       z     vdW  Elec       q    Type
REMARK                         _______ _______ _______ _____ _____    ______ ____
ROOT
ATOM      1  C   UNL     1       1.720   6.414  19.988  0.00  0.00    +0.000 A 
ATOM      2  N   UNL     1       1.348   5.563  21.032  0.00  0.00    +0.000 N 
ATOM      3  C   UNL     1       2.194   4.481  21.071  0.00  0.00    +0.000 A 
ATOM      4  N   UNL     1       2.076   3.370  21.814  0.00  0.00    +0.000 NA
ATOM      5  C   UNL     1       2.986   2.418  21.452  0.00  0.00    +0.000 A 
ATOM      6  C   UNL     1       4.036   2.575  20.545  0.00  0.00    +0.000 A 
ATOM      7  C   UNL     1       4.166   3.802  19.898  0.00  0.00    +0.000 A 
ATOM      8  C   UNL     1       3.156   4.743  20.119  0.00  0.00    +0.000 A 
ATOM      9  C   UNL     1       2.481   5.561  19.160  0.00  0.00    +0.000 A 
ATOM     10  C   UNL     1       2.151   4.723  17.879  0.00  0.00    +0.000 C 
ATOM     11  N   UNL     1       3.231   3.957  17.166  0.00  0.00    +0.000 N 
ATOM     12  C   UNL     1       2.871   3.013  16.117  0.00  0.00    +0.000 C 
ATOM     13  C   UNL     1       4.582   4.121  17.457  0.00  0.00    +0.000 A 
ATOM     14  C   UNL     1       5.508   4.344  16.421  0.00  0.00    +0.000 A 
ATOM     15  C   UNL     1       6.796   4.806  16.698  0.00  0.00    +0.000 A 
ATOM     16  C   UNL     1       7.170   5.024  18.015  0.00  0.00    +0.000 A 
ATOM     17  F   UNL     1       8.345   5.612  18.277  0.00  0.00    +0.000 F 
ATOM     18  C   UNL     1       6.336   4.660  19.062  0.00  0.00    +0.000 A 
ATOM     19  C   UNL     1       5.059   4.140  18.792  0.00  0.00    +0.000 A 
ATOM     20  H   UNL     1       0.668   5.758  21.758  0.00  0.00    +0.000 HD
ENDROOT
BRANCH   1  24
ATOM     21  N   UNL     1       1.105  10.764  20.695  0.00  0.00    +0.000 NA
ATOM     22  C   UNL     1       0.903   9.781  21.802  0.00  0.00    +0.000 C 
ATOM     23  C   UNL     1       1.219   8.324  21.433  0.00  0.00    +0.000 C 
ATOM     24  C   UNL     1       1.590   7.850  20.220  0.00  0.00    +0.000 C 
ATOM     25  C   UNL     1       1.688   8.897  19.117  0.00  0.00    +0.000 C 
ATOM     26  C   UNL     1       0.813  10.122  19.363  0.00  0.00    +0.000 C 
BRANCH  21  27
ATOM     27  S   UNL     1       0.177  12.219  20.779  0.00  0.00    +0.000 S 
ATOM     28  O   UNL     1       0.973  13.226  20.107  0.00  0.00    +0.000 OA
ATOM     29  O   UNL     1      -0.228  12.361  22.152  0.00  0.00    +0.000 OA
BRANCH  27  32
ATOM     30  C   UNL     1      -2.235  12.930  20.034  0.00  0.00    +0.000 C 
ATOM     31  O   UNL     1      -2.050  14.062  20.432  0.00  0.00    +0.000 OA
ATOM     32  N   UNL     1      -1.215  11.945  19.906  0.00  0.00    +0.000 N 
ATOM     33  H   UNL     1      -1.578  11.006  20.018  0.00  0.00    +0.000 HD
BRANCH  30  34
ATOM     34  O   UNL     1      -3.469  12.450  19.696  0.00  0.00    +0.000 OA
BRANCH  34  36
ATOM     35  C   UNL     1      -4.702  11.764  17.662  0.00  0.00    +0.000 C 
ATOM     36  C   UNL     1      -3.503  11.536  18.569  0.00  0.00    +0.000 C 
ENDBRANCH  34  36
ENDBRANCH  30  34
ENDBRANCH  27  32
ENDBRANCH  21  27
ENDBRANCH   1  24
TORSDOF 5
ENDMDL
MODEL 8
REMARK VINA RESULT:      -7.7      2.048      3.096
REMARK  Name = 
REMARK  7 active torsions:
REMARK  status: ('A' for Active; 'I' for Inactive)
REMARK    1  A    between atoms: C_1  and  C_2
REMARK    2  A    between atoms: C_2  and  O_3
REMARK    3  A    between atoms: O_3  and  C_4
REMARK    4  A    between atoms: N_6  and  S_7
REMARK    5  A    between atoms: S_7  and  N_10
REMARK    6  A    between atoms: C_13  and  C_14
REMARK    7  A    between atoms: N_24  and  C_25
REMARK                            x       y       z     vdW  Elec       q    Type
REMARK                         _______ _______ _______ _____ _____    ______ ____
ROOT
ATOM      1  C   UNL     1       1.769   6.585  19.933  0.00  0.00    +0.000 A 
ATOM      2  N   UNL     1       1.359   5.603  20.838  0.00  0.00    +0.000 N 
ATOM      3  C   UNL     1       2.288   4.592  20.877  0.00  0.00    +0.000 A 
ATOM      4  N   UNL     1       2.187   3.403  21.491  0.00  0.00    +0.000 NA
ATOM      5  C   UNL     1       3.214   2.569  21.155  0.00  0.00    +0.000 A 
ATOM      6  C   UNL     1       4.343   2.901  20.403  0.00  0.00    +0.000 A 
ATOM      7  C   UNL     1       4.435   4.196  19.895  0.00  0.00    +0.000 A 
ATOM      8  C   UNL     1       3.326   5.027  20.080  0.00  0.00    +0.000 A 
ATOM      9  C   UNL     1       2.693   5.886  19.127  0.00  0.00    +0.000 A 
ATOM     10  C   UNL     1       2.587   5.163  17.742  0.00  0.00    +0.000 C 
ATOM     11  N   UNL     1       3.806   4.564  17.097  0.00  0.00    +0.000 N 
ATOM     12  C   UNL     1       3.655   3.710  15.927  0.00  0.00    +0.000 C 
ATOM     13  C   UNL     1       5.096   4.802  17.565  0.00  0.00    +0.000 A 
ATOM     14  C   UNL     1       6.110   5.203  16.676  0.00  0.00    +0.000 A 
ATOM     15  C   UNL     1       7.310   5.733  17.151  0.00  0.00    +0.000 A 
ATOM     16  C   UNL     1       7.511   5.840  18.518  0.00  0.00    +0.000 A 
ATOM     17  F   UNL     1       8.591   6.487  18.977  0.00  0.00    +0.000 F 
ATOM     18  C   UNL     1       6.599   5.304  19.416  0.00  0.00    +0.000 A 
ATOM     19  C   UNL     1       5.413   4.717  18.944  0.00  0.00    +0.000 A 
ATOM     20  H   UNL     1       0.586   5.667  21.490  0.00  0.00    +0.000 HD
ENDROOT
BRANCH   1  24
ATOM     21  N   UNL     1       0.688  10.768  21.000  0.00  0.00    +0.000 NA
ATOM     22  C   UNL     1       0.624   9.684  22.026  0.00  0.00    +0.000 C 
ATOM     23  C   UNL     1       1.092   8.306  21.535  0.00  0.00    +0.000 C 
ATOM     24  C   UNL     1       1.484   7.974  20.282  0.00  0.00    +0.000 C 
ATOM     25  C   UNL     1       1.439   9.109  19.267  0.00  0.00    +0.000 C 
ATOM     26  C   UNL     1       0.439  10.204  19.624  0.00  0.00    +0.000 C 
BRANCH  21  27
ATOM     27  S   UNL     1      -0.395  12.097  21.215  0.00  0.00    +0.000 S 
ATOM     28  O   UNL     1      -0.318  12.436  22.621  0.00  0.00    +0.000 OA
ATOM     29  O   UNL     1      -1.633  11.714  20.592  0.00  0.00    +0.000 OA
BRANCH  27  32
ATOM     30  C   UNL     1       1.511  13.816  20.678  0.00  0.00    +0.000 C 
ATOM     31  O   UNL     1       2.306  13.176  21.334  0.00  0.00    +0.000 OA
ATOM     32  N   UNL     1       0.214  13.356  20.311  0.00  0.00    +0.000 N 
ATOM     33  H   UNL     1      -0.442  14.120  20.198  0.00  0.00    +0.000 HD
BRANCH  30  34
ATOM     34  O   UNL     1       1.755  15.089  20.245  0.00  0.00    +0.000 OA
BRANCH  34  36
ATOM     35  C   UNL     1       3.119  14.720  18.211  0.00  0.00    +0.000 C 
ATOM     36  C   UNL     1       1.827  15.261  18.805  0.00  0.00    +0.000 C 
ENDBRANCH  34  36
ENDBRANCH  30  34
ENDBRANCH  27  32
ENDBRANCH  21  27
ENDBRANCH   1  24
TORSDOF 5
ENDMDL
MODEL 9
REMARK VINA RESULT:      -7.7      2.041      2.719
REMARK  Name = 
REMARK  7 active torsions:
REMARK  status: ('A' for Active; 'I' for Inactive)
REMARK    1  A    between atoms: C_1  and  C_2
REMARK    2  A    between atoms: C_2  and  O_3
REMARK    3  A    between atoms: O_3  and  C_4
REMARK    4  A    between atoms: N_6  and  S_7
REMARK    5  A    between atoms: S_7  and  N_10
REMARK    6  A    between atoms: C_13  and  C_14
REMARK    7  A    between atoms: N_24  and  C_25
REMARK                            x       y       z     vdW  Elec       q    Type
REMARK                         _______ _______ _______ _____ _____    ______ ____
ROOT
ATOM      1  C   UNL     1       1.749   6.552  19.902  0.00  0.00    +0.000 A 
ATOM      2  N   UNL     1       1.317   5.597  20.824  0.00  0.00    +0.000 N 
ATOM      3  C   UNL     1       2.228   4.570  20.890  0.00  0.00    +0.000 A 
ATOM      4  N   UNL     1       2.102   3.396  21.528  0.00  0.00    +0.000 NA
ATOM      5  C   UNL     1       3.115   2.537  21.215  0.00  0.00    +0.000 A 
ATOM      6  C   UNL     1       4.254   2.834  20.464  0.00  0.00    +0.000 A 
ATOM      7  C   UNL     1       4.373   4.116  19.930  0.00  0.00    +0.000 A 
ATOM      8  C   UNL     1       3.277   4.970  20.091  0.00  0.00    +0.000 A 
ATOM      9  C   UNL     1       2.665   5.820  19.116  0.00  0.00    +0.000 A 
ATOM     10  C   UNL     1       2.556   5.071  17.746  0.00  0.00    +0.000 C 
ATOM     11  N   UNL     1       3.767   4.437  17.121  0.00  0.00    +0.000 N 
ATOM     12  C   UNL     1       3.607   3.562  15.968  0.00  0.00    +0.000 C 
ATOM     13  C   UNL     1       5.058   4.661  17.593  0.00  0.00    +0.000 A 
ATOM     14  C   UNL     1       6.084   5.026  16.702  0.00  0.00    +0.000 A 
ATOM     15  C   UNL     1       7.291   5.545  17.173  0.00  0.00    +0.000 A 
ATOM     16  C   UNL     1       7.486   5.676  18.540  0.00  0.00    +0.000 A 
ATOM     17  F   UNL     1       8.574   6.313  18.991  0.00  0.00    +0.000 F 
ATOM     18  C   UNL     1       6.559   5.175  19.442  0.00  0.00    +0.000 A 
ATOM     19  C   UNL     1       5.366   4.600  18.975  0.00  0.00    +0.000 A 
ATOM     20  H   UNL     1       0.541   5.688  21.470  0.00  0.00    +0.000 HD
ENDROOT
BRANCH   1  24
ATOM     21  N   UNL     1       0.736  10.777  20.864  0.00  0.00    +0.000 NA
ATOM     22  C   UNL     1       0.584   9.708  21.896  0.00  0.00    +0.000 C 
ATOM     23  C   UNL     1       1.037   8.311  21.446  0.00  0.00    +0.000 C 
ATOM     24  C   UNL     1       1.488   7.953  20.220  0.00  0.00    +0.000 C 
ATOM     25  C   UNL     1       1.532   9.077  19.193  0.00  0.00    +0.000 C 
ATOM     26  C   UNL     1       0.547  10.204  19.483  0.00  0.00    +0.000 C 
BRANCH  21  27
ATOM     27  S   UNL     1      -0.316  12.140  21.005  0.00  0.00    +0.000 S 
ATOM     28  O   UNL     1      -0.214  12.568  22.385  0.00  0.00    +0.000 OA
ATOM     29  O   UNL     1      -1.570  11.743  20.423  0.00  0.00    +0.000 OA
BRANCH  27  32
ATOM     30  C   UNL     1      -0.500  14.487  19.850  0.00  0.00    +0.000 C 
ATOM     31  O   UNL     1      -1.394  14.814  20.603  0.00  0.00    +0.000 OA
ATOM     32  N   UNL     1       0.306  13.325  20.014  0.00  0.00    +0.000 N 
ATOM     33  H   UNL     1       0.643  12.967  19.128  0.00  0.00    +0.000 HD
BRANCH  30  34
ATOM     34  O   UNL     1      -0.186  15.183  18.717  0.00  0.00    +0.000 OA
BRANCH  34  36
ATOM     35  C   UNL     1      -0.927  17.476  18.145  0.00  0.00    +0.000 C 
ATOM     36  C   UNL     1       0.064  16.602  18.899  0.00  0.00    +0.000 C 
ENDBRANCH  34  36
ENDBRANCH  30  34
ENDBRANCH  27  32
ENDBRANCH  21  27
ENDBRANCH   1  24
TORSDOF 5
ENDMDL
