MODEL 1
REMARK VINA RESULT:      -6.6      0.000      0.000
REMARK  Name = 
REMARK  5 active torsions:
REMARK  status: ('A' for Active; 'I' for Inactive)
REMARK    1  A    between atoms: N_3  and  C_4
REMARK    2  A    between atoms: C_4  and  C_5
REMARK    3  A    between atoms: C_5  and  C_6
REMARK    4  A    between atoms: C_6  and  O_7
REMARK    5  A    between atoms: O_7  and  C_8
REMARK                            x       y       z     vdW  Elec       q    Type
REMARK                         _______ _______ _______ _____ _____    ______ ____
ROOT
ATOM      1  O   UNL     1       2.394   6.170  19.837  0.00  0.00    +0.000 OA
ENDROOT
BRANCH   1   2
ATOM      2  C   UNL     1       3.466   6.105  18.981  0.00  0.00    +0.000 A 
ATOM      3  C   UNL     1       3.565   6.783  17.750  0.00  0.00    +0.000 A 
ATOM      4  C   UNL     1       4.705   6.659  16.950  0.00  0.00    +0.000 A 
ATOM      5  C   UNL     1       5.719   5.846  17.401  0.00  0.00    +0.000 A 
ATOM      6  C   UNL     1       5.629   5.175  18.597  0.00  0.00    +0.000 A 
ATOM      7  C   UNL     1       4.518   5.285  19.409  0.00  0.00    +0.000 A 
ATOM      8  O   UNL     1       6.734   4.423  18.850  0.00  0.00    +0.000 OA
ATOM      9  C   UNL     1       7.505   4.662  17.653  0.00  0.00    +0.000 C 
ATOM     10  O   UNL     1       6.889   5.606  16.753  0.00  0.00    +0.000 OA
ENDBRANCH   1   2
BRANCH   1  11
ATOM     11  C   UNL     1       2.257   5.086  20.755  0.00  0.00    +0.000 C 
BRANCH  11  12
ATOM     12  C   UNL     1       0.904   4.419  20.542  0.00  0.00    +0.000 C 
BRANCH  12  13
ATOM     13  C   UNL     1       1.091   2.950  20.184  0.00  0.00    +0.000 C 
BRANCH  13  16
ATOM     14  C   UNL     1       3.372   2.183  17.547  0.00  0.00    +0.000 A 
ATOM     15  C   UNL     1       3.041   2.031  18.872  0.00  0.00    +0.000 A 
ATOM     16  N   UNL     1       1.903   2.769  19.002  0.00  0.00    +0.000 N 
ATOM     17  N   UNL     1       1.545   3.333  17.839  0.00  0.00    +0.000 NA
ATOM     18  N   UNL     1       2.449   2.980  16.933  0.00  0.00    +0.000 NA
ENDBRANCH  13  16
ENDBRANCH  12  13
ENDBRANCH  11  12
ENDBRANCH   1  11
TORSDOF 5
ENDMDL
MODEL 2
REMARK VINA RESULT:      -6.4      3.220      5.710
REMARK  Name = 
REMARK  5 active torsions:
REMARK  status: ('A' for Active; 'I' for Inactive)
REMARK    1  A    between atoms: N_3  and  C_4
REMARK    2  A    between atoms: C_4  and  C_5
REMARK    3  A    between atoms: C_5  and  C_6
REMARK    4  A    between atoms: C_6  and  O_7
REMARK    5  A    between atoms: O_7  and  C_8
REMARK                            x       y       z     vdW  Elec       q    Type
REMARK                         _______ _______ _______ _____ _____    ______ ____
ROOT
ATOM      1  O   UNL     1       4.377   3.671  16.774  0.00  0.00    +0.000 OA
ENDROOT
BRANCH   1   2
ATOM      2  C   UNL     1       3.405   3.505  17.729  0.00  0.00    +0.000 A 
ATOM      3  C   UNL     1       2.025   3.709  17.527  0.00  0.00    +0.000 A 
ATOM      4  C   UNL     1       1.109   3.505  18.565  0.00  0.00    +0.000 A 
ATOM      5  C   UNL     1       1.602   3.110  19.787  0.00  0.00    +0.000 A 
ATOM      6  C   UNL     1       2.946   2.915  19.994  0.00  0.00    +0.000 A 
ATOM      7  C   UNL     1       3.871   3.103  18.986  0.00  0.00    +0.000 A 
ATOM      8  O   UNL     1       3.220   2.535  21.271  0.00  0.00    +0.000 OA
ATOM      9  C   UNL     1       1.898   2.561  21.852  0.00  0.00    +0.000 C 
ATOM     10  O   UNL     1       0.860   2.874  20.900  0.00  0.00    +0.000 OA
ENDBRANCH   1   2
BRANCH   1  11
ATOM     11  C   UNL     1       4.703   5.019  16.437  0.00  0.00    +0.000 C 
BRANCH  11  12
ATOM     12  C   UNL     1       5.740   5.019  15.321  0.00  0.00    +0.000 C 
BRANCH  12  13
ATOM     13  C   UNL     1       7.091   4.564  15.859  0.00  0.00    +0.000 C 
BRANCH  13  16
ATOM     14  C   UNL     1       7.831   6.575  18.715  0.00  0.00    +0.000 A 
ATOM     15  C   UNL     1       7.507   6.534  17.380  0.00  0.00    +0.000 A 
ATOM     16  N   UNL     1       7.430   5.201  17.112  0.00  0.00    +0.000 N 
ATOM     17  N   UNL     1       7.679   4.462  18.204  0.00  0.00    +0.000 NA
ATOM     18  N   UNL     1       7.931   5.302  19.201  0.00  0.00    +0.000 NA
ENDBRANCH  13  16
ENDBRANCH  12  13
ENDBRANCH  11  12
ENDBRANCH   1  11
TORSDOF 5
ENDMDL
MODEL 3
REMARK VINA RESULT:      -6.4      1.464      2.060
REMARK  Name = 
REMARK  5 active torsions:
REMARK  status: ('A' for Active; 'I' for Inactive)
REMARK    1  A    between atoms: N_3  and  C_4
REMARK    2  A    between atoms: C_4  and  C_5
REMARK    3  A    between atoms: C_5  and  C_6
REMARK    4  A    between atoms: C_6  and  O_7
REMARK    5  A    between atoms: O_7  and  C_8
REMARK                            x       y       z     vdW  Elec       q    Type
REMARK                         _______ _______ _______ _____ _____    ______ ____
ROOT
ATOM      1  O   UNL     1       2.594   5.751  19.059  0.00  0.00    +0.000 OA
ENDROOT
BRANCH   1   2
ATOM      2  C   UNL     1       3.857   5.465  18.602  0.00  0.00    +0.000 A 
ATOM      3  C   UNL     1       5.025   5.466  19.391  0.00  0.00    +0.000 A 
ATOM      4  C   UNL     1       6.269   5.152  18.833  0.00  0.00    +0.000 A 
ATOM      5  C   UNL     1       6.313   4.855  17.491  0.00  0.00    +0.000 A 
ATOM      6  C   UNL     1       5.180   4.858  16.713  0.00  0.00    +0.000 A 
ATOM      7  C   UNL     1       3.939   5.157  17.239  0.00  0.00    +0.000 A 
ATOM      8  O   UNL     1       5.446   4.544  15.416  0.00  0.00    +0.000 OA
ATOM      9  C   UNL     1       6.880   4.392  15.462  0.00  0.00    +0.000 C 
ATOM     10  O   UNL     1       7.431   4.535  16.787  0.00  0.00    +0.000 OA
ENDBRANCH   1   2
BRANCH   1  11
ATOM     11  C   UNL     1       2.333   5.435  20.426  0.00  0.00    +0.000 C 
BRANCH  11  12
ATOM     12  C   UNL     1       1.130   4.503  20.503  0.00  0.00    +0.000 C 
BRANCH  12  13
ATOM     13  C   UNL     1       1.562   3.127  20.995  0.00  0.00    +0.000 C 
BRANCH  13  16
ATOM     14  C   UNL     1       3.547   1.575  18.465  0.00  0.00    +0.000 A 
ATOM     15  C   UNL     1       2.310   2.039  18.845  0.00  0.00    +0.000 A 
ATOM     16  N   UNL     1       2.516   2.498  20.110  0.00  0.00    +0.000 N 
ATOM     17  N   UNL     1       3.794   2.341  20.489  0.00  0.00    +0.000 NA
ATOM     18  N   UNL     1       4.439   1.768  19.480  0.00  0.00    +0.000 NA
ENDBRANCH  13  16
ENDBRANCH  12  13
ENDBRANCH  11  12
ENDBRANCH   1  11
TORSDOF 5
ENDMDL
MODEL 4
REMARK VINA RESULT:      -6.3      3.101      5.378
REMARK  Name = 
REMARK  5 active torsions:
REMARK  status: ('A' for Active; 'I' for Inactive)
REMARK    1  A    between atoms: N_3  and  C_4
REMARK    2  A    between atoms: C_4  and  C_5
REMARK    3  A    between atoms: C_5  and  C_6
REMARK    4  A    between atoms: C_6  and  O_7
REMARK    5  A    between atoms: O_7  and  C_8
REMARK                            x       y       z     vdW  Elec       q    Type
REMARK                         _______ _______ _______ _____ _____    ______ ____
ROOT
ATOM      1  O   UNL     1       3.840   7.034  17.724  0.00  0.00    +0.000 OA
ENDROOT
BRANCH   1   2
ATOM      2  C   UNL     1       3.051   6.191  18.467  0.00  0.00    +0.000 A 
ATOM      3  C   UNL     1       2.665   6.410  19.804  0.00  0.00    +0.000 A 
ATOM      4  C   UNL     1       1.850   5.492  20.476  0.00  0.00    +0.000 A 
ATOM      5  C   UNL     1       1.450   4.368  19.791  0.00  0.00    +0.000 A 
ATOM      6  C   UNL     1       1.828   4.144  18.489  0.00  0.00    +0.000 A 
ATOM      7  C   UNL     1       2.625   5.036  17.800  0.00  0.00    +0.000 A 
ATOM      8  O   UNL     1       1.331   2.974  18.004  0.00  0.00    +0.000 OA
ATOM      9  C   UNL     1       0.639   2.469  19.166  0.00  0.00    +0.000 C 
ATOM     10  O   UNL     1       0.666   3.375  20.288  0.00  0.00    +0.000 OA
ENDBRANCH   1   2
BRANCH   1  11
ATOM     11  C   UNL     1       4.768   6.409  16.838  0.00  0.00    +0.000 C 
BRANCH  11  12
ATOM     12  C   UNL     1       6.153   6.424  17.473  0.00  0.00    +0.000 C 
BRANCH  12  13
ATOM     13  C   UNL     1       6.900   5.139  17.138  0.00  0.00    +0.000 C 
BRANCH  13  16
ATOM     14  C   UNL     1       6.485   4.025  13.772  0.00  0.00    +0.000 A 
ATOM     15  C   UNL     1       6.187   3.834  15.100  0.00  0.00    +0.000 A 
ATOM     16  N   UNL     1       6.868   4.833  15.726  0.00  0.00    +0.000 N 
ATOM     17  N   UNL     1       7.536   5.600  14.850  0.00  0.00    +0.000 NA
ATOM     18  N   UNL     1       7.308   5.106  13.639  0.00  0.00    +0.000 NA
ENDBRANCH  13  16
ENDBRANCH  12  13
ENDBRANCH  11  12
ENDBRANCH   1  11
TORSDOF 5
ENDMDL
MODEL 5
REMARK VINA RESULT:      -6.2      2.976      5.265
REMARK  Name = 
REMARK  5 active torsions:
REMARK  status: ('A' for Active; 'I' for Inactive)
REMARK    1  A    between atoms: N_3  and  C_4
REMARK    2  A    between atoms: C_4  and  C_5
REMARK    3  A    between atoms: C_5  and  C_6
REMARK    4  A    between atoms: C_6  and  O_7
REMARK    5  A    between atoms: O_7  and  C_8
REMARK                            x       y       z     vdW  Elec       q    Type
REMARK                         _______ _______ _______ _____ _____    ______ ____
ROOT
ATOM      1  O   UNL     1       5.833   4.990  19.433  0.00  0.00    +0.000 OA
ENDROOT
BRANCH   1   2
ATOM      2  C   UNL     1       4.490   4.707  19.435  0.00  0.00    +0.000 A 
ATOM      3  C   UNL     1       3.470   5.608  19.801  0.00  0.00    +0.000 A 
ATOM      4  C   UNL     1       2.125   5.226  19.762  0.00  0.00    +0.000 A 
ATOM      5  C   UNL     1       1.835   3.941  19.365  0.00  0.00    +0.000 A 
ATOM      6  C   UNL     1       2.823   3.054  19.013  0.00  0.00    +0.000 A 
ATOM      7  C   UNL     1       4.158   3.406  19.036  0.00  0.00    +0.000 A 
ATOM      8  O   UNL     1       2.322   1.839  18.661  0.00  0.00    +0.000 OA
ATOM      9  C   UNL     1       0.911   2.053  18.879  0.00  0.00    +0.000 C 
ATOM     10  O   UNL     1       0.590   3.403  19.276  0.00  0.00    +0.000 OA
ENDBRANCH   1   2
BRANCH   1  11
ATOM     11  C   UNL     1       6.243   6.090  18.620  0.00  0.00    +0.000 C 
BRANCH  11  12
ATOM     12  C   UNL     1       7.648   5.826  18.094  0.00  0.00    +0.000 C 
BRANCH  12  13
ATOM     13  C   UNL     1       7.705   4.471  17.401  0.00  0.00    +0.000 C 
BRANCH  13  16
ATOM     14  C   UNL     1       5.908   4.246  14.324  0.00  0.00    +0.000 A 
ATOM     15  C   UNL     1       6.032   3.824  15.626  0.00  0.00    +0.000 A 
ATOM     16  N   UNL     1       7.123   4.503  16.078  0.00  0.00    +0.000 N 
ATOM     17  N   UNL     1       7.638   5.298  15.128  0.00  0.00    +0.000 NA
ATOM     18  N   UNL     1       6.896   5.145  14.038  0.00  0.00    +0.000 NA
ENDBRANCH  13  16
ENDBRANCH  12  13
ENDBRANCH  11  12
ENDBRANCH   1  11
TORSDOF 5
ENDMDL
MODEL 6
REMARK VINA RESULT:      -6.1      1.274      1.583
REMARK  Name = 
REMARK  5 active torsions:
REMARK  status: ('A' for Active; 'I' for Inactive)
REMARK    1  A    between atoms: N_3  and  C_4
REMARK    2  A    between atoms: C_4  and  C_5
REMARK    3  A    between atoms: C_5  and  C_6
REMARK    4  A    between atoms: C_6  and  O_7
REMARK    5  A    between atoms: O_7  and  C_8
REMARK                            x       y       z     vdW  Elec       q    Type
REMARK                         _______ _______ _______ _____ _____    ______ ____
ROOT
ATOM      1  O   UNL     1       3.720   5.684  19.857  0.00  0.00    +0.000 OA
ENDROOT
BRANCH   1   2
ATOM      2  C   UNL     1       4.285   5.817  18.613  0.00  0.00    +0.000 A 
ATOM      3  C   UNL     1       3.900   6.766  17.644  0.00  0.00    +0.000 A 
ATOM      4  C   UNL     1       4.544   6.828  16.404  0.00  0.00    +0.000 A 
ATOM      5  C   UNL     1       5.555   5.927  16.160  0.00  0.00    +0.000 A 
ATOM      6  C   UNL     1       5.931   4.995  17.097  0.00  0.00    +0.000 A 
ATOM      7  C   UNL     1       5.318   4.915  18.331  0.00  0.00    +0.000 A 
ATOM      8  O   UNL     1       6.942   4.199  16.652  0.00  0.00    +0.000 OA
ATOM      9  C   UNL     1       7.121   4.709  15.314  0.00  0.00    +0.000 C 
ATOM     10  O   UNL     1       6.279   5.842  15.014  0.00  0.00    +0.000 OA
ENDBRANCH   1   2
BRANCH   1  11
ATOM     11  C   UNL     1       2.317   5.933  19.941  0.00  0.00    +0.000 C 
BRANCH  11  12
ATOM     12  C   UNL     1       1.652   4.798  20.709  0.00  0.00    +0.000 C 
BRANCH  12  13
ATOM     13  C   UNL     1       1.092   3.764  19.740  0.00  0.00    +0.000 C 
BRANCH  13  16
ATOM     14  C   UNL     1       3.432   1.779  17.914  0.00  0.00    +0.000 A 
ATOM     15  C   UNL     1       2.303   2.562  17.881  0.00  0.00    +0.000 A 
ATOM     16  N   UNL     1       2.121   2.915  19.183  0.00  0.00    +0.000 N 
ATOM     17  N   UNL     1       3.075   2.397  19.973  0.00  0.00    +0.000 NA
ATOM     18  N   UNL     1       3.889   1.691  19.198  0.00  0.00    +0.000 NA
ENDBRANCH  13  16
ENDBRANCH  12  13
ENDBRANCH  11  12
ENDBRANCH   1  11
TORSDOF 5
ENDMDL
MODEL 7
REMARK VINA RESULT:      -6.1      1.666      2.453
REMARK  Name = 
REMARK  5 active torsions:
REMARK  status: ('A' for Active; 'I' for Inactive)
REMARK    1  A    between atoms: N_3  and  C_4
REMARK    2  A    between atoms: C_4  and  C_5
REMARK    3  A    between atoms: C_5  and  C_6
REMARK    4  A    between atoms: C_6  and  O_7
REMARK    5  A    between atoms: O_7  and  C_8
REMARK                            x       y       z     vdW  Elec       q    Type
REMARK                         _______ _______ _______ _____ _____    ______ ____
ROOT
ATOM      1  O   UNL     1       4.261   5.564  19.805  0.00  0.00    +0.000 OA
ENDROOT
BRANCH   1   2
ATOM      2  C   UNL     1       5.220   5.344  18.846  0.00  0.00    +0.000 A 
ATOM      3  C   UNL     1       6.610   5.441  19.052  0.00  0.00    +0.000 A 
ATOM      4  C   UNL     1       7.510   5.190  18.010  0.00  0.00    +0.000 A 
ATOM      5  C   UNL     1       6.990   4.857  16.781  0.00  0.00    +0.000 A 
ATOM      6  C   UNL     1       5.635   4.767  16.570  0.00  0.00    +0.000 A 
ATOM      7  C   UNL     1       4.726   5.003  17.581  0.00  0.00    +0.000 A 
ATOM      8  O   UNL     1       5.336   4.434  15.286  0.00  0.00    +0.000 OA
ATOM      9  C   UNL     1       6.656   4.372  14.705  0.00  0.00    +0.000 C 
ATOM     10  O   UNL     1       7.714   4.588  15.662  0.00  0.00    +0.000 OA
ENDBRANCH   1   2
BRANCH   1  11
ATOM     11  C   UNL     1       3.080   6.237  19.370  0.00  0.00    +0.000 C 
BRANCH  11  12
ATOM     12  C   UNL     1       1.947   5.937  20.343  0.00  0.00    +0.000 C 
BRANCH  12  13
ATOM     13  C   UNL     1       2.161   4.578  20.998  0.00  0.00    +0.000 C 
BRANCH  13  16
ATOM     14  C   UNL     1       1.026   2.085  18.709  0.00  0.00    +0.000 A 
ATOM     15  C   UNL     1       0.723   3.207  19.443  0.00  0.00    +0.000 A 
ATOM     16  N   UNL     1       1.885   3.481  20.098  0.00  0.00    +0.000 N 
ATOM     17  N   UNL     1       2.847   2.599  19.787  0.00  0.00    +0.000 NA
ATOM     18  N   UNL     1       2.325   1.729  18.931  0.00  0.00    +0.000 NA
ENDBRANCH  13  16
ENDBRANCH  12  13
ENDBRANCH  11  12
ENDBRANCH   1  11
TORSDOF 5
ENDMDL
MODEL 8
REMARK VINA RESULT:      -6.1      3.471      5.618
REMARK  Name = 
REMARK  5 active torsions:
REMARK  status: ('A' for Active; 'I' for Inactive)
REMARK    1  A    between atoms: N_3  and  C_4
REMARK    2  A    between atoms: C_4  and  C_5
REMARK    3  A    between atoms: C_5  and  C_6
REMARK    4  A    between atoms: C_6  and  O_7
REMARK    5  A    between atoms: O_7  and  C_8
REMARK                            x       y       z     vdW  Elec       q    Type
REMARK                         _______ _______ _______ _____ _____    ______ ____
ROOT
ATOM      1  O   UNL     1       4.227   4.364  16.715  0.00  0.00    +0.000 OA
ENDROOT
BRANCH   1   2
ATOM      2  C   UNL     1       3.332   3.997  17.690  0.00  0.00    +0.000 A 
ATOM      3  C   UNL     1       1.931   4.097  17.585  0.00  0.00    +0.000 A 
ATOM      4  C   UNL     1       1.100   3.688  18.634  0.00  0.00    +0.000 A 
ATOM      5  C   UNL     1       1.699   3.197  19.771  0.00  0.00    +0.000 A 
ATOM      6  C   UNL     1       3.065   3.103  19.884  0.00  0.00    +0.000 A 
ATOM      7  C   UNL     1       3.907   3.493  18.862  0.00  0.00    +0.000 A 
ATOM      8  O   UNL     1       3.447   2.599  21.089  0.00  0.00    +0.000 OA
ATOM      9  C   UNL     1       2.166   2.435  21.734  0.00  0.00    +0.000 C 
ATOM     10  O   UNL     1       1.048   2.763  20.883  0.00  0.00    +0.000 OA
ENDBRANCH   1   2
BRANCH   1  11
ATOM     11  C   UNL     1       4.678   5.718  16.754  0.00  0.00    +0.000 C 
BRANCH  11  12
ATOM     12  C   UNL     1       6.168   5.739  17.072  0.00  0.00    +0.000 C 
BRANCH  12  13
ATOM     13  C   UNL     1       6.851   4.515  16.476  0.00  0.00    +0.000 C 
BRANCH  13  16
ATOM     14  C   UNL     1       6.855   4.399  12.908  0.00  0.00    +0.000 A 
ATOM     15  C   UNL     1       6.367   3.879  14.083  0.00  0.00    +0.000 A 
ATOM     16  N   UNL     1       7.002   4.609  15.042  0.00  0.00    +0.000 N 
ATOM     17  N   UNL     1       7.822   5.525  14.503  0.00  0.00    +0.000 NA
ATOM     18  N   UNL     1       7.741   5.401  13.184  0.00  0.00    +0.000 NA
ENDBRANCH  13  16
ENDBRANCH  12  13
ENDBRANCH  11  12
ENDBRANCH   1  11
TORSDOF 5
ENDMDL
MODEL 9
REMARK VINA RESULT:      -6.0      3.070      5.078
REMARK  Name = 
REMARK  5 active torsions:
REMARK  status: ('A' for Active; 'I' for Inactive)
REMARK    1  A    between atoms: N_3  and  C_4
REMARK    2  A    between atoms: C_4  and  C_5
REMARK    3  A    between atoms: C_5  and  C_6
REMARK    4  A    between atoms: C_6  and  O_7
REMARK    5  A    between atoms: O_7  and  C_8
REMARK                            x       y       z     vdW  Elec       q    Type
REMARK                         _______ _______ _______ _____ _____    ______ ____
ROOT
ATOM      1  O   UNL     1       5.426   6.021  18.979  0.00  0.00    +0.000 OA
ENDROOT
BRANCH   1   2
ATOM      2  C   UNL     1       4.228   5.396  18.735  0.00  0.00    +0.000 A 
ATOM      3  C   UNL     1       3.125   5.981  18.082  0.00  0.00    +0.000 A 
ATOM      4  C   UNL     1       1.946   5.257  17.873  0.00  0.00    +0.000 A 
ATOM      5  C   UNL     1       1.899   3.962  18.335  0.00  0.00    +0.000 A 
ATOM      6  C   UNL     1       2.968   3.386  18.979  0.00  0.00    +0.000 A 
ATOM      7  C   UNL     1       4.144   4.076  19.192  0.00  0.00    +0.000 A 
ATOM      8  O   UNL     1       2.709   2.106  19.360  0.00  0.00    +0.000 OA
ATOM      9  C   UNL     1       1.340   1.963  18.923  0.00  0.00    +0.000 C 
ATOM     10  O   UNL     1       0.837   3.121  18.225  0.00  0.00    +0.000 OA
ENDBRANCH   1   2
BRANCH   1  11
ATOM     11  C   UNL     1       6.537   5.167  19.248  0.00  0.00    +0.000 C 
BRANCH  11  12
ATOM     12  C   UNL     1       7.573   5.330  18.143  0.00  0.00    +0.000 C 
BRANCH  12  13
ATOM     13  C   UNL     1       7.010   6.190  17.018  0.00  0.00    +0.000 C 
BRANCH  13  16
ATOM     14  C   UNL     1       5.857   4.201  14.286  0.00  0.00    +0.000 A 
ATOM     15  C   UNL     1       5.618   4.680  15.552  0.00  0.00    +0.000 A 
ATOM     16  N   UNL     1       6.726   5.423  15.826  0.00  0.00    +0.000 N 
ATOM     17  N   UNL     1       7.592   5.415  14.800  0.00  0.00    +0.000 NA
ATOM     18  N   UNL     1       7.065   4.660  13.844  0.00  0.00    +0.000 NA
ENDBRANCH  13  16
ENDBRANCH  12  13
ENDBRANCH  11  12
ENDBRANCH   1  11
TORSDOF 5
ENDMDL
