MODEL 1
REMARK VINA RESULT:      -8.9      0.000      0.000
REMARK  Name = 
REMARK  5 active torsions:
REMARK  status: ('A' for Active; 'I' for Inactive)
REMARK    1  A    between atoms: C_1  and  C_2
REMARK    2  A    between atoms: C_2  and  C_3
REMARK    3  A    between atoms: C_2  and  C_4
REMARK    4  A    between atoms: C_5  and  S_6
REMARK    5  A    between atoms: S_6  and  C_7
REMARK                            x       y       z     vdW  Elec       q    Type
REMARK                         _______ _______ _______ _____ _____    ______ ____
ROOT
ATOM      1  C   UNL     1       3.874   6.268  17.591  0.00  0.00    +0.000 A 
ATOM      2  C   UNL     1       2.760   6.947  18.071  0.00  0.00    +0.000 A 
ATOM      3  N   UNL     1       1.852   6.039  18.533  0.00  0.00    +0.000 N 
ATOM      4  C   UNL     1       2.340   4.776  18.374  0.00  0.00    +0.000 A 
ATOM      5  N   UNL     1       1.679   3.664  18.722  0.00  0.00    +0.000 NA
ATOM      6  C   UNL     1       2.369   2.554  18.455  0.00  0.00    +0.000 A 
ATOM      7  N   UNL     1       1.783   1.347  18.790  0.00  0.00    +0.000 N 
ATOM      8  N   UNL     1       3.566   2.485  17.858  0.00  0.00    +0.000 NA
ATOM      9  C   UNL     1       4.201   3.622  17.502  0.00  0.00    +0.000 A 
ATOM     10  N   UNL     1       5.426   3.448  16.870  0.00  0.00    +0.000 N 
ATOM     11  C   UNL     1       3.593   4.859  17.781  0.00  0.00    +0.000 A 
ATOM     12  H   UNL     1       0.932   6.254  18.890  0.00  0.00    +0.000 HD
ATOM     13  H   UNL     1       0.778   1.445  18.786  0.00  0.00    +0.000 HD
ATOM     14  H   UNL     1       2.180   0.617  18.214  0.00  0.00    +0.000 HD
ATOM     15  H   UNL     1       5.741   2.491  16.998  0.00  0.00    +0.000 HD
ATOM     16  H   UNL     1       6.116   4.154  17.070  0.00  0.00    +0.000 HD
ENDROOT
BRANCH   1  18
ATOM     17  C   UNL     1       6.397   6.508  17.697  0.00  0.00    +0.000 C 
ATOM     18  C   UNL     1       5.109   6.858  16.948  0.00  0.00    +0.000 C 
ATOM     19  C   UNL     1       5.213   6.511  15.461  0.00  0.00    +0.000 C 
ENDBRANCH   1  18
BRANCH   2  20
ATOM     20  S   UNL     1       2.286   8.609  17.984  0.00  0.00    +0.000 S 
BRANCH  20  21
ATOM     21  C   UNL     1       1.449   8.958  19.520  0.00  0.00    +0.000 A 
ATOM     22  C   UNL     1       1.603   8.259  20.717  0.00  0.00    +0.000 A 
ATOM     23  C   UNL     1       0.908   8.661  21.868  0.00  0.00    +0.000 A 
ATOM     24  C   UNL     1       0.058   9.781  21.852  0.00  0.00    +0.000 A 
ATOM     25  C   UNL     1      -0.637  10.212  22.996  0.00  0.00    +0.000 A 
ATOM     26  C   UNL     1      -1.461  11.343  22.950  0.00  0.00    +0.000 A 
ATOM     27  C   UNL     1      -1.601  12.054  21.764  0.00  0.00    +0.000 A 
ATOM     28  C   UNL     1      -0.923  11.636  20.619  0.00  0.00    +0.000 A 
ATOM     29  C   UNL     1      -0.093  10.503  20.651  0.00  0.00    +0.000 A 
ATOM     30  C   UNL     1       0.601  10.077  19.504  0.00  0.00    +0.000 A 
ENDBRANCH  20  21
ENDBRANCH   2  20
TORSDOF 3
ENDMDL
MODEL 2
REMARK VINA RESULT:      -8.9      1.610      2.168
REMARK  Name = 
REMARK  5 active torsions:
REMARK  status: ('A' for Active; 'I' for Inactive)
REMARK    1  A    between atoms: C_1  and  C_2
REMARK    2  A    between atoms: C_2  and  C_3
REMARK    3  A    between atoms: C_2  and  C_4
REMARK    4  A    between atoms: C_5  and  S_6
REMARK    5  A    between atoms: S_6  and  C_7
REMARK                            x       y       z     vdW  Elec       q    Type
REMARK                         _______ _______ _______ _____ _____    ______ ____
ROOT
ATOM      1  C   UNL     1       3.915   5.730  18.541  0.00  0.00    +0.000 A 
ATOM      2  C   UNL     1       2.911   6.684  18.654  0.00  0.00    +0.000 A 
ATOM      3  N   UNL     1       1.978   6.243  19.547  0.00  0.00    +0.000 N 
ATOM      4  C   UNL     1       2.343   5.022  20.031  0.00  0.00    +0.000 A 
ATOM      5  N   UNL     1       1.628   4.321  20.920  0.00  0.00    +0.000 NA
ATOM      6  C   UNL     1       2.197   3.153  21.227  0.00  0.00    +0.000 A 
ATOM      7  N   UNL     1       1.547   2.354  22.149  0.00  0.00    +0.000 N 
ATOM      8  N   UNL     1       3.323   2.654  20.701  0.00  0.00    +0.000 NA
ATOM      9  C   UNL     1       4.013   3.376  19.794  0.00  0.00    +0.000 A 
ATOM     10  N   UNL     1       5.156   2.767  19.290  0.00  0.00    +0.000 N 
ATOM     11  C   UNL     1       3.538   4.649  19.430  0.00  0.00    +0.000 A 
ATOM     12  H   UNL     1       1.116   6.714  19.780  0.00  0.00    +0.000 HD
ATOM     13  H   UNL     1       0.557   2.554  22.135  0.00  0.00    +0.000 HD
ATOM     14  H   UNL     1       1.827   1.393  22.009  0.00  0.00    +0.000 HD
ATOM     15  H   UNL     1       5.401   1.973  19.873  0.00  0.00    +0.000 HD
ATOM     16  H   UNL     1       5.918   3.392  19.078  0.00  0.00    +0.000 HD
ENDROOT
BRANCH   1  18
ATOM     17  C   UNL     1       6.448   5.682  18.412  0.00  0.00    +0.000 C 
ATOM     18  C   UNL     1       5.130   5.769  17.641  0.00  0.00    +0.000 C 
ATOM     19  C   UNL     1       5.062   4.722  16.527  0.00  0.00    +0.000 C 
ENDBRANCH   1  18
BRANCH   2  20
ATOM     20  S   UNL     1       2.569   8.122  17.754  0.00  0.00    +0.000 S 
BRANCH  20  21
ATOM     21  C   UNL     1       1.491   9.099  18.788  0.00  0.00    +0.000 A 
ATOM     22  C   UNL     1       0.621  10.098  18.353  0.00  0.00    +0.000 A 
ATOM     23  C   UNL     1      -0.203  10.770  19.269  0.00  0.00    +0.000 A 
ATOM     24  C   UNL     1      -0.188  10.443  20.637  0.00  0.00    +0.000 A 
ATOM     25  C   UNL     1      -1.014  11.091  21.573  0.00  0.00    +0.000 A 
ATOM     26  C   UNL     1      -0.988  10.729  22.924  0.00  0.00    +0.000 A 
ATOM     27  C   UNL     1      -0.138   9.718  23.357  0.00  0.00    +0.000 A 
ATOM     28  C   UNL     1       0.693   9.070  22.443  0.00  0.00    +0.000 A 
ATOM     29  C   UNL     1       0.677   9.424  21.084  0.00  0.00    +0.000 A 
ATOM     30  C   UNL     1       1.505   8.772  20.153  0.00  0.00    +0.000 A 
ENDBRANCH  20  21
ENDBRANCH   2  20
TORSDOF 3
ENDMDL
MODEL 3
REMARK VINA RESULT:      -8.6      2.462      4.438
REMARK  Name = 
REMARK  5 active torsions:
REMARK  status: ('A' for Active; 'I' for Inactive)
REMARK    1  A    between atoms: C_1  and  C_2
REMARK    2  A    between atoms: C_2  and  C_3
REMARK    3  A    between atoms: C_2  and  C_4
REMARK    4  A    between atoms: C_5  and  S_6
REMARK    5  A    between atoms: S_6  and  C_7
REMARK                            x       y       z     vdW  Elec       q    Type
REMARK                         _______ _______ _______ _____ _____    ______ ____
ROOT
ATOM      1  C   UNL     1       6.476   5.199  16.807  0.00  0.00    +0.000 A 
ATOM      2  C   UNL     1       5.337   4.639  17.375  0.00  0.00    +0.000 A 
ATOM      3  N   UNL     1       4.667   3.931  16.420  0.00  0.00    +0.000 N 
ATOM      4  C   UNL     1       5.337   4.006  15.235  0.00  0.00    +0.000 A 
ATOM      5  N   UNL     1       4.927   3.422  14.101  0.00  0.00    +0.000 NA
ATOM      6  C   UNL     1       5.755   3.652  13.079  0.00  0.00    +0.000 A 
ATOM      7  N   UNL     1       5.433   3.082  11.861  0.00  0.00    +0.000 N 
ATOM      8  N   UNL     1       6.855   4.415  13.103  0.00  0.00    +0.000 NA
ATOM      9  C   UNL     1       7.234   5.005  14.257  0.00  0.00    +0.000 A 
ATOM     10  N   UNL     1       8.375   5.794  14.177  0.00  0.00    +0.000 N 
ATOM     11  C   UNL     1       6.467   4.792  15.416  0.00  0.00    +0.000 A 
ATOM     12  H   UNL     1       3.780   3.465  16.545  0.00  0.00    +0.000 HD
ATOM     13  H   UNL     1       4.434   2.942  11.806  0.00  0.00    +0.000 HD
ATOM     14  H   UNL     1       5.867   3.617  11.122  0.00  0.00    +0.000 HD
ATOM     15  H   UNL     1       8.862   5.599  13.308  0.00  0.00    +0.000 HD
ATOM     16  H   UNL     1       8.955   5.794  15.001  0.00  0.00    +0.000 HD
ENDROOT
BRANCH   1  18
ATOM     17  C   UNL     1       7.109   7.574  17.434  0.00  0.00    +0.000 C 
ATOM     18  C   UNL     1       7.496   6.094  17.474  0.00  0.00    +0.000 C 
ATOM     19  C   UNL     1       7.825   5.640  18.898  0.00  0.00    +0.000 C 
ENDBRANCH   1  18
BRANCH   2  20
ATOM     20  S   UNL     1       4.580   4.858  18.915  0.00  0.00    +0.000 S 
BRANCH  20  21
ATOM     21  C   UNL     1       3.584   6.331  18.763  0.00  0.00    +0.000 A 
ATOM     22  C   UNL     1       3.503   7.155  17.641  0.00  0.00    +0.000 A 
ATOM     23  C   UNL     1       2.650   8.269  17.639  0.00  0.00    +0.000 A 
ATOM     24  C   UNL     1       1.846   8.573  18.752  0.00  0.00    +0.000 A 
ATOM     25  C   UNL     1       0.972   9.675  18.769  0.00  0.00    +0.000 A 
ATOM     26  C   UNL     1       0.172   9.938  19.886  0.00  0.00    +0.000 A 
ATOM     27  C   UNL     1       0.235   9.106  20.999  0.00  0.00    +0.000 A 
ATOM     28  C   UNL     1       1.100   8.013  21.000  0.00  0.00    +0.000 A 
ATOM     29  C   UNL     1       1.910   7.737  19.886  0.00  0.00    +0.000 A 
ATOM     30  C   UNL     1       2.780   6.634  19.874  0.00  0.00    +0.000 A 
ENDBRANCH  20  21
ENDBRANCH   2  20
TORSDOF 3
ENDMDL
MODEL 4
REMARK VINA RESULT:      -8.5      1.483      3.100
REMARK  Name = 
REMARK  5 active torsions:
REMARK  status: ('A' for Active; 'I' for Inactive)
REMARK    1  A    between atoms: C_1  and  C_2
REMARK    2  A    between atoms: C_2  and  C_3
REMARK    3  A    between atoms: C_2  and  C_4
REMARK    4  A    between atoms: C_5  and  S_6
REMARK    5  A    between atoms: S_6  and  C_7
REMARK                            x       y       z     vdW  Elec       q    Type
REMARK                         _______ _______ _______ _____ _____    ______ ____
ROOT
ATOM      1  C   UNL     1       2.852   5.820  18.307  0.00  0.00    +0.000 A 
ATOM      2  C   UNL     1       3.054   7.125  17.873  0.00  0.00    +0.000 A 
ATOM      3  N   UNL     1       4.394   7.346  17.739  0.00  0.00    +0.000 N 
ATOM      4  C   UNL     1       5.083   6.216  18.070  0.00  0.00    +0.000 A 
ATOM      5  N   UNL     1       6.419   6.117  18.050  0.00  0.00    +0.000 NA
ATOM      6  C   UNL     1       6.847   4.909  18.424  0.00  0.00    +0.000 A 
ATOM      7  N   UNL     1       8.213   4.694  18.426  0.00  0.00    +0.000 N 
ATOM      8  N   UNL     1       6.086   3.889  18.839  0.00  0.00    +0.000 NA
ATOM      9  C   UNL     1       4.744   4.024  18.865  0.00  0.00    +0.000 A 
ATOM     10  N   UNL     1       4.041   2.918  19.330  0.00  0.00    +0.000 N 
ATOM     11  C   UNL     1       4.172   5.237  18.442  0.00  0.00    +0.000 A 
ATOM     12  H   UNL     1       4.825   8.223  17.489  0.00  0.00    +0.000 HD
ATOM     13  H   UNL     1       8.695   5.571  18.560  0.00  0.00    +0.000 HD
ATOM     14  H   UNL     1       8.428   3.944  19.068  0.00  0.00    +0.000 HD
ATOM     15  H   UNL     1       4.655   2.110  19.348  0.00  0.00    +0.000 HD
ATOM     16  H   UNL     1       3.146   2.765  18.893  0.00  0.00    +0.000 HD
ENDROOT
BRANCH   1  18
ATOM     17  C   UNL     1       1.240   3.949  17.725  0.00  0.00    +0.000 C 
ATOM     18  C   UNL     1       1.536   5.147  18.629  0.00  0.00    +0.000 C 
ATOM     19  C   UNL     1       1.422   4.774  20.109  0.00  0.00    +0.000 C 
ENDBRANCH   1  18
BRANCH   2  20
ATOM     20  S   UNL     1       1.981   8.471  17.701  0.00  0.00    +0.000 S 
BRANCH  20  21
ATOM     21  C   UNL     1       1.343   8.798  19.334  0.00  0.00    +0.000 A 
ATOM     22  C   UNL     1       1.700   8.128  20.505  0.00  0.00    +0.000 A 
ATOM     23  C   UNL     1       1.148   8.509  21.737  0.00  0.00    +0.000 A 
ATOM     24  C   UNL     1       0.242   9.580  21.829  0.00  0.00    +0.000 A 
ATOM     25  C   UNL     1      -0.314   9.991  23.055  0.00  0.00    +0.000 A 
ATOM     26  C   UNL     1      -1.198  11.074  23.114  0.00  0.00    +0.000 A 
ATOM     27  C   UNL     1      -1.540  11.757  21.952  0.00  0.00    +0.000 A 
ATOM     28  C   UNL     1      -1.002  11.359  20.728  0.00  0.00    +0.000 A 
ATOM     29  C   UNL     1      -0.113  10.274  20.654  0.00  0.00    +0.000 A 
ATOM     30  C   UNL     1       0.439   9.869  19.427  0.00  0.00    +0.000 A 
ENDBRANCH  20  21
ENDBRANCH   2  20
TORSDOF 3
ENDMDL
MODEL 5
REMARK VINA RESULT:      -8.5      3.739      7.734
REMARK  Name = 
REMARK  5 active torsions:
REMARK  status: ('A' for Active; 'I' for Inactive)
REMARK    1  A    between atoms: C_1  and  C_2
REMARK    2  A    between atoms: C_2  and  C_3
REMARK    3  A    between atoms: C_2  and  C_4
REMARK    4  A    between atoms: C_5  and  S_6
REMARK    5  A    between atoms: S_6  and  C_7
REMARK                            x       y       z     vdW  Elec       q    Type
REMARK                         _______ _______ _______ _____ _____    ______ ____
ROOT
ATOM      1  C   UNL     1       0.423  10.590  19.259  0.00  0.00    +0.000 A 
ATOM      2  C   UNL     1       0.945   9.809  18.233  0.00  0.00    +0.000 A 
ATOM      3  N   UNL     1      -0.014   9.630  17.279  0.00  0.00    +0.000 N 
ATOM      4  C   UNL     1      -1.157  10.277  17.647  0.00  0.00    +0.000 A 
ATOM      5  N   UNL     1      -2.285  10.282  16.923  0.00  0.00    +0.000 NA
ATOM      6  C   UNL     1      -3.262  10.981  17.504  0.00  0.00    +0.000 A 
ATOM      7  N   UNL     1      -4.468  11.063  16.833  0.00  0.00    +0.000 N 
ATOM      8  N   UNL     1      -3.207  11.585  18.698  0.00  0.00    +0.000 NA
ATOM      9  C   UNL     1      -2.063  11.548  19.413  0.00  0.00    +0.000 A 
ATOM     10  N   UNL     1      -2.109  12.184  20.648  0.00  0.00    +0.000 N 
ATOM     11  C   UNL     1      -0.944  10.884  18.877  0.00  0.00    +0.000 A 
ATOM     12  H   UNL     1       0.077   9.062  16.450  0.00  0.00    +0.000 HD
ATOM     13  H   UNL     1      -4.580  10.257  16.235  0.00  0.00    +0.000 HD
ATOM     14  H   UNL     1      -5.204  11.251  17.500  0.00  0.00    +0.000 HD
ATOM     15  H   UNL     1      -2.935  12.772  20.695  0.00  0.00    +0.000 HD
ATOM     16  H   UNL     1      -1.251  12.629  20.934  0.00  0.00    +0.000 HD
ENDROOT
BRANCH   1  18
ATOM     17  C   UNL     1       1.224  12.528  20.686  0.00  0.00    +0.000 C 
ATOM     18  C   UNL     1       1.107  11.010  20.540  0.00  0.00    +0.000 C 
ATOM     19  C   UNL     1       0.465  10.375  21.776  0.00  0.00    +0.000 C 
ENDBRANCH   1  18
BRANCH   2  20
ATOM     20  S   UNL     1       2.421   8.919  18.088  0.00  0.00    +0.000 S 
BRANCH  20  21
ATOM     21  C   UNL     1       2.141   7.371  18.929  0.00  0.00    +0.000 A 
ATOM     22  C   UNL     1       1.832   7.214  20.280  0.00  0.00    +0.000 A 
ATOM     23  C   UNL     1       1.600   5.936  20.810  0.00  0.00    +0.000 A 
ATOM     24  C   UNL     1       1.653   4.789  19.998  0.00  0.00    +0.000 A 
ATOM     25  C   UNL     1       1.409   3.499  20.503  0.00  0.00    +0.000 A 
ATOM     26  C   UNL     1       1.451   2.381  19.663  0.00  0.00    +0.000 A 
ATOM     27  C   UNL     1       1.738   2.536  18.312  0.00  0.00    +0.000 A 
ATOM     28  C   UNL     1       1.988   3.808  17.796  0.00  0.00    +0.000 A 
ATOM     29  C   UNL     1       1.949   4.939  18.628  0.00  0.00    +0.000 A 
ATOM     30  C   UNL     1       2.193   6.226  18.117  0.00  0.00    +0.000 A 
ENDBRANCH  20  21
ENDBRANCH   2  20
TORSDOF 3
ENDMDL
MODEL 6
REMARK VINA RESULT:      -8.4      1.784      2.086
REMARK  Name = 
REMARK  5 active torsions:
REMARK  status: ('A' for Active; 'I' for Inactive)
REMARK    1  A    between atoms: C_1  and  C_2
REMARK    2  A    between atoms: C_2  and  C_3
REMARK    3  A    between atoms: C_2  and  C_4
REMARK    4  A    between atoms: C_5  and  S_6
REMARK    5  A    between atoms: S_6  and  C_7
REMARK                            x       y       z     vdW  Elec       q    Type
REMARK                         _______ _______ _______ _____ _____    ______ ____
ROOT
ATOM      1  C   UNL     1       3.923   5.700  18.591  0.00  0.00    +0.000 A 
ATOM      2  C   UNL     1       2.945   6.677  18.741  0.00  0.00    +0.000 A 
ATOM      3  N   UNL     1       2.025   6.248  19.652  0.00  0.00    +0.000 N 
ATOM      4  C   UNL     1       2.372   5.012  20.112  0.00  0.00    +0.000 A 
ATOM      5  N   UNL     1       1.663   4.317  21.011  0.00  0.00    +0.000 NA
ATOM      6  C   UNL     1       2.211   3.132  21.290  0.00  0.00    +0.000 A 
ATOM      7  N   UNL     1       1.565   2.337  22.219  0.00  0.00    +0.000 N 
ATOM      8  N   UNL     1       3.310   2.613  20.729  0.00  0.00    +0.000 NA
ATOM      9  C   UNL     1       3.995   3.330  19.813  0.00  0.00    +0.000 A 
ATOM     10  N   UNL     1       5.110   2.699  19.273  0.00  0.00    +0.000 N 
ATOM     11  C   UNL     1       3.542   4.618  19.477  0.00  0.00    +0.000 A 
ATOM     12  H   UNL     1       1.181   6.737  19.913  0.00  0.00    +0.000 HD
ATOM     13  H   UNL     1       0.580   2.562  22.232  0.00  0.00    +0.000 HD
ATOM     14  H   UNL     1       1.817   1.372  22.059  0.00  0.00    +0.000 HD
ATOM     15  H   UNL     1       5.350   1.892  19.840  0.00  0.00    +0.000 HD
ATOM     16  H   UNL     1       5.880   3.308  19.049  0.00  0.00    +0.000 HD
ENDROOT
BRANCH   1  18
ATOM     17  C   UNL     1       6.451   5.614  18.398  0.00  0.00    +0.000 C 
ATOM     18  C   UNL     1       5.115   5.721  17.661  0.00  0.00    +0.000 C 
ATOM     19  C   UNL     1       5.003   4.675  16.549  0.00  0.00    +0.000 C 
ENDBRANCH   1  18
BRANCH   2  20
ATOM     20  S   UNL     1       2.616   8.134  17.867  0.00  0.00    +0.000 S 
BRANCH  20  21
ATOM     21  C   UNL     1       1.484   9.066  18.883  0.00  0.00    +0.000 A 
ATOM     22  C   UNL     1       1.524   9.172  20.273  0.00  0.00    +0.000 A 
ATOM     23  C   UNL     1       0.590   9.970  20.951  0.00  0.00    +0.000 A 
ATOM     24  C   UNL     1      -0.392  10.694  20.253  0.00  0.00    +0.000 A 
ATOM     25  C   UNL     1      -1.330  11.513  20.909  0.00  0.00    +0.000 A 
ATOM     26  C   UNL     1      -2.282  12.235  20.182  0.00  0.00    +0.000 A 
ATOM     27  C   UNL     1      -2.312  12.149  18.795  0.00  0.00    +0.000 A 
ATOM     28  C   UNL     1      -1.393  11.337  18.129  0.00  0.00    +0.000 A 
ATOM     29  C   UNL     1      -0.432  10.606  18.847  0.00  0.00    +0.000 A 
ATOM     30  C   UNL     1       0.503   9.790  18.186  0.00  0.00    +0.000 A 
ENDBRANCH  20  21
ENDBRANCH   2  20
TORSDOF 3
ENDMDL
MODEL 7
REMARK VINA RESULT:      -8.4      1.968      2.535
REMARK  Name = 
REMARK  5 active torsions:
REMARK  status: ('A' for Active; 'I' for Inactive)
REMARK    1  A    between atoms: C_1  and  C_2
REMARK    2  A    between atoms: C_2  and  C_3
REMARK    3  A    between atoms: C_2  and  C_4
REMARK    4  A    between atoms: C_5  and  S_6
REMARK    5  A    between atoms: S_6  and  C_7
REMARK                            x       y       z     vdW  Elec       q    Type
REMARK                         _______ _______ _______ _____ _____    ______ ____
ROOT
ATOM      1  C   UNL     1       4.097   5.489  18.514  0.00  0.00    +0.000 A 
ATOM      2  C   UNL     1       3.196   6.546  18.581  0.00  0.00    +0.000 A 
ATOM      3  N   UNL     1       2.225   6.245  19.491  0.00  0.00    +0.000 N 
ATOM      4  C   UNL     1       2.463   5.015  20.030  0.00  0.00    +0.000 A 
ATOM      5  N   UNL     1       1.681   4.432  20.948  0.00  0.00    +0.000 NA
ATOM      6  C   UNL     1       2.127   3.227  21.309  0.00  0.00    +0.000 A 
ATOM      7  N   UNL     1       1.400   2.541  22.264  0.00  0.00    +0.000 N 
ATOM      8  N   UNL     1       3.194   2.591  20.809  0.00  0.00    +0.000 NA
ATOM      9  C   UNL     1       3.954   3.197  19.872  0.00  0.00    +0.000 A 
ATOM     10  N   UNL     1       5.027   2.450  19.399  0.00  0.00    +0.000 N 
ATOM     11  C   UNL     1       3.612   4.494  19.450  0.00  0.00    +0.000 A 
ATOM     12  H   UNL     1       1.417   6.812  19.701  0.00  0.00    +0.000 HD
ATOM     13  H   UNL     1       0.436   2.842  22.238  0.00  0.00    +0.000 HD
ATOM     14  H   UNL     1       1.579   1.551  22.168  0.00  0.00    +0.000 HD
ATOM     15  H   UNL     1       5.190   1.662  20.018  0.00  0.00    +0.000 HD
ATOM     16  H   UNL     1       5.848   2.983  19.161  0.00  0.00    +0.000 HD
ENDROOT
BRANCH   1  18
ATOM     17  C   UNL     1       4.943   5.086  16.157  0.00  0.00    +0.000 C 
ATOM     18  C   UNL     1       5.307   5.362  17.617  0.00  0.00    +0.000 C 
ATOM     19  C   UNL     1       6.252   6.560  17.743  0.00  0.00    +0.000 C 
ENDBRANCH   1  18
BRANCH   2  20
ATOM     20  S   UNL     1       3.004   7.970  17.617  0.00  0.00    +0.000 S 
BRANCH  20  21
ATOM     21  C   UNL     1       1.735   8.934  18.420  0.00  0.00    +0.000 A 
ATOM     22  C   UNL     1       1.785   9.436  19.721  0.00  0.00    +0.000 A 
ATOM     23  C   UNL     1       0.730  10.214  20.222  0.00  0.00    +0.000 A 
ATOM     24  C   UNL     1      -0.388  10.522  19.427  0.00  0.00    +0.000 A 
ATOM     25  C   UNL     1      -1.451  11.313  19.902  0.00  0.00    +0.000 A 
ATOM     26  C   UNL     1      -2.541  11.617  19.079  0.00  0.00    +0.000 A 
ATOM     27  C   UNL     1      -2.584  11.136  17.775  0.00  0.00    +0.000 A 
ATOM     28  C   UNL     1      -1.541  10.346  17.291  0.00  0.00    +0.000 A 
ATOM     29  C   UNL     1      -0.441  10.033  18.107  0.00  0.00    +0.000 A 
ATOM     30  C   UNL     1       0.619   9.244  17.627  0.00  0.00    +0.000 A 
ENDBRANCH  20  21
ENDBRANCH   2  20
TORSDOF 3
ENDMDL
MODEL 8
REMARK VINA RESULT:      -8.3      2.622      4.675
REMARK  Name = 
REMARK  5 active torsions:
REMARK  status: ('A' for Active; 'I' for Inactive)
REMARK    1  A    between atoms: C_1  and  C_2
REMARK    2  A    between atoms: C_2  and  C_3
REMARK    3  A    between atoms: C_2  and  C_4
REMARK    4  A    between atoms: C_5  and  S_6
REMARK    5  A    between atoms: S_6  and  C_7
REMARK                            x       y       z     vdW  Elec       q    Type
REMARK                         _______ _______ _______ _____ _____    ______ ____
ROOT
ATOM      1  C   UNL     1       1.522   8.180  20.065  0.00  0.00    +0.000 A 
ATOM      2  C   UNL     1       1.545   9.184  19.102  0.00  0.00    +0.000 A 
ATOM      3  N   UNL     1       2.274   8.755  18.032  0.00  0.00    +0.000 N 
ATOM      4  C   UNL     1       2.731   7.491  18.261  0.00  0.00    +0.000 A 
ATOM      5  N   UNL     1       3.487   6.797  17.399  0.00  0.00    +0.000 NA
ATOM      6  C   UNL     1       3.809   5.587  17.862  0.00  0.00    +0.000 A 
ATOM      7  N   UNL     1       4.578   4.779  17.044  0.00  0.00    +0.000 N 
ATOM      8  N   UNL     1       3.493   5.084  19.062  0.00  0.00    +0.000 NA
ATOM      9  C   UNL     1       2.745   5.814  19.916  0.00  0.00    +0.000 A 
ATOM     10  N   UNL     1       2.487   5.217  21.144  0.00  0.00    +0.000 N 
ATOM     11  C   UNL     1       2.300   7.087  19.517  0.00  0.00    +0.000 A 
ATOM     12  H   UNL     1       2.497   9.302  17.213  0.00  0.00    +0.000 HD
ATOM     13  H   UNL     1       5.132   5.353  16.425  0.00  0.00    +0.000 HD
ATOM     14  H   UNL     1       5.069   4.105  17.614  0.00  0.00    +0.000 HD
ATOM     15  H   UNL     1       2.713   4.228  21.095  0.00  0.00    +0.000 HD
ATOM     16  H   UNL     1       1.586   5.428  21.544  0.00  0.00    +0.000 HD
ENDROOT
BRANCH   1  18
ATOM     17  C   UNL     1       1.522   9.239  22.370  0.00  0.00    +0.000 C 
ATOM     18  C   UNL     1       0.871   8.224  21.429  0.00  0.00    +0.000 C 
ATOM     19  C   UNL     1      -0.644   8.429  21.343  0.00  0.00    +0.000 C 
ENDBRANCH   1  18
BRANCH   2  20
ATOM     20  S   UNL     1       1.026  10.834  19.133  0.00  0.00    +0.000 S 
BRANCH  20  21
ATOM     21  C   UNL     1      -0.673  10.820  18.587  0.00  0.00    +0.000 A 
ATOM     22  C   UNL     1      -1.200  10.034  17.563  0.00  0.00    +0.000 A 
ATOM     23  C   UNL     1      -2.568  10.093  17.255  0.00  0.00    +0.000 A 
ATOM     24  C   UNL     1      -3.441  10.926  17.977  0.00  0.00    +0.000 A 
ATOM     25  C   UNL     1      -4.818  10.991  17.698  0.00  0.00    +0.000 A 
ATOM     26  C   UNL     1      -5.663  11.817  18.448  0.00  0.00    +0.000 A 
ATOM     27  C   UNL     1      -5.145  12.586  19.483  0.00  0.00    +0.000 A 
ATOM     28  C   UNL     1      -3.780  12.537  19.769  0.00  0.00    +0.000 A 
ATOM     29  C   UNL     1      -2.921  11.713  19.024  0.00  0.00    +0.000 A 
ATOM     30  C   UNL     1      -1.546  11.651  19.309  0.00  0.00    +0.000 A 
ENDBRANCH  20  21
ENDBRANCH   2  20
TORSDOF 3
ENDMDL
MODEL 9
REMARK VINA RESULT:      -8.2      4.117      8.266
REMARK  Name = 
REMARK  5 active torsions:
REMARK  status: ('A' for Active; 'I' for Inactive)
REMARK    1  A    between atoms: C_1  and  C_2
REMARK    2  A    between atoms: C_2  and  C_3
REMARK    3  A    between atoms: C_2  and  C_4
REMARK    4  A    between atoms: C_5  and  S_6
REMARK    5  A    between atoms: S_6  and  C_7
REMARK                            x       y       z     vdW  Elec       q    Type
REMARK                         _______ _______ _______ _____ _____    ______ ____
ROOT
ATOM      1  C   UNL     1      -1.796  11.804  19.117  0.00  0.00    +0.000 A 
ATOM      2  C   UNL     1      -0.601  11.150  18.841  0.00  0.00    +0.000 A 
ATOM      3  N   UNL     1      -0.723  10.482  17.657  0.00  0.00    +0.000 N 
ATOM      4  C   UNL     1      -1.969  10.682  17.142  0.00  0.00    +0.000 A 
ATOM      5  N   UNL     1      -2.401  10.149  15.991  0.00  0.00    +0.000 NA
ATOM      6  C   UNL     1      -3.661  10.491  15.711  0.00  0.00    +0.000 A 
ATOM      7  N   UNL     1      -4.203  10.005  14.535  0.00  0.00    +0.000 N 
ATOM      8  N   UNL     1      -4.474  11.230  16.476  0.00  0.00    +0.000 NA
ATOM      9  C   UNL     1      -4.016  11.739  17.639  0.00  0.00    +0.000 A 
ATOM     10  N   UNL     1      -4.938  12.475  18.373  0.00  0.00    +0.000 N 
ATOM     11  C   UNL     1      -2.684  11.490  18.016  0.00  0.00    +0.000 A 
ATOM     12  H   UNL     1      -0.024   9.882  17.244  0.00  0.00    +0.000 HD
ATOM     13  H   UNL     1      -3.743   9.143  14.279  0.00  0.00    +0.000 HD
ATOM     14  H   UNL     1      -5.210   9.986  14.619  0.00  0.00    +0.000 HD
ATOM     15  H   UNL     1      -5.736  12.699  17.787  0.00  0.00    +0.000 HD
ATOM     16  H   UNL     1      -4.555  13.252  18.888  0.00  0.00    +0.000 HD
ENDROOT
BRANCH   1  18
ATOM     17  C   UNL     1      -1.882  11.891  21.651  0.00  0.00    +0.000 C 
ATOM     18  C   UNL     1      -2.136  12.632  20.336  0.00  0.00    +0.000 C 
ATOM     19  C   UNL     1      -1.447  13.999  20.321  0.00  0.00    +0.000 C 
ENDBRANCH   1  18
BRANCH   2  20
ATOM     20  S   UNL     1       0.825  10.888  19.786  0.00  0.00    +0.000 S 
BRANCH  20  21
ATOM     21  C   UNL     1       1.534   9.364  19.188  0.00  0.00    +0.000 A 
ATOM     22  C   UNL     1       2.196   9.188  17.973  0.00  0.00    +0.000 A 
ATOM     23  C   UNL     1       2.741   7.940  17.636  0.00  0.00    +0.000 A 
ATOM     24  C   UNL     1       2.652   6.846  18.516  0.00  0.00    +0.000 A 
ATOM     25  C   UNL     1       3.203   5.588  18.208  0.00  0.00    +0.000 A 
ATOM     26  C   UNL     1       3.114   4.525  19.113  0.00  0.00    +0.000 A 
ATOM     27  C   UNL     1       2.473   4.704  20.334  0.00  0.00    +0.000 A 
ATOM     28  C   UNL     1       1.916   5.942  20.652  0.00  0.00    +0.000 A 
ATOM     29  C   UNL     1       1.998   7.018  19.752  0.00  0.00    +0.000 A 
ATOM     30  C   UNL     1       1.447   8.272  20.066  0.00  0.00    +0.000 A 
ENDBRANCH  20  21
ENDBRANCH   2  20
TORSDOF 3
ENDMDL
