MODEL 1
REMARK VINA RESULT:      -7.4      0.000      0.000
REMARK  Name = 
REMARK  4 active torsions:
REMARK  status: ('A' for Active; 'I' for Inactive)
REMARK    1  A    between atoms: C_1  and  C_2
REMARK    2  A    between atoms: C_4  and  C_5
REMARK    3  A    between atoms: C_12  and  C_13
REMARK    4  A    between atoms: N_15  and  N_16
REMARK                            x       y       z     vdW  Elec       q    Type
REMARK                         _______ _______ _______ _____ _____    ______ ____
ROOT
ATOM      1  C   UNL     1       7.895   4.976  18.236  0.00  0.00    +0.000 C 
ATOM      2  C   UNL     1       6.495   4.574  17.932  0.00  0.00    +0.000 A 
ATOM      3  N   UNL     1       5.639   4.360  19.004  0.00  0.00    +0.000 NA
ATOM      4  C   UNL     1       4.445   3.977  18.594  0.00  0.00    +0.000 A 
ATOM      5  S   UNL     1       4.285   3.907  16.886  0.00  0.00    +0.000 S 
ATOM      6  C   UNL     1       5.926   4.370  16.685  0.00  0.00    +0.000 A 
ENDROOT
BRANCH   4   7
ATOM      7  C   UNL     1       3.337   3.616  19.500  0.00  0.00    +0.000 A 
ATOM      8  C   UNL     1       2.067   4.174  19.272  0.00  0.00    +0.000 A 
ATOM      9  C   UNL     1       0.995   3.909  20.129  0.00  0.00    +0.000 A 
ATOM     10  C   UNL     1       1.173   3.077  21.230  0.00  0.00    +0.000 A 
ATOM     11  C   UNL     1       2.417   2.501  21.465  0.00  0.00    +0.000 A 
ATOM     12  C   UNL     1       3.490   2.765  20.608  0.00  0.00    +0.000 A 
ENDBRANCH   4   7
BRANCH   6  13
ATOM     13  C   UNL     1       6.522   4.511  15.369  0.00  0.00    +0.000 C 
ATOM     14  O   UNL     1       7.336   5.388  15.075  0.00  0.00    +0.000 OA
ATOM     15  N   UNL     1       6.112   3.569  14.421  0.00  0.00    +0.000 N 
ATOM     16  H   UNL     1       5.522   2.793  14.716  0.00  0.00    +0.000 HD
BRANCH  15  17
ATOM     17  N   UNL     1       6.657   3.562  13.119  0.00  0.00    +0.000 NA
ATOM     18  H   UNL     1       7.639   3.265  13.203  0.00  0.00    +0.000 HD
ATOM     19  H   UNL     1       6.714   4.531  12.795  0.00  0.00    +0.000 HD
ENDBRANCH  15  17
ENDBRANCH   6  13
TORSDOF 3
ENDMDL
MODEL 2
REMARK VINA RESULT:      -7.4      0.093      1.206
REMARK  Name = 
REMARK  4 active torsions:
REMARK  status: ('A' for Active; 'I' for Inactive)
REMARK    1  A    between atoms: C_1  and  C_2
REMARK    2  A    between atoms: C_4  and  C_5
REMARK    3  A    between atoms: C_12  and  C_13
REMARK    4  A    between atoms: N_15  and  N_16
REMARK                            x       y       z     vdW  Elec       q    Type
REMARK                         _______ _______ _______ _____ _____    ______ ____
ROOT
ATOM      1  C   UNL     1       7.890   5.050  18.275  0.00  0.00    +0.000 C 
ATOM      2  C   UNL     1       6.491   4.649  17.965  0.00  0.00    +0.000 A 
ATOM      3  N   UNL     1       5.621   4.471  19.032  0.00  0.00    +0.000 NA
ATOM      4  C   UNL     1       4.430   4.084  18.618  0.00  0.00    +0.000 A 
ATOM      5  S   UNL     1       4.291   3.967  16.910  0.00  0.00    +0.000 S 
ATOM      6  C   UNL     1       5.936   4.413  16.717  0.00  0.00    +0.000 A 
ENDROOT
BRANCH   4   7
ATOM      7  C   UNL     1       3.307   3.756  19.520  0.00  0.00    +0.000 A 
ATOM      8  C   UNL     1       3.535   2.875  20.590  0.00  0.00    +0.000 A 
ATOM      9  C   UNL     1       2.498   2.488  21.444  0.00  0.00    +0.000 A 
ATOM     10  C   UNL     1       1.212   2.978  21.242  0.00  0.00    +0.000 A 
ATOM     11  C   UNL     1       0.967   3.864  20.198  0.00  0.00    +0.000 A 
ATOM     12  C   UNL     1       2.005   4.253  19.345  0.00  0.00    +0.000 A 
ENDBRANCH   4   7
BRANCH   6  13
ATOM     13  C   UNL     1       6.550   4.513  15.405  0.00  0.00    +0.000 C 
ATOM     14  O   UNL     1       7.403   5.351  15.109  0.00  0.00    +0.000 OA
ATOM     15  N   UNL     1       6.110   3.576  14.465  0.00  0.00    +0.000 N 
ATOM     16  H   UNL     1       5.486   2.829  14.764  0.00  0.00    +0.000 HD
BRANCH  15  17
ATOM     17  N   UNL     1       6.666   3.530  13.169  0.00  0.00    +0.000 NA
ATOM     18  H   UNL     1       7.376   4.273  13.117  0.00  0.00    +0.000 HD
ATOM     19  H   UNL     1       5.944   3.825  12.505  0.00  0.00    +0.000 HD
ENDBRANCH  15  17
ENDBRANCH   6  13
TORSDOF 3
ENDMDL
MODEL 3
REMARK VINA RESULT:      -7.4      1.031      1.584
REMARK  Name = 
REMARK  4 active torsions:
REMARK  status: ('A' for Active; 'I' for Inactive)
REMARK    1  A    between atoms: C_1  and  C_2
REMARK    2  A    between atoms: C_4  and  C_5
REMARK    3  A    between atoms: C_12  and  C_13
REMARK    4  A    between atoms: N_15  and  N_16
REMARK                            x       y       z     vdW  Elec       q    Type
REMARK                         _______ _______ _______ _____ _____    ______ ____
ROOT
ATOM      1  C   UNL     1       7.879   4.910  18.151  0.00  0.00    +0.000 C 
ATOM      2  C   UNL     1       6.465   4.537  17.876  0.00  0.00    +0.000 A 
ATOM      3  N   UNL     1       5.610   4.407  18.962  0.00  0.00    +0.000 NA
ATOM      4  C   UNL     1       4.403   4.040  18.578  0.00  0.00    +0.000 A 
ATOM      5  S   UNL     1       4.230   3.883  16.877  0.00  0.00    +0.000 S 
ATOM      6  C   UNL     1       5.882   4.283  16.644  0.00  0.00    +0.000 A 
ENDROOT
BRANCH   4   7
ATOM      7  C   UNL     1       3.289   3.762  19.508  0.00  0.00    +0.000 A 
ATOM      8  C   UNL     1       3.501   2.867  20.570  0.00  0.00    +0.000 A 
ATOM      9  C   UNL     1       2.469   2.527  21.449  0.00  0.00    +0.000 A 
ATOM     10  C   UNL     1       1.203   3.080  21.281  0.00  0.00    +0.000 A 
ATOM     11  C   UNL     1       0.974   3.980  20.246  0.00  0.00    +0.000 A 
ATOM     12  C   UNL     1       2.007   4.321  19.367  0.00  0.00    +0.000 A 
ENDBRANCH   4   7
BRANCH   6  13
ATOM     13  C   UNL     1       6.474   4.335  15.319  0.00  0.00    +0.000 C 
ATOM     14  O   UNL     1       6.200   3.546  14.414  0.00  0.00    +0.000 OA
ATOM     15  N   UNL     1       7.402   5.362  15.117  0.00  0.00    +0.000 N 
ATOM     16  H   UNL     1       7.531   6.063  15.845  0.00  0.00    +0.000 HD
BRANCH  15  17
ATOM     17  N   UNL     1       8.010   5.556  13.859  0.00  0.00    +0.000 NA
ATOM     18  H   UNL     1       7.257   5.767  13.189  0.00  0.00    +0.000 HD
ATOM     19  H   UNL     1       8.381   4.656  13.545  0.00  0.00    +0.000 HD
ENDBRANCH  15  17
ENDBRANCH   6  13
TORSDOF 3
ENDMDL
MODEL 4
REMARK VINA RESULT:      -7.3      1.474      1.568
REMARK  Name = 
REMARK  4 active torsions:
REMARK  status: ('A' for Active; 'I' for Inactive)
REMARK    1  A    between atoms: C_1  and  C_2
REMARK    2  A    between atoms: C_4  and  C_5
REMARK    3  A    between atoms: C_12  and  C_13
REMARK    4  A    between atoms: N_15  and  N_16
REMARK                            x       y       z     vdW  Elec       q    Type
REMARK                         _______ _______ _______ _____ _____    ______ ____
ROOT
ATOM      1  C   UNL     1       7.789   5.525  19.489  0.00  0.00    +0.000 C 
ATOM      2  C   UNL     1       6.514   5.265  18.767  0.00  0.00    +0.000 A 
ATOM      3  N   UNL     1       5.447   4.767  19.502  0.00  0.00    +0.000 NA
ATOM      4  C   UNL     1       4.397   4.551  18.735  0.00  0.00    +0.000 A 
ATOM      5  S   UNL     1       4.634   4.988  17.091  0.00  0.00    +0.000 S 
ATOM      6  C   UNL     1       6.255   5.448  17.418  0.00  0.00    +0.000 A 
ENDROOT
BRANCH   4   7
ATOM      7  C   UNL     1       3.128   3.968  19.215  0.00  0.00    +0.000 A 
ATOM      8  C   UNL     1       2.354   3.204  18.325  0.00  0.00    +0.000 A 
ATOM      9  C   UNL     1       1.120   2.673  18.709  0.00  0.00    +0.000 A 
ATOM     10  C   UNL     1       0.637   2.895  19.995  0.00  0.00    +0.000 A 
ATOM     11  C   UNL     1       1.393   3.635  20.898  0.00  0.00    +0.000 A 
ATOM     12  C   UNL     1       2.629   4.165  20.514  0.00  0.00    +0.000 A 
ENDBRANCH   4   7
BRANCH   6  13
ATOM     13  C   UNL     1       7.129   5.954  16.375  0.00  0.00    +0.000 C 
ATOM     14  O   UNL     1       7.793   6.987  16.477  0.00  0.00    +0.000 OA
ATOM     15  N   UNL     1       7.181   5.182  15.210  0.00  0.00    +0.000 N 
ATOM     16  H   UNL     1       6.707   4.281  15.192  0.00  0.00    +0.000 HD
BRANCH  15  17
ATOM     17  N   UNL     1       8.033   5.533  14.142  0.00  0.00    +0.000 NA
ATOM     18  H   UNL     1       7.432   5.735  13.330  0.00  0.00    +0.000 HD
ATOM     19  H   UNL     1       8.554   4.697  13.867  0.00  0.00    +0.000 HD
ENDBRANCH  15  17
ENDBRANCH   6  13
TORSDOF 3
ENDMDL
MODEL 5
REMARK VINA RESULT:      -7.3      1.513      1.521
REMARK  Name = 
REMARK  4 active torsions:
REMARK  status: ('A' for Active; 'I' for Inactive)
REMARK    1  A    between atoms: C_1  and  C_2
REMARK    2  A    between atoms: C_4  and  C_5
REMARK    3  A    between atoms: C_12  and  C_13
REMARK    4  A    between atoms: N_15  and  N_16
REMARK                            x       y       z     vdW  Elec       q    Type
REMARK                         _______ _______ _______ _____ _____    ______ ____
ROOT
ATOM      1  C   UNL     1       7.929   5.622  19.534  0.00  0.00    +0.000 C 
ATOM      2  C   UNL     1       6.636   5.349  18.850  0.00  0.00    +0.000 A 
ATOM      3  N   UNL     1       5.589   4.862  19.621  0.00  0.00    +0.000 NA
ATOM      4  C   UNL     1       4.520   4.632  18.884  0.00  0.00    +0.000 A 
ATOM      5  S   UNL     1       4.714   5.041  17.228  0.00  0.00    +0.000 S 
ATOM      6  C   UNL     1       6.341   5.508  17.505  0.00  0.00    +0.000 A 
ENDROOT
BRANCH   4   7
ATOM      7  C   UNL     1       3.264   4.056  19.408  0.00  0.00    +0.000 A 
ATOM      8  C   UNL     1       2.395   4.882  20.140  0.00  0.00    +0.000 A 
ATOM      9  C   UNL     1       1.219   4.377  20.704  0.00  0.00    +0.000 A 
ATOM     10  C   UNL     1       0.891   3.035  20.542  0.00  0.00    +0.000 A 
ATOM     11  C   UNL     1       1.729   2.203  19.807  0.00  0.00    +0.000 A 
ATOM     12  C   UNL     1       2.905   2.708  19.242  0.00  0.00    +0.000 A 
ENDBRANCH   4   7
BRANCH   6  13
ATOM     13  C   UNL     1       7.188   5.997  16.431  0.00  0.00    +0.000 C 
ATOM     14  O   UNL     1       7.855   7.030  16.499  0.00  0.00    +0.000 OA
ATOM     15  N   UNL     1       7.207   5.207  15.277  0.00  0.00    +0.000 N 
ATOM     16  H   UNL     1       6.732   4.306  15.286  0.00  0.00    +0.000 HD
BRANCH  15  17
ATOM     17  N   UNL     1       8.030   5.540  14.180  0.00  0.00    +0.000 NA
ATOM     18  H   UNL     1       7.817   4.870  13.428  0.00  0.00    +0.000 HD
ATOM     19  H   UNL     1       8.998   5.330  14.437  0.00  0.00    +0.000 HD
ENDBRANCH  15  17
ENDBRANCH   6  13
TORSDOF 3
ENDMDL
MODEL 6
REMARK VINA RESULT:      -7.2      1.116      1.116
REMARK  Name = 
REMARK  4 active torsions:
REMARK  status: ('A' for Active; 'I' for Inactive)
REMARK    1  A    between atoms: C_1  and  C_2
REMARK    2  A    between atoms: C_4  and  C_5
REMARK    3  A    between atoms: C_12  and  C_13
REMARK    4  A    between atoms: N_15  and  N_16
REMARK                            x       y       z     vdW  Elec       q    Type
REMARK                         _______ _______ _______ _____ _____    ______ ____
ROOT
ATOM      1  C   UNL     1       7.789   5.245  18.457  0.00  0.00    +0.000 C 
ATOM      2  C   UNL     1       6.342   5.004  18.204  0.00  0.00    +0.000 A 
ATOM      3  N   UNL     1       5.578   4.512  19.254  0.00  0.00    +0.000 NA
ATOM      4  C   UNL     1       4.328   4.313  18.882  0.00  0.00    +0.000 A 
ATOM      5  S   UNL     1       4.005   4.760  17.256  0.00  0.00    +0.000 S 
ATOM      6  C   UNL     1       5.647   5.200  17.021  0.00  0.00    +0.000 A 
ENDROOT
BRANCH   4   7
ATOM      7  C   UNL     1       3.287   3.740  19.759  0.00  0.00    +0.000 A 
ATOM      8  C   UNL     1       1.965   4.198  19.629  0.00  0.00    +0.000 A 
ATOM      9  C   UNL     1       0.949   3.730  20.467  0.00  0.00    +0.000 A 
ATOM     10  C   UNL     1       1.238   2.791  21.452  0.00  0.00    +0.000 A 
ATOM     11  C   UNL     1       2.537   2.311  21.588  0.00  0.00    +0.000 A 
ATOM     12  C   UNL     1       3.553   2.779  20.749  0.00  0.00    +0.000 A 
ENDBRANCH   4   7
BRANCH   6  13
ATOM     13  C   UNL     1       6.126   5.704  15.747  0.00  0.00    +0.000 C 
ATOM     14  O   UNL     1       5.583   6.616  15.122  0.00  0.00    +0.000 OA
ATOM     15  N   UNL     1       7.276   5.082  15.250  0.00  0.00    +0.000 N 
ATOM     16  H   UNL     1       7.765   4.407  15.835  0.00  0.00    +0.000 HD
BRANCH  15  17
ATOM     17  N   UNL     1       7.876   5.513  14.048  0.00  0.00    +0.000 NA
ATOM     18  H   UNL     1       8.892   5.546  14.212  0.00  0.00    +0.000 HD
ATOM     19  H   UNL     1       7.614   6.491  13.898  0.00  0.00    +0.000 HD
ENDBRANCH  15  17
ENDBRANCH   6  13
TORSDOF 3
ENDMDL
MODEL 7
REMARK VINA RESULT:      -7.0      3.919      5.527
REMARK  Name = 
REMARK  4 active torsions:
REMARK  status: ('A' for Active; 'I' for Inactive)
REMARK    1  A    between atoms: C_1  and  C_2
REMARK    2  A    between atoms: C_4  and  C_5
REMARK    3  A    between atoms: C_12  and  C_13
REMARK    4  A    between atoms: N_15  and  N_16
REMARK                            x       y       z     vdW  Elec       q    Type
REMARK                         _______ _______ _______ _____ _____    ______ ____
ROOT
ATOM      1  C   UNL     1       1.589   3.105  21.544  0.00  0.00    +0.000 C 
ATOM      2  C   UNL     1       2.254   4.073  20.631  0.00  0.00    +0.000 A 
ATOM      3  N   UNL     1       1.751   5.366  20.585  0.00  0.00    +0.000 NA
ATOM      4  C   UNL     1       2.409   6.104  19.712  0.00  0.00    +0.000 A 
ATOM      5  S   UNL     1       3.704   5.282  18.941  0.00  0.00    +0.000 S 
ATOM      6  C   UNL     1       3.330   3.838  19.789  0.00  0.00    +0.000 A 
ENDROOT
BRANCH   4   7
ATOM      7  C   UNL     1       2.071   7.506  19.395  0.00  0.00    +0.000 A 
ATOM      8  C   UNL     1       1.424   8.284  20.369  0.00  0.00    +0.000 A 
ATOM      9  C   UNL     1       1.034   9.600  20.105  0.00  0.00    +0.000 A 
ATOM     10  C   UNL     1       1.286  10.163  18.858  0.00  0.00    +0.000 A 
ATOM     11  C   UNL     1       1.939   9.417  17.883  0.00  0.00    +0.000 A 
ATOM     12  C   UNL     1       2.331   8.101  18.148  0.00  0.00    +0.000 A 
ENDBRANCH   4   7
BRANCH   6  13
ATOM     13  C   UNL     1       4.095   2.619  19.594  0.00  0.00    +0.000 C 
ATOM     14  O   UNL     1       5.079   2.312  20.269  0.00  0.00    +0.000 OA
ATOM     15  N   UNL     1       3.642   1.785  18.568  0.00  0.00    +0.000 N 
ATOM     16  H   UNL     1       2.767   2.009  18.097  0.00  0.00    +0.000 HD
BRANCH  15  17
ATOM     17  N   UNL     1       4.263   0.545  18.310  0.00  0.00    +0.000 NA
ATOM     18  H   UNL     1       3.985   0.259  17.360  0.00  0.00    +0.000 HD
ATOM     19  H   UNL     1       3.833  -0.156  18.919  0.00  0.00    +0.000 HD
ENDBRANCH  15  17
ENDBRANCH   6  13
TORSDOF 3
ENDMDL
MODEL 8
REMARK VINA RESULT:      -6.9      1.276      1.442
REMARK  Name = 
REMARK  4 active torsions:
REMARK  status: ('A' for Active; 'I' for Inactive)
REMARK    1  A    between atoms: C_1  and  C_2
REMARK    2  A    between atoms: C_4  and  C_5
REMARK    3  A    between atoms: C_12  and  C_13
REMARK    4  A    between atoms: N_15  and  N_16
REMARK                            x       y       z     vdW  Elec       q    Type
REMARK                         _______ _______ _______ _____ _____    ______ ____
ROOT
ATOM      1  C   UNL     1       7.090   6.829  17.336  0.00  0.00    +0.000 C 
ATOM      2  C   UNL     1       6.006   5.823  17.172  0.00  0.00    +0.000 A 
ATOM      3  N   UNL     1       5.047   5.740  18.171  0.00  0.00    +0.000 NA
ATOM      4  C   UNL     1       4.171   4.788  17.916  0.00  0.00    +0.000 A 
ATOM      5  S   UNL     1       4.438   3.979  16.425  0.00  0.00    +0.000 S 
ATOM      6  C   UNL     1       5.837   4.927  16.128  0.00  0.00    +0.000 A 
ENDROOT
BRANCH   4   7
ATOM      7  C   UNL     1       3.065   4.417  18.822  0.00  0.00    +0.000 A 
ATOM      8  C   UNL     1       3.011   5.001  20.098  0.00  0.00    +0.000 A 
ATOM      9  C   UNL     1       2.018   4.648  21.016  0.00  0.00    +0.000 A 
ATOM     10  C   UNL     1       1.056   3.703  20.671  0.00  0.00    +0.000 A 
ATOM     11  C   UNL     1       1.081   3.124  19.406  0.00  0.00    +0.000 A 
ATOM     12  C   UNL     1       2.074   3.478  18.488  0.00  0.00    +0.000 A 
ENDBRANCH   4   7
BRANCH   6  13
ATOM     13  C   UNL     1       6.638   4.748  14.931  0.00  0.00    +0.000 C 
ATOM     14  O   UNL     1       7.739   5.274  14.758  0.00  0.00    +0.000 OA
ATOM     15  N   UNL     1       6.078   3.922  13.952  0.00  0.00    +0.000 N 
ATOM     16  H   UNL     1       5.220   3.417  14.163  0.00  0.00    +0.000 HD
BRANCH  15  17
ATOM     17  N   UNL     1       6.778   3.623  12.764  0.00  0.00    +0.000 NA
ATOM     18  H   UNL     1       6.082   3.570  12.007  0.00  0.00    +0.000 HD
ATOM     19  H   UNL     1       7.137   2.667  12.842  0.00  0.00    +0.000 HD
ENDBRANCH  15  17
ENDBRANCH   6  13
TORSDOF 3
ENDMDL
MODEL 9
REMARK VINA RESULT:      -6.9      3.778      5.181
REMARK  Name = 
REMARK  4 active torsions:
REMARK  status: ('A' for Active; 'I' for Inactive)
REMARK    1  A    between atoms: C_1  and  C_2
REMARK    2  A    between atoms: C_4  and  C_5
REMARK    3  A    between atoms: C_12  and  C_13
REMARK    4  A    between atoms: N_15  and  N_16
REMARK                            x       y       z     vdW  Elec       q    Type
REMARK                         _______ _______ _______ _____ _____    ______ ____
ROOT
ATOM      1  C   UNL     1       4.897   4.034  16.354  0.00  0.00    +0.000 C 
ATOM      2  C   UNL     1       4.061   4.522  17.484  0.00  0.00    +0.000 A 
ATOM      3  N   UNL     1       3.594   5.828  17.423  0.00  0.00    +0.000 NA
ATOM      4  C   UNL     1       2.900   6.138  18.501  0.00  0.00    +0.000 A 
ATOM      5  S   UNL     1       2.735   4.846  19.619  0.00  0.00    +0.000 S 
ATOM      6  C   UNL     1       3.691   3.826  18.624  0.00  0.00    +0.000 A 
ENDROOT
BRANCH   4   7
ATOM      7  C   UNL     1       2.324   7.474  18.756  0.00  0.00    +0.000 A 
ATOM      8  C   UNL     1       1.805   7.755  20.032  0.00  0.00    +0.000 A 
ATOM      9  C   UNL     1       1.200   8.983  20.314  0.00  0.00    +0.000 A 
ATOM     10  C   UNL     1       1.106   9.955  19.324  0.00  0.00    +0.000 A 
ATOM     11  C   UNL     1       1.626   9.705  18.059  0.00  0.00    +0.000 A 
ATOM     12  C   UNL     1       2.232   8.477  17.776  0.00  0.00    +0.000 A 
ENDBRANCH   4   7
BRANCH   6  13
ATOM     13  C   UNL     1       3.993   2.457  19.003  0.00  0.00    +0.000 C 
ATOM     14  O   UNL     1       3.442   1.472  18.509  0.00  0.00    +0.000 OA
ATOM     15  N   UNL     1       4.974   2.310  19.988  0.00  0.00    +0.000 N 
ATOM     16  H   UNL     1       5.488   3.132  20.301  0.00  0.00    +0.000 HD
BRANCH  15  17
ATOM     17  N   UNL     1       5.400   1.032  20.407  0.00  0.00    +0.000 NA
ATOM     18  H   UNL     1       5.861   0.587  19.602  0.00  0.00    +0.000 HD
ATOM     19  H   UNL     1       4.567   0.459  20.567  0.00  0.00    +0.000 HD
ENDBRANCH  15  17
ENDBRANCH   6  13
TORSDOF 3
ENDMDL
