MODEL 1
REMARK VINA RESULT:      -6.7      0.000      0.000
REMARK  Name = 
REMARK  3 active torsions:
REMARK  status: ('A' for Active; 'I' for Inactive)
REMARK    1  A    between atoms: C_1  and  O_2
REMARK    2  A    between atoms: O_2  and  C_3
REMARK    3  A    between atoms: C_13  and  O_14
REMARK                            x       y       z     vdW  Elec       q    Type
REMARK                         _______ _______ _______ _____ _____    ______ ____
ROOT
ATOM      1  C   UNL     1       4.022   3.425  18.871  0.00  0.00    +0.000 A 
ATOM      2  C   UNL     1       4.376   4.446  17.990  0.00  0.00    +0.000 A 
ATOM      3  C   UNL     1       3.772   5.747  18.078  0.00  0.00    +0.000 A 
ATOM      4  C   UNL     1       2.898   6.111  19.132  0.00  0.00    +0.000 A 
ATOM      5  C   UNL     1       2.715   5.082  20.065  0.00  0.00    +0.000 A 
ATOM      6  C   UNL     1       3.204   3.786  19.918  0.00  0.00    +0.000 A 
ATOM      7  O   UNL     1       2.832   2.970  20.946  0.00  0.00    +0.000 OA
ATOM      8  C   UNL     1       2.190   3.881  21.830  0.00  0.00    +0.000 C 
ATOM      9  O   UNL     1       2.063   5.190  21.266  0.00  0.00    +0.000 OA
ATOM     10  C   UNL     1       2.289   7.487  19.187  0.00  0.00    +0.000 A 
ATOM     11  C   UNL     1       1.365   7.989  20.145  0.00  0.00    +0.000 A 
ATOM     12  C   UNL     1       0.846   9.289  20.113  0.00  0.00    +0.000 A 
ATOM     13  C   UNL     1       1.213  10.166  19.108  0.00  0.00    +0.000 A 
ATOM     14  C   UNL     1       2.083   9.726  18.134  0.00  0.00    +0.000 A 
ATOM     15  C   UNL     1       2.615   8.413  18.158  0.00  0.00    +0.000 A 
ATOM     16  C   UNL     1       3.501   8.070  16.987  0.00  0.00    +0.000 C 
ATOM     17  C   UNL     1       4.138   6.680  16.946  0.00  0.00    +0.000 C 
ATOM     18  N   UNL     1       5.604   6.799  16.811  0.00  0.00    +0.000 NA
ATOM     19  C   UNL     1       6.285   5.495  16.750  0.00  0.00    +0.000 C 
ATOM     20  C   UNL     1       5.398   4.244  16.889  0.00  0.00    +0.000 C 
ATOM     21  H   UNL     1       5.956   7.310  17.622  0.00  0.00    +0.000 HD
ENDROOT
BRANCH   1  23
ATOM     22  C   UNL     1       3.693   1.166  18.257  0.00  0.00    +0.000 C 
ATOM     23  O   UNL     1       4.582   2.193  18.696  0.00  0.00    +0.000 OA
ENDBRANCH   1  23
BRANCH  11  24
ATOM     24  O   UNL     1       0.834   7.300  21.205  0.00  0.00    +0.000 OA
ATOM     25  H   UNL     1      -0.038   6.958  20.938  0.00  0.00    +0.000 HD
ENDBRANCH  11  24
TORSDOF 2
ENDMDL
MODEL 2
REMARK VINA RESULT:      -6.7      7.437     10.156
REMARK  Name = 
REMARK  3 active torsions:
REMARK  status: ('A' for Active; 'I' for Inactive)
REMARK    1  A    between atoms: C_1  and  O_2
REMARK    2  A    between atoms: O_2  and  C_3
REMARK    3  A    between atoms: C_13  and  O_14
REMARK                            x       y       z     vdW  Elec       q    Type
REMARK                         _______ _______ _______ _____ _____    ______ ____
ROOT
ATOM      1  C   UNL     1      -1.635  13.182  22.429  0.00  0.00    +0.000 A 
ATOM      2  C   UNL     1      -2.970  13.165  22.029  0.00  0.00    +0.000 A 
ATOM      3  C   UNL     1      -3.352  12.686  20.729  0.00  0.00    +0.000 A 
ATOM      4  C   UNL     1      -2.430  12.083  19.839  0.00  0.00    +0.000 A 
ATOM      5  C   UNL     1      -1.139  11.993  20.374  0.00  0.00    +0.000 A 
ATOM      6  C   UNL     1      -0.744  12.562  21.583  0.00  0.00    +0.000 A 
ATOM      7  O   UNL     1       0.583  12.372  21.836  0.00  0.00    +0.000 OA
ATOM      8  C   UNL     1       0.970  11.516  20.769  0.00  0.00    +0.000 C 
ATOM      9  O   UNL     1      -0.083  11.317  19.820  0.00  0.00    +0.000 OA
ATOM     10  C   UNL     1      -2.875  11.593  18.486  0.00  0.00    +0.000 A 
ATOM     11  C   UNL     1      -2.070  11.011  17.468  0.00  0.00    +0.000 A 
ATOM     12  C   UNL     1      -2.572  10.586  16.232  0.00  0.00    +0.000 A 
ATOM     13  C   UNL     1      -3.915  10.730  15.934  0.00  0.00    +0.000 A 
ATOM     14  C   UNL     1      -4.740  11.315  16.871  0.00  0.00    +0.000 A 
ATOM     15  C   UNL     1      -4.241  11.747  18.125  0.00  0.00    +0.000 A 
ATOM     16  C   UNL     1      -5.259  12.421  19.010  0.00  0.00    +0.000 C 
ATOM     17  C   UNL     1      -4.811  12.896  20.393  0.00  0.00    +0.000 C 
ATOM     18  N   UNL     1      -5.683  12.316  21.434  0.00  0.00    +0.000 NA
ATOM     19  C   UNL     1      -5.319  12.743  22.795  0.00  0.00    +0.000 C 
ATOM     20  C   UNL     1      -4.088  13.658  22.928  0.00  0.00    +0.000 C 
ATOM     21  H   UNL     1      -5.604  11.299  21.382  0.00  0.00    +0.000 HD
ENDROOT
BRANCH   1  23
ATOM     22  C   UNL     1      -0.888  15.067  23.644  0.00  0.00    +0.000 C 
ATOM     23  O   UNL     1      -1.329  13.709  23.650  0.00  0.00    +0.000 OA
ENDBRANCH   1  23
BRANCH  11  24
ATOM     24  O   UNL     1      -0.716  10.799  17.519  0.00  0.00    +0.000 OA
ATOM     25  H   UNL     1      -0.557   9.970  18.005  0.00  0.00    +0.000 HD
ENDBRANCH  11  24
TORSDOF 2
ENDMDL
MODEL 3
REMARK VINA RESULT:      -6.4      5.388      8.429
REMARK  Name = 
REMARK  3 active torsions:
REMARK  status: ('A' for Active; 'I' for Inactive)
REMARK    1  A    between atoms: C_1  and  O_2
REMARK    2  A    between atoms: O_2  and  C_3
REMARK    3  A    between atoms: C_13  and  O_14
REMARK                            x       y       z     vdW  Elec       q    Type
REMARK                         _______ _______ _______ _____ _____    ______ ____
ROOT
ATOM      1  C   UNL     1      -0.024  10.040  19.146  0.00  0.00    +0.000 A 
ATOM      2  C   UNL     1       0.019  10.365  20.501  0.00  0.00    +0.000 A 
ATOM      3  C   UNL     1      -0.941  11.263  21.082  0.00  0.00    +0.000 A 
ATOM      4  C   UNL     1      -2.054  11.757  20.361  0.00  0.00    +0.000 A 
ATOM      5  C   UNL     1      -2.117  11.261  19.052  0.00  0.00    +0.000 A 
ATOM      6  C   UNL     1      -1.126  10.487  18.453  0.00  0.00    +0.000 A 
ATOM      7  O   UNL     1      -1.415  10.189  17.153  0.00  0.00    +0.000 OA
ATOM      8  C   UNL     1      -2.732  10.709  17.015  0.00  0.00    +0.000 C 
ATOM      9  O   UNL     1      -3.158  11.428  18.176  0.00  0.00    +0.000 OA
ATOM     10  C   UNL     1      -3.038  12.695  21.010  0.00  0.00    +0.000 A 
ATOM     11  C   UNL     1      -4.173  13.310  20.413  0.00  0.00    +0.000 A 
ATOM     12  C   UNL     1      -5.033  14.177  21.098  0.00  0.00    +0.000 A 
ATOM     13  C   UNL     1      -4.802  14.491  22.425  0.00  0.00    +0.000 A 
ATOM     14  C   UNL     1      -3.699  13.948  23.049  0.00  0.00    +0.000 A 
ATOM     15  C   UNL     1      -2.823  13.069  22.365  0.00  0.00    +0.000 A 
ATOM     16  C   UNL     1      -1.633  12.613  23.170  0.00  0.00    +0.000 C 
ATOM     17  C   UNL     1      -0.649  11.642  22.516  0.00  0.00    +0.000 C 
ATOM     18  N   UNL     1      -0.489  10.439  23.359  0.00  0.00    +0.000 NA
ATOM     19  C   UNL     1       0.459   9.463  22.798  0.00  0.00    +0.000 C 
ATOM     20  C   UNL     1       1.079   9.807  21.431  0.00  0.00    +0.000 C 
ATOM     21  H   UNL     1      -1.402   9.990  23.446  0.00  0.00    +0.000 HD
ENDROOT
BRANCH   1  23
ATOM     22  C   UNL     1       1.980   9.896  17.901  0.00  0.00    +0.000 C 
ATOM     23  O   UNL     1       0.954   9.234  18.639  0.00  0.00    +0.000 OA
ENDBRANCH   1  23
BRANCH  11  24
ATOM     24  O   UNL     1      -4.582  13.178  19.111  0.00  0.00    +0.000 OA
ATOM     25  H   UNL     1      -4.850  14.056  18.786  0.00  0.00    +0.000 HD
ENDBRANCH  11  24
TORSDOF 2
ENDMDL
MODEL 4
REMARK VINA RESULT:      -6.4      7.934     10.243
REMARK  Name = 
REMARK  3 active torsions:
REMARK  status: ('A' for Active; 'I' for Inactive)
REMARK    1  A    between atoms: C_1  and  O_2
REMARK    2  A    between atoms: O_2  and  C_3
REMARK    3  A    between atoms: C_13  and  O_14
REMARK                            x       y       z     vdW  Elec       q    Type
REMARK                         _______ _______ _______ _____ _____    ______ ____
ROOT
ATOM      1  C   UNL     1      -3.757  13.158  22.109  0.00  0.00    +0.000 A 
ATOM      2  C   UNL     1      -2.558  12.602  21.664  0.00  0.00    +0.000 A 
ATOM      3  C   UNL     1      -2.455  11.996  20.365  0.00  0.00    +0.000 A 
ATOM      4  C   UNL     1      -3.505  12.047  19.417  0.00  0.00    +0.000 A 
ATOM      5  C   UNL     1      -4.619  12.759  19.878  0.00  0.00    +0.000 A 
ATOM      6  C   UNL     1      -4.765  13.243  21.176  0.00  0.00    +0.000 A 
ATOM      7  O   UNL     1      -5.972  13.848  21.372  0.00  0.00    +0.000 OA
ATOM      8  C   UNL     1      -6.524  13.840  20.062  0.00  0.00    +0.000 C 
ATOM      9  O   UNL     1      -5.713  13.115  19.133  0.00  0.00    +0.000 OA
ATOM     10  C   UNL     1      -3.353  11.400  18.065  0.00  0.00    +0.000 A 
ATOM     11  C   UNL     1      -4.322  11.324  17.027  0.00  0.00    +0.000 A 
ATOM     12  C   UNL     1      -4.092  10.695  15.797  0.00  0.00    +0.000 A 
ATOM     13  C   UNL     1      -2.876  10.090  15.536  0.00  0.00    +0.000 A 
ATOM     14  C   UNL     1      -1.907  10.106  16.517  0.00  0.00    +0.000 A 
ATOM     15  C   UNL     1      -2.130  10.741  17.763  0.00  0.00    +0.000 A 
ATOM     16  C   UNL     1      -0.995  10.614  18.748  0.00  0.00    +0.000 C 
ATOM     17  C   UNL     1      -1.141  11.292  20.110  0.00  0.00    +0.000 C 
ATOM     18  N   UNL     1       0.000  12.198  20.350  0.00  0.00    +0.000 NA
ATOM     19  C   UNL     1      -0.066  12.877  21.655  0.00  0.00    +0.000 C 
ATOM     20  C   UNL     1      -1.306  12.592  22.521  0.00  0.00    +0.000 C 
ATOM     21  H   UNL     1       0.001  12.908  19.616  0.00  0.00    +0.000 HD
ENDROOT
BRANCH   1  23
ATOM     22  C   UNL     1      -4.389  12.800  24.359  0.00  0.00    +0.000 C 
ATOM     23  O   UNL     1      -3.809  13.659  23.377  0.00  0.00    +0.000 OA
ENDBRANCH   1  23
BRANCH  11  24
ATOM     24  O   UNL     1      -5.601  11.817  17.067  0.00  0.00    +0.000 OA
ATOM     25  H   UNL     1      -5.812  12.185  16.190  0.00  0.00    +0.000 HD
ENDBRANCH  11  24
TORSDOF 2
ENDMDL
MODEL 5
REMARK VINA RESULT:      -6.3      8.661     11.203
REMARK  Name = 
REMARK  3 active torsions:
REMARK  status: ('A' for Active; 'I' for Inactive)
REMARK    1  A    between atoms: C_1  and  O_2
REMARK    2  A    between atoms: O_2  and  C_3
REMARK    3  A    between atoms: C_13  and  O_14
REMARK                            x       y       z     vdW  Elec       q    Type
REMARK                         _______ _______ _______ _____ _____    ______ ____
ROOT
ATOM      1  C   UNL     1      -1.598  13.750  22.525  0.00  0.00    +0.000 A 
ATOM      2  C   UNL     1      -2.912  13.515  22.930  0.00  0.00    +0.000 A 
ATOM      3  C   UNL     1      -3.913  13.082  21.995  0.00  0.00    +0.000 A 
ATOM      4  C   UNL     1      -3.606  12.737  20.657  0.00  0.00    +0.000 A 
ATOM      5  C   UNL     1      -2.240  12.847  20.367  0.00  0.00    +0.000 A 
ATOM      6  C   UNL     1      -1.289  13.379  21.235  0.00  0.00    +0.000 A 
ATOM      7  O   UNL     1      -0.044  13.421  20.680  0.00  0.00    +0.000 OA
ATOM      8  C   UNL     1      -0.247  12.743  19.446  0.00  0.00    +0.000 C 
ATOM      9  O   UNL     1      -1.624  12.429  19.216  0.00  0.00    +0.000 OA
ATOM     10  C   UNL     1      -4.688  12.285  19.710  0.00  0.00    +0.000 A 
ATOM     11  C   UNL     1      -4.551  11.950  18.335  0.00  0.00    +0.000 A 
ATOM     12  C   UNL     1      -5.620  11.541  17.528  0.00  0.00    +0.000 A 
ATOM     13  C   UNL     1      -6.899  11.455  18.049  0.00  0.00    +0.000 A 
ATOM     14  C   UNL     1      -7.097  11.795  19.370  0.00  0.00    +0.000 A 
ATOM     15  C   UNL     1      -6.022  12.209  20.195  0.00  0.00    +0.000 A 
ATOM     16  C   UNL     1      -6.417  12.606  21.595  0.00  0.00    +0.000 C 
ATOM     17  C   UNL     1      -5.315  13.041  22.560  0.00  0.00    +0.000 C 
ATOM     18  N   UNL     1      -5.367  12.224  23.790  0.00  0.00    +0.000 NA
ATOM     19  C   UNL     1      -4.339  12.599  24.775  0.00  0.00    +0.000 C 
ATOM     20  C   UNL     1      -3.360  13.715  24.365  0.00  0.00    +0.000 C 
ATOM     21  H   UNL     1      -5.222  11.248  23.527  0.00  0.00    +0.000 HD
ENDROOT
BRANCH   1  23
ATOM     22  C   UNL     1      -0.442  15.624  23.384  0.00  0.00    +0.000 C 
ATOM     23  O   UNL     1      -0.709  14.223  23.445  0.00  0.00    +0.000 OA
ENDBRANCH   1  23
BRANCH  11  24
ATOM     24  O   UNL     1      -3.398  11.992  17.595  0.00  0.00    +0.000 OA
ATOM     25  H   UNL     1      -3.531  12.618  16.861  0.00  0.00    +0.000 HD
ENDBRANCH  11  24
TORSDOF 2
ENDMDL
MODEL 6
REMARK VINA RESULT:      -6.3      7.169      9.929
REMARK  Name = 
REMARK  3 active torsions:
REMARK  status: ('A' for Active; 'I' for Inactive)
REMARK    1  A    between atoms: C_1  and  O_2
REMARK    2  A    between atoms: O_2  and  C_3
REMARK    3  A    between atoms: C_13  and  O_14
REMARK                            x       y       z     vdW  Elec       q    Type
REMARK                         _______ _______ _______ _____ _____    ______ ____
ROOT
ATOM      1  C   UNL     1      -0.949  11.281  19.700  0.00  0.00    +0.000 A 
ATOM      2  C   UNL     1      -1.732  11.910  20.667  0.00  0.00    +0.000 A 
ATOM      3  C   UNL     1      -3.082  12.315  20.385  0.00  0.00    +0.000 A 
ATOM      4  C   UNL     1      -3.738  11.983  19.175  0.00  0.00    +0.000 A 
ATOM      5  C   UNL     1      -2.941  11.214  18.318  0.00  0.00    +0.000 A 
ATOM      6  C   UNL     1      -1.597  10.923  18.539  0.00  0.00    +0.000 A 
ATOM      7  O   UNL     1      -1.046  10.206  17.517  0.00  0.00    +0.000 OA
ATOM      8  C   UNL     1      -2.177   9.940  16.698  0.00  0.00    +0.000 C 
ATOM      9  O   UNL     1      -3.355  10.610  17.159  0.00  0.00    +0.000 OA
ATOM     10  C   UNL     1      -5.156  12.426  18.922  0.00  0.00    +0.000 A 
ATOM     11  C   UNL     1      -5.933  12.215  17.750  0.00  0.00    +0.000 A 
ATOM     12  C   UNL     1      -7.249  12.670  17.602  0.00  0.00    +0.000 A 
ATOM     13  C   UNL     1      -7.865  13.378  18.618  0.00  0.00    +0.000 A 
ATOM     14  C   UNL     1      -7.150  13.639  19.767  0.00  0.00    +0.000 A 
ATOM     15  C   UNL     1      -5.818  13.182  19.927  0.00  0.00    +0.000 A 
ATOM     16  C   UNL     1      -5.157  13.604  21.215  0.00  0.00    +0.000 C 
ATOM     17  C   UNL     1      -3.727  13.133  21.480  0.00  0.00    +0.000 C 
ATOM     18  N   UNL     1      -3.659  12.429  22.777  0.00  0.00    +0.000 NA
ATOM     19  C   UNL     1      -2.303  11.959  23.107  0.00  0.00    +0.000 C 
ATOM     20  C   UNL     1      -1.207  12.214  22.057  0.00  0.00    +0.000 C 
ATOM     21  H   UNL     1      -4.280  11.620  22.731  0.00  0.00    +0.000 HD
ENDROOT
BRANCH   1  23
ATOM     22  C   UNL     1       1.333  11.829  19.423  0.00  0.00    +0.000 C 
ATOM     23  O   UNL     1       0.346  10.980  20.007  0.00  0.00    +0.000 OA
ENDBRANCH   1  23
BRANCH  11  24
ATOM     24  O   UNL     1      -5.529  11.574  16.607  0.00  0.00    +0.000 OA
ATOM     25  H   UNL     1      -5.037  12.212  16.059  0.00  0.00    +0.000 HD
ENDBRANCH  11  24
TORSDOF 2
ENDMDL
MODEL 7
REMARK VINA RESULT:      -6.2      6.551      9.621
REMARK  Name = 
REMARK  3 active torsions:
REMARK  status: ('A' for Active; 'I' for Inactive)
REMARK    1  A    between atoms: C_1  and  O_2
REMARK    2  A    between atoms: O_2  and  C_3
REMARK    3  A    between atoms: C_13  and  O_14
REMARK                            x       y       z     vdW  Elec       q    Type
REMARK                         _______ _______ _______ _____ _____    ______ ____
ROOT
ATOM      1  C   UNL     1      -1.066  11.272  18.751  0.00  0.00    +0.000 A 
ATOM      2  C   UNL     1      -2.201  10.954  18.006  0.00  0.00    +0.000 A 
ATOM      3  C   UNL     1      -3.505  11.408  18.405  0.00  0.00    +0.000 A 
ATOM      4  C   UNL     1      -3.700  12.307  19.481  0.00  0.00    +0.000 A 
ATOM      5  C   UNL     1      -2.499  12.707  20.081  0.00  0.00    +0.000 A 
ATOM      6  C   UNL     1      -1.248  12.176  19.772  0.00  0.00    +0.000 A 
ATOM      7  O   UNL     1      -0.256  12.702  20.547  0.00  0.00    +0.000 OA
ATOM      8  C   UNL     1      -0.948  13.711  21.272  0.00  0.00    +0.000 C 
ATOM      9  O   UNL     1      -2.359  13.686  21.029  0.00  0.00    +0.000 OA
ATOM     10  C   UNL     1      -5.085  12.760  19.864  0.00  0.00    +0.000 A 
ATOM     11  C   UNL     1      -5.451  13.616  20.939  0.00  0.00    +0.000 A 
ATOM     12  C   UNL     1      -6.772  13.981  21.223  0.00  0.00    +0.000 A 
ATOM     13  C   UNL     1      -7.814  13.498  20.452  0.00  0.00    +0.000 A 
ATOM     14  C   UNL     1      -7.523  12.640  19.413  0.00  0.00    +0.000 A 
ATOM     15  C   UNL     1      -6.189  12.266  19.117  0.00  0.00    +0.000 A 
ATOM     16  C   UNL     1      -6.048  11.273  17.992  0.00  0.00    +0.000 C 
ATOM     17  C   UNL     1      -4.640  10.833  17.589  0.00  0.00    +0.000 C 
ATOM     18  N   UNL     1      -4.429  11.071  16.146  0.00  0.00    +0.000 NA
ATOM     19  C   UNL     1      -3.094  10.656  15.683  0.00  0.00    +0.000 C 
ATOM     20  C   UNL     1      -2.130  10.106  16.750  0.00  0.00    +0.000 C 
ATOM     21  H   UNL     1      -4.535  12.071  15.972  0.00  0.00    +0.000 HD
ENDROOT
BRANCH   1  23
ATOM     22  C   UNL     1       0.683   9.749  19.206  0.00  0.00    +0.000 C 
ATOM     23  O   UNL     1       0.135  10.757  18.357  0.00  0.00    +0.000 OA
ENDBRANCH   1  23
BRANCH  11  24
ATOM     24  O   UNL     1      -4.602  14.186  21.853  0.00  0.00    +0.000 OA
ATOM     25  H   UNL     1      -4.981  14.056  22.741  0.00  0.00    +0.000 HD
ENDBRANCH  11  24
TORSDOF 2
ENDMDL
MODEL 8
REMARK VINA RESULT:      -6.2      6.720      9.466
REMARK  Name = 
REMARK  3 active torsions:
REMARK  status: ('A' for Active; 'I' for Inactive)
REMARK    1  A    between atoms: C_1  and  O_2
REMARK    2  A    between atoms: O_2  and  C_3
REMARK    3  A    between atoms: C_13  and  O_14
REMARK                            x       y       z     vdW  Elec       q    Type
REMARK                         _______ _______ _______ _____ _____    ______ ____
ROOT
ATOM      1  C   UNL     1      -2.846  10.425  17.612  0.00  0.00    +0.000 A 
ATOM      2  C   UNL     1      -3.877  11.206  18.133  0.00  0.00    +0.000 A 
ATOM      3  C   UNL     1      -3.702  11.954  19.348  0.00  0.00    +0.000 A 
ATOM      4  C   UNL     1      -2.453  12.057  20.005  0.00  0.00    +0.000 A 
ATOM      5  C   UNL     1      -1.428  11.375  19.335  0.00  0.00    +0.000 A 
ATOM      6  C   UNL     1      -1.621  10.554  18.226  0.00  0.00    +0.000 A 
ATOM      7  O   UNL     1      -0.463   9.967  17.808  0.00  0.00    +0.000 OA
ATOM      8  C   UNL     1       0.504  10.589  18.644  0.00  0.00    +0.000 C 
ATOM      9  O   UNL     1      -0.093  11.428  19.638  0.00  0.00    +0.000 OA
ATOM     10  C   UNL     1      -2.314  12.855  21.276  0.00  0.00    +0.000 A 
ATOM     11  C   UNL     1      -1.149  13.016  22.075  0.00  0.00    +0.000 A 
ATOM     12  C   UNL     1      -1.115  13.778  23.249  0.00  0.00    +0.000 A 
ATOM     13  C   UNL     1      -2.255  14.417  23.703  0.00  0.00    +0.000 A 
ATOM     14  C   UNL     1      -3.423  14.272  22.985  0.00  0.00    +0.000 A 
ATOM     15  C   UNL     1      -3.467  13.504  21.795  0.00  0.00    +0.000 A 
ATOM     16  C   UNL     1      -4.832  13.395  21.166  0.00  0.00    +0.000 C 
ATOM     17  C   UNL     1      -4.966  12.605  19.863  0.00  0.00    +0.000 C 
ATOM     18  N   UNL     1      -5.591  13.446  18.823  0.00  0.00    +0.000 NA
ATOM     19  C   UNL     1      -5.766  12.743  17.541  0.00  0.00    +0.000 C 
ATOM     20  C   UNL     1      -5.235  11.300  17.465  0.00  0.00    +0.000 C 
ATOM     21  H   UNL     1      -4.990  14.257  18.668  0.00  0.00    +0.000 HD
ENDROOT
BRANCH   1  23
ATOM     22  C   UNL     1      -2.821  10.336  15.250  0.00  0.00    +0.000 C 
ATOM     23  O   UNL     1      -3.093   9.686  16.491  0.00  0.00    +0.000 OA
ENDBRANCH   1  23
BRANCH  11  24
ATOM     24  O   UNL     1       0.081  12.455  21.846  0.00  0.00    +0.000 OA
ATOM     25  H   UNL     1       0.333  12.641  20.924  0.00  0.00    +0.000 HD
ENDBRANCH  11  24
TORSDOF 2
ENDMDL
MODEL 9
REMARK VINA RESULT:      -6.2      6.670     10.360
REMARK  Name = 
REMARK  3 active torsions:
REMARK  status: ('A' for Active; 'I' for Inactive)
REMARK    1  A    between atoms: C_1  and  O_2
REMARK    2  A    between atoms: O_2  and  C_3
REMARK    3  A    between atoms: C_13  and  O_14
REMARK                            x       y       z     vdW  Elec       q    Type
REMARK                         _______ _______ _______ _____ _____    ______ ____
ROOT
ATOM      1  C   UNL     1      -5.432  12.095  17.811  0.00  0.00    +0.000 A 
ATOM      2  C   UNL     1      -5.104  12.548  19.088  0.00  0.00    +0.000 A 
ATOM      3  C   UNL     1      -3.813  12.286  19.662  0.00  0.00    +0.000 A 
ATOM      4  C   UNL     1      -2.763  11.682  18.929  0.00  0.00    +0.000 A 
ATOM      5  C   UNL     1      -3.119  11.398  17.604  0.00  0.00    +0.000 A 
ATOM      6  C   UNL     1      -4.402  11.543  17.083  0.00  0.00    +0.000 A 
ATOM      7  O   UNL     1      -4.483  11.140  15.782  0.00  0.00    +0.000 OA
ATOM      8  C   UNL     1      -3.123  10.863  15.472  0.00  0.00    +0.000 C 
ATOM      9  O   UNL     1      -2.271  10.968  16.617  0.00  0.00    +0.000 OA
ATOM     10  C   UNL     1      -1.424  11.427  19.570  0.00  0.00    +0.000 A 
ATOM     11  C   UNL     1      -0.291  10.793  18.989  0.00  0.00    +0.000 A 
ATOM     12  C   UNL     1       0.918  10.595  19.666  0.00  0.00    +0.000 A 
ATOM     13  C   UNL     1       1.062  11.010  20.978  0.00  0.00    +0.000 A 
ATOM     14  C   UNL     1      -0.012  11.604  21.604  0.00  0.00    +0.000 A 
ATOM     15  C   UNL     1      -1.239  11.810  20.926  0.00  0.00    +0.000 A 
ATOM     16  C   UNL     1      -2.332  12.414  21.771  0.00  0.00    +0.000 C 
ATOM     17  C   UNL     1      -3.683  12.695  21.111  0.00  0.00    +0.000 C 
ATOM     18  N   UNL     1      -4.052  14.113  21.297  0.00  0.00    +0.000 NA
ATOM     19  C   UNL     1      -5.354  14.453  20.698  0.00  0.00    +0.000 C 
ATOM     20  C   UNL     1      -6.084  13.327  19.944  0.00  0.00    +0.000 C 
ATOM     21  H   UNL     1      -3.333  14.687  20.855  0.00  0.00    +0.000 HD
ENDROOT
BRANCH   1  23
ATOM     22  C   UNL     1      -6.901  13.571  16.693  0.00  0.00    +0.000 C 
ATOM     23  O   UNL     1      -6.696  12.319  17.346  0.00  0.00    +0.000 OA
ENDBRANCH   1  23
BRANCH  11  24
ATOM     24  O   UNL     1      -0.208  10.273  17.723  0.00  0.00    +0.000 OA
ATOM     25  H   UNL     1       0.133   9.363  17.791  0.00  0.00    +0.000 HD
ENDBRANCH  11  24
TORSDOF 2
ENDMDL
