MODEL 1
REMARK VINA RESULT:      -7.7      0.000      0.000
REMARK  Name = 
REMARK  8 active torsions:
REMARK  status: ('A' for Active; 'I' for Inactive)
REMARK    1  A    between atoms: C_1  and  C_2
REMARK    2  A    between atoms: C_2  and  N_3
REMARK    3  A    between atoms: C_5  and  C_6
REMARK    4  A    between atoms: C_7  and  C_8
REMARK    5  A    between atoms: C_8  and  N_9
REMARK    6  A    between atoms: C_13  and  C_14
REMARK    7  A    between atoms: C_14  and  C_16
REMARK    8  A    between atoms: C_23  and  C_24
REMARK                            x       y       z     vdW  Elec       q    Type
REMARK                         _______ _______ _______ _____ _____    ______ ____
ROOT
ATOM      1  N   UNL     1       4.325   6.182  17.692  0.00  0.00    +0.000 NA
ATOM      2  C   UNL     1       5.016   6.145  18.980  0.00  0.00    +0.000 C 
ATOM      3  C   UNL     1       6.381   5.464  19.057  0.00  0.00    +0.000 C 
ATOM      4  C   UNL     1       6.554   4.269  18.131  0.00  0.00    +0.000 C 
ATOM      5  C   UNL     1       5.975   4.493  16.742  0.00  0.00    +0.000 C 
ATOM      6  C   UNL     1       4.546   5.039  16.810  0.00  0.00    +0.000 C 
ENDROOT
BRANCH   5   7
ATOM      7  C   UNL     1       6.888   5.304  15.822  0.00  0.00    +0.000 C 
ATOM      8  O   UNL     1       7.608   6.216  16.218  0.00  0.00    +0.000 OA
BRANCH   7   9
ATOM      9  C   UNL     1       6.928   4.898  14.376  0.00  0.00    +0.000 A 
ATOM     10  C   UNL     1       6.080   3.900  13.911  0.00  0.00    +0.000 A 
ATOM     11  C   UNL     1       6.187   3.508  12.580  0.00  0.00    +0.000 A 
ATOM     12  C   UNL     1       7.126   4.126  11.761  0.00  0.00    +0.000 A 
ATOM     13  C   UNL     1       7.902   5.140  12.295  0.00  0.00    +0.000 A 
ATOM     14  N   UNL     1       7.820   5.545  13.579  0.00  0.00    +0.000 NA
ENDBRANCH   7   9
ENDBRANCH   5   7
BRANCH   1  15
ATOM     15  C   UNL     1       2.881   6.523  17.817  0.00  0.00    +0.000 C 
BRANCH  15  20
ATOM     16  N   UNL     1       1.418   4.307  20.365  0.00  0.00    +0.000 N 
ATOM     17  N   UNL     1       1.304   5.463  21.038  0.00  0.00    +0.000 NA
ATOM     18  C   UNL     1       1.755   6.386  20.183  0.00  0.00    +0.000 A 
ATOM     19  C   UNL     1       1.786   7.814  20.594  0.00  0.00    +0.000 C 
ATOM     20  C   UNL     1       2.189   5.807  18.951  0.00  0.00    +0.000 A 
ATOM     21  C   UNL     1       1.789   4.478  19.054  0.00  0.00    +0.000 A 
ATOM     22  C   UNL     1       1.755   3.369  18.066  0.00  0.00    +0.000 C 
BRANCH  16  24
ATOM     23  C   UNL     1       2.497   2.497  21.659  0.00  0.00    +0.000 C 
ATOM     24  C   UNL     1       1.214   3.062  21.083  0.00  0.00    +0.000 C 
ENDBRANCH  16  24
ENDBRANCH  15  20
ENDBRANCH   1  15
TORSDOF 5
ENDMDL
MODEL 2
REMARK VINA RESULT:      -7.4      1.376      2.844
REMARK  Name = 
REMARK  8 active torsions:
REMARK  status: ('A' for Active; 'I' for Inactive)
REMARK    1  A    between atoms: C_1  and  C_2
REMARK    2  A    between atoms: C_2  and  N_3
REMARK    3  A    between atoms: C_5  and  C_6
REMARK    4  A    between atoms: C_7  and  C_8
REMARK    5  A    between atoms: C_8  and  N_9
REMARK    6  A    between atoms: C_13  and  C_14
REMARK    7  A    between atoms: C_14  and  C_16
REMARK    8  A    between atoms: C_23  and  C_24
REMARK                            x       y       z     vdW  Elec       q    Type
REMARK                         _______ _______ _______ _____ _____    ______ ____
ROOT
ATOM      1  N   UNL     1       4.156   5.722  17.808  0.00  0.00    +0.000 NA
ATOM      2  C   UNL     1       4.855   5.849  19.086  0.00  0.00    +0.000 C 
ATOM      3  C   UNL     1       6.323   5.434  19.159  0.00  0.00    +0.000 C 
ATOM      4  C   UNL     1       6.705   4.267  18.261  0.00  0.00    +0.000 C 
ATOM      5  C   UNL     1       6.081   4.342  16.875  0.00  0.00    +0.000 C 
ATOM      6  C   UNL     1       4.576   4.616  16.951  0.00  0.00    +0.000 C 
ENDROOT
BRANCH   5   7
ATOM      7  C   UNL     1       6.819   5.283  15.922  0.00  0.00    +0.000 C 
ATOM      8  O   UNL     1       7.397   6.301  16.290  0.00  0.00    +0.000 OA
BRANCH   7   9
ATOM      9  C   UNL     1       6.870   4.879  14.475  0.00  0.00    +0.000 A 
ATOM     10  C   UNL     1       6.036   3.871  14.006  0.00  0.00    +0.000 A 
ATOM     11  C   UNL     1       6.155   3.482  12.675  0.00  0.00    +0.000 A 
ATOM     12  C   UNL     1       7.090   4.113  11.861  0.00  0.00    +0.000 A 
ATOM     13  C   UNL     1       7.851   5.135  12.400  0.00  0.00    +0.000 A 
ATOM     14  N   UNL     1       7.758   5.538  13.684  0.00  0.00    +0.000 NA
ENDBRANCH   7   9
ENDBRANCH   5   7
BRANCH   1  15
ATOM     15  C   UNL     1       2.675   5.794  17.946  0.00  0.00    +0.000 C 
BRANCH  15  20
ATOM     16  N   UNL     1       1.416   8.527  20.065  0.00  0.00    +0.000 N 
ATOM     17  N   UNL     1       1.359   7.544  20.977  0.00  0.00    +0.000 NA
ATOM     18  C   UNL     1       1.857   6.479  20.344  0.00  0.00    +0.000 A 
ATOM     19  C   UNL     1       1.944   5.177  21.055  0.00  0.00    +0.000 C 
ATOM     20  C   UNL     1       2.216   6.779  18.993  0.00  0.00    +0.000 A 
ATOM     21  C   UNL     1       2.072   8.161  18.915  0.00  0.00    +0.000 A 
ATOM     22  C   UNL     1       2.454   9.144  17.870  0.00  0.00    +0.000 C 
BRANCH  16  24
ATOM     23  C   UNL     1      -0.571   9.931  19.626  0.00  0.00    +0.000 C 
ATOM     24  C   UNL     1       0.750   9.784  20.355  0.00  0.00    +0.000 C 
ENDBRANCH  16  24
ENDBRANCH  15  20
ENDBRANCH   1  15
TORSDOF 5
ENDMDL
MODEL 3
REMARK VINA RESULT:      -7.2      1.347      2.767
REMARK  Name = 
REMARK  8 active torsions:
REMARK  status: ('A' for Active; 'I' for Inactive)
REMARK    1  A    between atoms: C_1  and  C_2
REMARK    2  A    between atoms: C_2  and  N_3
REMARK    3  A    between atoms: C_5  and  C_6
REMARK    4  A    between atoms: C_7  and  C_8
REMARK    5  A    between atoms: C_8  and  N_9
REMARK    6  A    between atoms: C_13  and  C_14
REMARK    7  A    between atoms: C_14  and  C_16
REMARK    8  A    between atoms: C_23  and  C_24
REMARK                            x       y       z     vdW  Elec       q    Type
REMARK                         _______ _______ _______ _____ _____    ______ ____
ROOT
ATOM      1  N   UNL     1       4.433   5.440  17.745  0.00  0.00    +0.000 NA
ATOM      2  C   UNL     1       5.179   5.751  18.964  0.00  0.00    +0.000 C 
ATOM      3  C   UNL     1       6.692   5.546  18.965  0.00  0.00    +0.000 C 
ATOM      4  C   UNL     1       7.182   4.381  18.118  0.00  0.00    +0.000 C 
ATOM      5  C   UNL     1       6.475   4.274  16.774  0.00  0.00    +0.000 C 
ATOM      6  C   UNL     1       4.954   4.344  16.932  0.00  0.00    +0.000 C 
ENDROOT
BRANCH   5   7
ATOM      7  C   UNL     1       7.019   5.237  15.718  0.00  0.00    +0.000 C 
ATOM      8  O   UNL     1       7.511   6.328  15.989  0.00  0.00    +0.000 OA
BRANCH   7   9
ATOM      9  C   UNL     1       6.987   4.768  14.291  0.00  0.00    +0.000 A 
ATOM     10  C   UNL     1       7.793   5.382  13.340  0.00  0.00    +0.000 A 
ATOM     11  C   UNL     1       7.692   4.962  12.017  0.00  0.00    +0.000 A 
ATOM     12  C   UNL     1       6.802   3.944  11.691  0.00  0.00    +0.000 A 
ATOM     13  C   UNL     1       6.068   3.359  12.707  0.00  0.00    +0.000 A 
ATOM     14  N   UNL     1       6.145   3.741  13.999  0.00  0.00    +0.000 NA
ENDBRANCH   7   9
ENDBRANCH   5   7
BRANCH   1  15
ATOM     15  C   UNL     1       2.967   5.320  17.976  0.00  0.00    +0.000 C 
BRANCH  15  20
ATOM     16  N   UNL     1       1.537   8.018  20.029  0.00  0.00    +0.000 N 
ATOM     17  N   UNL     1       1.486   7.040  20.948  0.00  0.00    +0.000 NA
ATOM     18  C   UNL     1       2.045   5.990  20.340  0.00  0.00    +0.000 A 
ATOM     19  C   UNL     1       2.157   4.697  21.064  0.00  0.00    +0.000 C 
ATOM     20  C   UNL     1       2.436   6.294  18.999  0.00  0.00    +0.000 A 
ATOM     21  C   UNL     1       2.243   7.669  18.905  0.00  0.00    +0.000 A 
ATOM     22  C   UNL     1       2.623   8.659  17.865  0.00  0.00    +0.000 C 
BRANCH  16  24
ATOM     23  C   UNL     1       0.148   9.269  21.648  0.00  0.00    +0.000 C 
ATOM     24  C   UNL     1       0.814   9.251  20.287  0.00  0.00    +0.000 C 
ENDBRANCH  16  24
ENDBRANCH  15  20
ENDBRANCH   1  15
TORSDOF 5
ENDMDL
MODEL 4
REMARK VINA RESULT:      -7.1      0.685      1.048
REMARK  Name = 
REMARK  8 active torsions:
REMARK  status: ('A' for Active; 'I' for Inactive)
REMARK    1  A    between atoms: C_1  and  C_2
REMARK    2  A    between atoms: C_2  and  N_3
REMARK    3  A    between atoms: C_5  and  C_6
REMARK    4  A    between atoms: C_7  and  C_8
REMARK    5  A    between atoms: C_8  and  N_9
REMARK    6  A    between atoms: C_13  and  C_14
REMARK    7  A    between atoms: C_14  and  C_16
REMARK    8  A    between atoms: C_23  and  C_24
REMARK                            x       y       z     vdW  Elec       q    Type
REMARK                         _______ _______ _______ _____ _____    ______ ____
ROOT
ATOM      1  N   UNL     1       4.427   6.224  17.596  0.00  0.00    +0.000 NA
ATOM      2  C   UNL     1       5.185   6.216  18.846  0.00  0.00    +0.000 C 
ATOM      3  C   UNL     1       6.548   5.528  18.868  0.00  0.00    +0.000 C 
ATOM      4  C   UNL     1       6.666   4.309  17.965  0.00  0.00    +0.000 C 
ATOM      5  C   UNL     1       6.015   4.502  16.603  0.00  0.00    +0.000 C 
ATOM      6  C   UNL     1       4.594   5.058  16.732  0.00  0.00    +0.000 C 
ENDROOT
BRANCH   5   7
ATOM      7  C   UNL     1       6.883   5.284  15.615  0.00  0.00    +0.000 C 
ATOM      8  O   UNL     1       7.571   6.247  15.937  0.00  0.00    +0.000 OA
BRANCH   7   9
ATOM      9  C   UNL     1       6.917   4.784  14.199  0.00  0.00    +0.000 A 
ATOM     10  C   UNL     1       7.778   5.367  13.277  0.00  0.00    +0.000 A 
ATOM     11  C   UNL     1       7.739   4.919  11.960  0.00  0.00    +0.000 A 
ATOM     12  C   UNL     1       6.853   3.906  11.611  0.00  0.00    +0.000 A 
ATOM     13  C   UNL     1       6.061   3.352  12.601  0.00  0.00    +0.000 A 
ATOM     14  N   UNL     1       6.077   3.761  13.886  0.00  0.00    +0.000 NA
ENDBRANCH   7   9
ENDBRANCH   5   7
BRANCH   1  15
ATOM     15  C   UNL     1       2.993   6.578  17.789  0.00  0.00    +0.000 C 
BRANCH  15  20
ATOM     16  N   UNL     1       1.503   4.013  19.966  0.00  0.00    +0.000 N 
ATOM     17  N   UNL     1       1.370   5.060  20.796  0.00  0.00    +0.000 NA
ATOM     18  C   UNL     1       1.829   6.098  20.091  0.00  0.00    +0.000 A 
ATOM     19  C   UNL     1       1.843   7.451  20.703  0.00  0.00    +0.000 C 
ATOM     20  C   UNL     1       2.287   5.703  18.796  0.00  0.00    +0.000 A 
ATOM     21  C   UNL     1       1.894   4.371  18.700  0.00  0.00    +0.000 A 
ATOM     22  C   UNL     1       1.884   3.416  17.563  0.00  0.00    +0.000 C 
BRANCH  16  24
ATOM     23  C   UNL     1       1.590   2.579  21.979  0.00  0.00    +0.000 C 
ATOM     24  C   UNL     1       1.295   2.677  20.495  0.00  0.00    +0.000 C 
ENDBRANCH  16  24
ENDBRANCH  15  20
ENDBRANCH   1  15
TORSDOF 5
ENDMDL
MODEL 5
REMARK VINA RESULT:      -6.8      2.150      7.713
REMARK  Name = 
REMARK  8 active torsions:
REMARK  status: ('A' for Active; 'I' for Inactive)
REMARK    1  A    between atoms: C_1  and  C_2
REMARK    2  A    between atoms: C_2  and  N_3
REMARK    3  A    between atoms: C_5  and  C_6
REMARK    4  A    between atoms: C_7  and  C_8
REMARK    5  A    between atoms: C_8  and  N_9
REMARK    6  A    between atoms: C_13  and  C_14
REMARK    7  A    between atoms: C_14  and  C_16
REMARK    8  A    between atoms: C_23  and  C_24
REMARK                            x       y       z     vdW  Elec       q    Type
REMARK                         _______ _______ _______ _____ _____    ______ ____
ROOT
ATOM      1  N   UNL     1       4.155   4.857  18.444  0.00  0.00    +0.000 NA
ATOM      2  C   UNL     1       3.100   3.914  18.071  0.00  0.00    +0.000 C 
ATOM      3  C   UNL     1       1.661   4.235  18.470  0.00  0.00    +0.000 C 
ATOM      4  C   UNL     1       1.511   4.972  19.792  0.00  0.00    +0.000 C 
ATOM      5  C   UNL     1       2.540   6.076  19.988  0.00  0.00    +0.000 C 
ATOM      6  C   UNL     1       3.960   5.579  19.699  0.00  0.00    +0.000 C 
ENDROOT
BRANCH   5   7
ATOM      7  C   UNL     1       2.193   7.373  19.256  0.00  0.00    +0.000 C 
ATOM      8  O   UNL     1       2.444   7.567  18.070  0.00  0.00    +0.000 OA
BRANCH   7   9
ATOM      9  C   UNL     1       1.455   8.419  20.043  0.00  0.00    +0.000 A 
ATOM     10  C   UNL     1       1.236   8.239  21.403  0.00  0.00    +0.000 A 
ATOM     11  C   UNL     1       0.496   9.200  22.086  0.00  0.00    +0.000 A 
ATOM     12  C   UNL     1       0.008  10.303  21.395  0.00  0.00    +0.000 A 
ATOM     13  C   UNL     1       0.308  10.425  20.049  0.00  0.00    +0.000 A 
ATOM     14  N   UNL     1       1.025   9.514  19.360  0.00  0.00    +0.000 NA
ENDBRANCH   7   9
ENDBRANCH   5   7
BRANCH   1  15
ATOM     15  C   UNL     1       5.520   4.272  18.340  0.00  0.00    +0.000 C 
BRANCH  15  20
ATOM     16  N   UNL     1       6.926   5.055  15.031  0.00  0.00    +0.000 N 
ATOM     17  N   UNL     1       7.584   5.988  15.737  0.00  0.00    +0.000 NA
ATOM     18  C   UNL     1       7.204   5.773  16.999  0.00  0.00    +0.000 A 
ATOM     19  C   UNL     1       7.735   6.640  18.083  0.00  0.00    +0.000 C 
ATOM     20  C   UNL     1       6.265   4.699  17.099  0.00  0.00    +0.000 A 
ATOM     21  C   UNL     1       6.251   4.155  15.818  0.00  0.00    +0.000 A 
ATOM     22  C   UNL     1       5.648   2.914  15.271  0.00  0.00    +0.000 C 
BRANCH  16  24
ATOM     23  C   UNL     1       8.305   5.521  13.032  0.00  0.00    +0.000 C 
ATOM     24  C   UNL     1       6.945   5.139  13.582  0.00  0.00    +0.000 C 
ENDBRANCH  16  24
ENDBRANCH  15  20
ENDBRANCH   1  15
TORSDOF 5
ENDMDL
MODEL 6
REMARK VINA RESULT:      -6.7      1.537      2.006
REMARK  Name = 
REMARK  8 active torsions:
REMARK  status: ('A' for Active; 'I' for Inactive)
REMARK    1  A    between atoms: C_1  and  C_2
REMARK    2  A    between atoms: C_2  and  N_3
REMARK    3  A    between atoms: C_5  and  C_6
REMARK    4  A    between atoms: C_7  and  C_8
REMARK    5  A    between atoms: C_8  and  N_9
REMARK    6  A    between atoms: C_13  and  C_14
REMARK    7  A    between atoms: C_14  and  C_16
REMARK    8  A    between atoms: C_23  and  C_24
REMARK                            x       y       z     vdW  Elec       q    Type
REMARK                         _______ _______ _______ _____ _____    ______ ____
ROOT
ATOM      1  N   UNL     1       5.190   6.633  17.319  0.00  0.00    +0.000 NA
ATOM      2  C   UNL     1       5.965   7.864  17.173  0.00  0.00    +0.000 C 
ATOM      3  C   UNL     1       7.453   7.835  17.519  0.00  0.00    +0.000 C 
ATOM      4  C   UNL     1       7.828   6.898  18.658  0.00  0.00    +0.000 C 
ATOM      5  C   UNL     1       7.110   5.557  18.597  0.00  0.00    +0.000 C 
ATOM      6  C   UNL     1       5.602   5.735  18.395  0.00  0.00    +0.000 C 
ENDROOT
BRANCH   5   7
ATOM      7  C   UNL     1       7.739   4.570  17.613  0.00  0.00    +0.000 C 
ATOM      8  O   UNL     1       8.686   3.843  17.898  0.00  0.00    +0.000 OA
BRANCH   7   9
ATOM      9  C   UNL     1       7.103   4.467  16.255  0.00  0.00    +0.000 A 
ATOM     10  C   UNL     1       6.044   3.591  16.049  0.00  0.00    +0.000 A 
ATOM     11  C   UNL     1       5.520   3.478  14.764  0.00  0.00    +0.000 A 
ATOM     12  C   UNL     1       6.063   4.242  13.738  0.00  0.00    +0.000 A 
ATOM     13  C   UNL     1       7.090   5.120  14.039  0.00  0.00    +0.000 A 
ATOM     14  N   UNL     1       7.617   5.256  15.274  0.00  0.00    +0.000 NA
ENDBRANCH   7   9
ENDBRANCH   5   7
BRANCH   1  15
ATOM     15  C   UNL     1       3.720   6.869  17.318  0.00  0.00    +0.000 C 
BRANCH  15  20
ATOM     16  N   UNL     1       2.161   4.230  19.355  0.00  0.00    +0.000 N 
ATOM     17  N   UNL     1       1.871   5.272  20.150  0.00  0.00    +0.000 NA
ATOM     18  C   UNL     1       2.339   6.332  19.485  0.00  0.00    +0.000 A 
ATOM     19  C   UNL     1       2.201   7.688  20.076  0.00  0.00    +0.000 C 
ATOM     20  C   UNL     1       2.963   5.958  18.254  0.00  0.00    +0.000 A 
ATOM     21  C   UNL     1       2.667   4.603  18.135  0.00  0.00    +0.000 A 
ATOM     22  C   UNL     1       2.843   3.641  17.017  0.00  0.00    +0.000 C 
BRANCH  16  24
ATOM     23  C   UNL     1       0.774   2.184  19.287  0.00  0.00    +0.000 C 
ATOM     24  C   UNL     1       1.981   2.887  19.877  0.00  0.00    +0.000 C 
ENDBRANCH  16  24
ENDBRANCH  15  20
ENDBRANCH   1  15
TORSDOF 5
ENDMDL
MODEL 7
REMARK VINA RESULT:      -6.7      2.104      7.505
REMARK  Name = 
REMARK  8 active torsions:
REMARK  status: ('A' for Active; 'I' for Inactive)
REMARK    1  A    between atoms: C_1  and  C_2
REMARK    2  A    between atoms: C_2  and  N_3
REMARK    3  A    between atoms: C_5  and  C_6
REMARK    4  A    between atoms: C_7  and  C_8
REMARK    5  A    between atoms: C_8  and  N_9
REMARK    6  A    between atoms: C_13  and  C_14
REMARK    7  A    between atoms: C_14  and  C_16
REMARK    8  A    between atoms: C_23  and  C_24
REMARK                            x       y       z     vdW  Elec       q    Type
REMARK                         _______ _______ _______ _____ _____    ______ ____
ROOT
ATOM      1  N   UNL     1       3.847   4.151  17.134  0.00  0.00    +0.000 NA
ATOM      2  C   UNL     1       2.508   3.568  17.059  0.00  0.00    +0.000 C 
ATOM      3  C   UNL     1       1.379   4.231  17.844  0.00  0.00    +0.000 C 
ATOM      4  C   UNL     1       1.799   4.861  19.164  0.00  0.00    +0.000 C 
ATOM      5  C   UNL     1       3.115   5.622  19.077  0.00  0.00    +0.000 C 
ATOM      6  C   UNL     1       4.204   4.785  18.401  0.00  0.00    +0.000 C 
ENDROOT
BRANCH   5   7
ATOM      7  C   UNL     1       2.973   7.024  18.483  0.00  0.00    +0.000 C 
ATOM      8  O   UNL     1       3.522   7.375  17.444  0.00  0.00    +0.000 OA
BRANCH   7   9
ATOM      9  C   UNL     1       2.060   7.976  19.202  0.00  0.00    +0.000 A 
ATOM     10  C   UNL     1       1.757   7.770  20.543  0.00  0.00    +0.000 A 
ATOM     11  C   UNL     1       0.860   8.637  21.159  0.00  0.00    +0.000 A 
ATOM     12  C   UNL     1       0.305   9.679  20.424  0.00  0.00    +0.000 A 
ATOM     13  C   UNL     1       0.694   9.837  19.106  0.00  0.00    +0.000 A 
ATOM     14  N   UNL     1       1.563   9.016  18.480  0.00  0.00    +0.000 NA
ENDBRANCH   7   9
ENDBRANCH   5   7
BRANCH   1  15
ATOM     15  C   UNL     1       4.911   3.228  16.650  0.00  0.00    +0.000 C 
BRANCH  15  20
ATOM     16  N   UNL     1       7.059   4.902  14.175  0.00  0.00    +0.000 N 
ATOM     17  N   UNL     1       7.769   5.208  15.273  0.00  0.00    +0.000 NA
ATOM     18  C   UNL     1       7.117   4.596  16.266  0.00  0.00    +0.000 A 
ATOM     19  C   UNL     1       7.619   4.720  17.659  0.00  0.00    +0.000 C 
ATOM     20  C   UNL     1       5.955   3.907  15.798  0.00  0.00    +0.000 A 
ATOM     21  C   UNL     1       6.058   3.992  14.413  0.00  0.00    +0.000 A 
ATOM     22  C   UNL     1       5.300   3.338  13.316  0.00  0.00    +0.000 C 
BRANCH  16  24
ATOM     23  C   UNL     1       8.842   5.923  12.800  0.00  0.00    +0.000 C 
ATOM     24  C   UNL     1       7.370   5.587  12.934  0.00  0.00    +0.000 C 
ENDBRANCH  16  24
ENDBRANCH  15  20
ENDBRANCH   1  15
TORSDOF 5
ENDMDL
MODEL 8
REMARK VINA RESULT:      -6.6      1.437      2.675
REMARK  Name = 
REMARK  8 active torsions:
REMARK  status: ('A' for Active; 'I' for Inactive)
REMARK    1  A    between atoms: C_1  and  C_2
REMARK    2  A    between atoms: C_2  and  N_3
REMARK    3  A    between atoms: C_5  and  C_6
REMARK    4  A    between atoms: C_7  and  C_8
REMARK    5  A    between atoms: C_8  and  N_9
REMARK    6  A    between atoms: C_13  and  C_14
REMARK    7  A    between atoms: C_14  and  C_16
REMARK    8  A    between atoms: C_23  and  C_24
REMARK                            x       y       z     vdW  Elec       q    Type
REMARK                         _______ _______ _______ _____ _____    ______ ____
ROOT
ATOM      1  N   UNL     1       4.465   5.190  17.212  0.00  0.00    +0.000 NA
ATOM      2  C   UNL     1       5.280   5.878  18.213  0.00  0.00    +0.000 C 
ATOM      3  C   UNL     1       6.799   5.839  18.068  0.00  0.00    +0.000 C 
ATOM      4  C   UNL     1       7.354   4.553  17.472  0.00  0.00    +0.000 C 
ATOM      5  C   UNL     1       6.538   4.032  16.297  0.00  0.00    +0.000 C 
ATOM      6  C   UNL     1       5.044   3.982  16.629  0.00  0.00    +0.000 C 
ENDROOT
BRANCH   5   7
ATOM      7  C   UNL     1       6.842   4.744  14.978  0.00  0.00    +0.000 C 
ATOM      8  O   UNL     1       7.493   5.781  14.905  0.00  0.00    +0.000 OA
BRANCH   7   9
ATOM      9  C   UNL     1       6.354   4.080  13.721  0.00  0.00    +0.000 A 
ATOM     10  C   UNL     1       4.991   4.015  13.455  0.00  0.00    +0.000 A 
ATOM     11  C   UNL     1       4.573   3.339  12.312  0.00  0.00    +0.000 A 
ATOM     12  C   UNL     1       5.523   2.761  11.476  0.00  0.00    +0.000 A 
ATOM     13  C   UNL     1       6.861   2.910  11.795  0.00  0.00    +0.000 A 
ATOM     14  N   UNL     1       7.298   3.561  12.892  0.00  0.00    +0.000 NA
ENDBRANCH   7   9
ENDBRANCH   5   7
BRANCH   1  15
ATOM     15  C   UNL     1       3.058   4.980  17.653  0.00  0.00    +0.000 C 
BRANCH  15  20
ATOM     16  N   UNL     1       1.807   7.621  19.890  0.00  0.00    +0.000 N 
ATOM     17  N   UNL     1       1.865   6.627  20.791  0.00  0.00    +0.000 NA
ATOM     18  C   UNL     1       2.374   5.596  20.110  0.00  0.00    +0.000 A 
ATOM     19  C   UNL     1       2.578   4.294  20.796  0.00  0.00    +0.000 C 
ATOM     20  C   UNL     1       2.621   5.929  18.742  0.00  0.00    +0.000 A 
ATOM     21  C   UNL     1       2.400   7.302  18.693  0.00  0.00    +0.000 A 
ATOM     22  C   UNL     1       2.656   8.315  17.638  0.00  0.00    +0.000 C 
BRANCH  16  24
ATOM     23  C   UNL     1       0.179   8.658  21.435  0.00  0.00    +0.000 C 
ATOM     24  C   UNL     1       1.097   8.837  20.243  0.00  0.00    +0.000 C 
ENDBRANCH  16  24
ENDBRANCH  15  20
ENDBRANCH   1  15
TORSDOF 5
ENDMDL
MODEL 9
REMARK VINA RESULT:      -6.5      1.961      7.387
REMARK  Name = 
REMARK  8 active torsions:
REMARK  status: ('A' for Active; 'I' for Inactive)
REMARK    1  A    between atoms: C_1  and  C_2
REMARK    2  A    between atoms: C_2  and  N_3
REMARK    3  A    between atoms: C_5  and  C_6
REMARK    4  A    between atoms: C_7  and  C_8
REMARK    5  A    between atoms: C_8  and  N_9
REMARK    6  A    between atoms: C_13  and  C_14
REMARK    7  A    between atoms: C_14  and  C_16
REMARK    8  A    between atoms: C_23  and  C_24
REMARK                            x       y       z     vdW  Elec       q    Type
REMARK                         _______ _______ _______ _____ _____    ______ ____
ROOT
ATOM      1  N   UNL     1       6.273   5.303  16.580  0.00  0.00    +0.000 NA
ATOM      2  C   UNL     1       7.070   5.147  17.796  0.00  0.00    +0.000 C 
ATOM      3  C   UNL     1       6.341   5.004  19.131  0.00  0.00    +0.000 C 
ATOM      4  C   UNL     1       5.039   5.783  19.238  0.00  0.00    +0.000 C 
ATOM      5  C   UNL     1       4.186   5.708  17.979  0.00  0.00    +0.000 C 
ATOM      6  C   UNL     1       5.008   6.019  16.724  0.00  0.00    +0.000 C 
ENDROOT
BRANCH   5   7
ATOM      7  C   UNL     1       3.375   4.418  17.865  0.00  0.00    +0.000 C 
ATOM      8  O   UNL     1       3.242   3.793  16.816  0.00  0.00    +0.000 OA
BRANCH   7   9
ATOM      9  C   UNL     1       2.771   3.882  19.132  0.00  0.00    +0.000 A 
ATOM     10  C   UNL     1       1.554   4.377  19.586  0.00  0.00    +0.000 A 
ATOM     11  C   UNL     1       1.056   3.901  20.795  0.00  0.00    +0.000 A 
ATOM     12  C   UNL     1       1.779   2.948  21.502  0.00  0.00    +0.000 A 
ATOM     13  C   UNL     1       2.962   2.478  20.957  0.00  0.00    +0.000 A 
ATOM     14  N   UNL     1       3.470   2.917  19.787  0.00  0.00    +0.000 NA
ENDBRANCH   7   9
ENDBRANCH   5   7
BRANCH   1  15
ATOM     15  C   UNL     1       7.070   5.801  15.424  0.00  0.00    +0.000 C 
BRANCH  15  20
ATOM     16  N   UNL     1       6.312   3.509  12.646  0.00  0.00    +0.000 N 
ATOM     17  N   UNL     1       7.249   4.245  12.028  0.00  0.00    +0.000 NA
ATOM     18  C   UNL     1       7.665   5.101  12.966  0.00  0.00    +0.000 A 
ATOM     19  C   UNL     1       8.717   6.097  12.635  0.00  0.00    +0.000 C 
ATOM     20  C   UNL     1       6.963   4.926  14.199  0.00  0.00    +0.000 A 
ATOM     21  C   UNL     1       6.219   3.768  13.991  0.00  0.00    +0.000 A 
ATOM     22  C   UNL     1       5.420   2.920  14.912  0.00  0.00    +0.000 C 
BRANCH  16  24
ATOM     23  C   UNL     1       4.210   3.262  11.367  0.00  0.00    +0.000 C 
ATOM     24  C   UNL     1       5.493   2.615  11.847  0.00  0.00    +0.000 C 
ENDBRANCH  16  24
ENDBRANCH  15  20
ENDBRANCH   1  15
TORSDOF 5
ENDMDL
