MODEL 1
REMARK VINA RESULT:      -7.6      0.000      0.000
REMARK  Name = 
REMARK  6 active torsions:
REMARK  status: ('A' for Active; 'I' for Inactive)
REMARK    1  A    between atoms: C_1  and  C_2
REMARK    2  A    between atoms: C_2  and  O_3
REMARK    3  A    between atoms: O_3  and  C_4
REMARK    4  A    between atoms: C_4  and  C_5
REMARK    5  A    between atoms: C_10  and  C_12
REMARK    6  A    between atoms: C_14  and  C_15
REMARK                            x       y       z     vdW  Elec       q    Type
REMARK                         _______ _______ _______ _____ _____    ______ ____
ROOT
ATOM      1  C   UNL     1       6.442   4.563  16.751  0.00  0.00    +0.000 C 
ATOM      2  C   UNL     1       7.801   4.480  17.462  0.00  0.00    +0.000 C 
ATOM      3  C   UNL     1       7.715   5.541  18.545  0.00  0.00    +0.000 C 
ATOM      4  C   UNL     1       6.242   5.573  18.918  0.00  0.00    +0.000 C 
ATOM      5  N   UNL     1       5.517   4.900  17.843  0.00  0.00    +0.000 N 
ATOM      6  C   UNL     1       4.176   4.496  17.807  0.00  0.00    +0.000 C 
ATOM      7  O   UNL     1       3.706   3.937  16.824  0.00  0.00    +0.000 OA
ENDROOT
BRANCH   6   8
ATOM      8  C   UNL     1       3.296   4.730  19.009  0.00  0.00    +0.000 A 
ATOM      9  C   UNL     1       3.124   3.679  19.910  0.00  0.00    +0.000 A 
ATOM     10  C   UNL     1       2.168   3.781  20.897  0.00  0.00    +0.000 A 
ATOM     11  C   UNL     1       1.790   2.587  21.719  0.00  0.00    +0.000 C 
ATOM     12  N   UNL     1       1.504   4.926  21.134  0.00  0.00    +0.000 NA
ATOM     13  C   UNL     1       1.778   6.002  20.382  0.00  0.00    +0.000 A 
ATOM     14  C   UNL     1       1.150   7.186  20.741  0.00  0.00    +0.000 A 
ATOM     15  C   UNL     1       1.363   8.378  20.051  0.00  0.00    +0.000 A 
ATOM     16  C   UNL     1       2.201   8.374  18.945  0.00  0.00    +0.000 A 
ATOM     17  C   UNL     1       2.826   7.187  18.549  0.00  0.00    +0.000 A 
ATOM     18  C   UNL     1       2.655   5.976  19.273  0.00  0.00    +0.000 A 
ENDBRANCH   6   8
BRANCH   1  19
ATOM     19  C   UNL     1       6.410   5.618  15.629  0.00  0.00    +0.000 C 
BRANCH  19  20
ATOM     20  O   UNL     1       6.824   5.038  14.387  0.00  0.00    +0.000 OA
BRANCH  20  22
ATOM     21  C   UNL     1       6.342   3.588  12.550  0.00  0.00    +0.000 C 
ATOM     22  C   UNL     1       5.894   4.063  13.919  0.00  0.00    +0.000 C 
ENDBRANCH  20  22
ENDBRANCH  19  20
ENDBRANCH   1  19
TORSDOF 4
ENDMDL
MODEL 2
REMARK VINA RESULT:      -7.4      2.009      6.529
REMARK  Name = 
REMARK  6 active torsions:
REMARK  status: ('A' for Active; 'I' for Inactive)
REMARK    1  A    between atoms: C_1  and  C_2
REMARK    2  A    between atoms: C_2  and  O_3
REMARK    3  A    between atoms: O_3  and  C_4
REMARK    4  A    between atoms: C_4  and  C_5
REMARK    5  A    between atoms: C_10  and  C_12
REMARK    6  A    between atoms: C_14  and  C_15
REMARK                            x       y       z     vdW  Elec       q    Type
REMARK                         _______ _______ _______ _____ _____    ______ ____
ROOT
ATOM      1  C   UNL     1       2.625   3.268  19.308  0.00  0.00    +0.000 C 
ATOM      2  C   UNL     1       1.441   3.167  18.336  0.00  0.00    +0.000 C 
ATOM      3  C   UNL     1       1.411   4.521  17.650  0.00  0.00    +0.000 C 
ATOM      4  C   UNL     1       2.868   4.954  17.618  0.00  0.00    +0.000 C 
ATOM      5  N   UNL     1       3.580   4.115  18.579  0.00  0.00    +0.000 N 
ATOM      6  C   UNL     1       4.961   3.985  18.775  0.00  0.00    +0.000 C 
ATOM      7  O   UNL     1       5.414   3.233  19.630  0.00  0.00    +0.000 OA
ENDROOT
BRANCH   6   8
ATOM      8  C   UNL     1       5.914   4.765  17.904  0.00  0.00    +0.000 A 
ATOM      9  C   UNL     1       6.714   5.733  18.512  0.00  0.00    +0.000 A 
ATOM     10  C   UNL     1       7.436   6.606  17.728  0.00  0.00    +0.000 A 
ATOM     11  C   UNL     1       8.104   7.802  18.334  0.00  0.00    +0.000 C 
ATOM     12  N   UNL     1       7.533   6.457  16.395  0.00  0.00    +0.000 NA
ATOM     13  C   UNL     1       6.903   5.428  15.809  0.00  0.00    +0.000 A 
ATOM     14  C   UNL     1       7.129   5.254  14.451  0.00  0.00    +0.000 A 
ATOM     15  C   UNL     1       6.548   4.213  13.731  0.00  0.00    +0.000 A 
ATOM     16  C   UNL     1       5.684   3.344  14.381  0.00  0.00    +0.000 A 
ATOM     17  C   UNL     1       5.421   3.514  15.745  0.00  0.00    +0.000 A 
ATOM     18  C   UNL     1       6.046   4.542  16.502  0.00  0.00    +0.000 A 
ENDBRANCH   6   8
BRANCH   1  19
ATOM     19  C   UNL     1       2.241   3.880  20.668  0.00  0.00    +0.000 C 
BRANCH  19  20
ATOM     20  O   UNL     1       2.659   5.248  20.736  0.00  0.00    +0.000 OA
BRANCH  20  22
ATOM     21  C   UNL     1       1.943   7.473  20.240  0.00  0.00    +0.000 C 
ATOM     22  C   UNL     1       1.550   6.139  20.845  0.00  0.00    +0.000 C 
ENDBRANCH  20  22
ENDBRANCH  19  20
ENDBRANCH   1  19
TORSDOF 4
ENDMDL
MODEL 3
REMARK VINA RESULT:      -7.2      0.705      2.835
REMARK  Name = 
REMARK  6 active torsions:
REMARK  status: ('A' for Active; 'I' for Inactive)
REMARK    1  A    between atoms: C_1  and  C_2
REMARK    2  A    between atoms: C_2  and  O_3
REMARK    3  A    between atoms: O_3  and  C_4
REMARK    4  A    between atoms: C_4  and  C_5
REMARK    5  A    between atoms: C_10  and  C_12
REMARK    6  A    between atoms: C_14  and  C_15
REMARK                            x       y       z     vdW  Elec       q    Type
REMARK                         _______ _______ _______ _____ _____    ______ ____
ROOT
ATOM      1  C   UNL     1       6.607   4.663  16.683  0.00  0.00    +0.000 C 
ATOM      2  C   UNL     1       7.860   4.434  17.541  0.00  0.00    +0.000 C 
ATOM      3  C   UNL     1       7.768   5.500  18.618  0.00  0.00    +0.000 C 
ATOM      4  C   UNL     1       6.275   5.695  18.824  0.00  0.00    +0.000 C 
ATOM      5  N   UNL     1       5.607   5.102  17.667  0.00  0.00    +0.000 N 
ATOM      6  C   UNL     1       4.243   4.847  17.478  0.00  0.00    +0.000 C 
ATOM      7  O   UNL     1       3.828   4.340  16.442  0.00  0.00    +0.000 OA
ENDROOT
BRANCH   6   8
ATOM      8  C   UNL     1       3.263   5.180  18.575  0.00  0.00    +0.000 A 
ATOM      9  C   UNL     1       2.787   6.489  18.654  0.00  0.00    +0.000 A 
ATOM     10  C   UNL     1       2.063   6.882  19.759  0.00  0.00    +0.000 A 
ATOM     11  C   UNL     1       1.751   8.328  19.990  0.00  0.00    +0.000 C 
ATOM     12  N   UNL     1       1.653   6.006  20.693  0.00  0.00    +0.000 NA
ATOM     13  C   UNL     1       1.961   4.709  20.548  0.00  0.00    +0.000 A 
ATOM     14  C   UNL     1       1.417   3.834  21.477  0.00  0.00    +0.000 A 
ATOM     15  C   UNL     1       1.647   2.461  21.424  0.00  0.00    +0.000 A 
ATOM     16  C   UNL     1       2.477   1.954  20.436  0.00  0.00    +0.000 A 
ATOM     17  C   UNL     1       3.057   2.820  19.503  0.00  0.00    +0.000 A 
ATOM     18  C   UNL     1       2.791   4.216  19.515  0.00  0.00    +0.000 A 
ENDBRANCH   6   8
BRANCH   1  19
ATOM     19  C   UNL     1       6.817   5.712  15.575  0.00  0.00    +0.000 C 
BRANCH  19  20
ATOM     20  O   UNL     1       7.164   5.072  14.342  0.00  0.00    +0.000 OA
BRANCH  20  22
ATOM     21  C   UNL     1       6.381   3.667  12.575  0.00  0.00    +0.000 C 
ATOM     22  C   UNL     1       6.313   3.962  14.061  0.00  0.00    +0.000 C 
ENDBRANCH  20  22
ENDBRANCH  19  20
ENDBRANCH   1  19
TORSDOF 4
ENDMDL
MODEL 4
REMARK VINA RESULT:      -6.6      2.173      6.858
REMARK  Name = 
REMARK  6 active torsions:
REMARK  status: ('A' for Active; 'I' for Inactive)
REMARK    1  A    between atoms: C_1  and  C_2
REMARK    2  A    between atoms: C_2  and  O_3
REMARK    3  A    between atoms: O_3  and  C_4
REMARK    4  A    between atoms: C_4  and  C_5
REMARK    5  A    between atoms: C_10  and  C_12
REMARK    6  A    between atoms: C_14  and  C_15
REMARK                            x       y       z     vdW  Elec       q    Type
REMARK                         _______ _______ _______ _____ _____    ______ ____
ROOT
ATOM      1  C   UNL     1       2.186   3.185  17.871  0.00  0.00    +0.000 C 
ATOM      2  C   UNL     1       1.059   4.223  17.766  0.00  0.00    +0.000 C 
ATOM      3  C   UNL     1       1.700   5.512  18.250  0.00  0.00    +0.000 C 
ATOM      4  C   UNL     1       3.158   5.379  17.841  0.00  0.00    +0.000 C 
ATOM      5  N   UNL     1       3.387   3.967  17.545  0.00  0.00    +0.000 N 
ATOM      6  C   UNL     1       4.500   3.367  16.941  0.00  0.00    +0.000 C 
ATOM      7  O   UNL     1       4.548   2.156  16.757  0.00  0.00    +0.000 OA
ENDROOT
BRANCH   6   8
ATOM      8  C   UNL     1       5.653   4.226  16.486  0.00  0.00    +0.000 A 
ATOM      9  C   UNL     1       6.333   4.973  17.448  0.00  0.00    +0.000 A 
ATOM     10  C   UNL     1       7.246   5.924  17.047  0.00  0.00    +0.000 A 
ATOM     11  C   UNL     1       7.807   6.905  18.031  0.00  0.00    +0.000 C 
ATOM     12  N   UNL     1       7.634   6.047  15.765  0.00  0.00    +0.000 NA
ATOM     13  C   UNL     1       7.113   5.222  14.847  0.00  0.00    +0.000 A 
ATOM     14  C   UNL     1       7.630   5.315  13.563  0.00  0.00    +0.000 A 
ATOM     15  C   UNL     1       7.186   4.501  12.523  0.00  0.00    +0.000 A 
ATOM     16  C   UNL     1       6.165   3.594  12.768  0.00  0.00    +0.000 A 
ATOM     17  C   UNL     1       5.610   3.499  14.048  0.00  0.00    +0.000 A 
ATOM     18  C   UNL     1       6.088   4.288  15.129  0.00  0.00    +0.000 A 
ENDBRANCH   6   8
BRANCH   1  19
ATOM     19  C   UNL     1       2.286   2.540  19.267  0.00  0.00    +0.000 C 
BRANCH  19  20
ATOM     20  O   UNL     1       1.010   2.558  19.917  0.00  0.00    +0.000 OA
BRANCH  20  22
ATOM     21  C   UNL     1       2.587   3.120  21.622  0.00  0.00    +0.000 C 
ATOM     22  C   UNL     1       1.122   2.902  21.297  0.00  0.00    +0.000 C 
ENDBRANCH  20  22
ENDBRANCH  19  20
ENDBRANCH   1  19
TORSDOF 4
ENDMDL
MODEL 5
REMARK VINA RESULT:      -6.6      3.216      7.304
REMARK  Name = 
REMARK  6 active torsions:
REMARK  status: ('A' for Active; 'I' for Inactive)
REMARK    1  A    between atoms: C_1  and  C_2
REMARK    2  A    between atoms: C_2  and  O_3
REMARK    3  A    between atoms: O_3  and  C_4
REMARK    4  A    between atoms: C_4  and  C_5
REMARK    5  A    between atoms: C_10  and  C_12
REMARK    6  A    between atoms: C_14  and  C_15
REMARK                            x       y       z     vdW  Elec       q    Type
REMARK                         _______ _______ _______ _____ _____    ______ ____
ROOT
ATOM      1  C   UNL     1       0.472   9.308  20.310  0.00  0.00    +0.000 C 
ATOM      2  C   UNL     1      -0.359  10.057  19.259  0.00  0.00    +0.000 C 
ATOM      3  C   UNL     1       0.604  10.257  18.103  0.00  0.00    +0.000 C 
ATOM      4  C   UNL     1       1.520   9.046  18.168  0.00  0.00    +0.000 C 
ATOM      5  N   UNL     1       1.349   8.456  19.494  0.00  0.00    +0.000 N 
ATOM      6  C   UNL     1       1.814   7.224  19.972  0.00  0.00    +0.000 C 
ATOM      7  O   UNL     1       1.588   6.862  21.121  0.00  0.00    +0.000 OA
ENDROOT
BRANCH   6   8
ATOM      8  C   UNL     1       2.587   6.312  19.053  0.00  0.00    +0.000 A 
ATOM      9  C   UNL     1       3.706   6.833  18.404  0.00  0.00    +0.000 A 
ATOM     10  C   UNL     1       4.309   6.104  17.402  0.00  0.00    +0.000 A 
ATOM     11  C   UNL     1       5.349   6.729  16.524  0.00  0.00    +0.000 C 
ATOM     12  N   UNL     1       3.963   4.831  17.137  0.00  0.00    +0.000 NA
ATOM     13  C   UNL     1       2.998   4.255  17.867  0.00  0.00    +0.000 A 
ATOM     14  C   UNL     1       2.760   2.909  17.629  0.00  0.00    +0.000 A 
ATOM     15  C   UNL     1       1.795   2.192  18.334  0.00  0.00    +0.000 A 
ATOM     16  C   UNL     1       1.020   2.851  19.277  0.00  0.00    +0.000 A 
ATOM     17  C   UNL     1       1.225   4.214  19.516  0.00  0.00    +0.000 A 
ATOM     18  C   UNL     1       2.239   4.946  18.840  0.00  0.00    +0.000 A 
ENDBRANCH   6   8
BRANCH   1  19
ATOM     19  C   UNL     1       1.280  10.247  21.226  0.00  0.00    +0.000 C 
BRANCH  19  20
ATOM     20  O   UNL     1       1.115   9.870  22.597  0.00  0.00    +0.000 OA
BRANCH  20  22
ATOM     21  C   UNL     1      -1.057  10.714  23.126  0.00  0.00    +0.000 C 
ATOM     22  C   UNL     1      -0.224   9.470  22.882  0.00  0.00    +0.000 C 
ENDBRANCH  20  22
ENDBRANCH  19  20
ENDBRANCH   1  19
TORSDOF 4
ENDMDL
MODEL 6
REMARK VINA RESULT:      -6.6      0.953      1.049
REMARK  Name = 
REMARK  6 active torsions:
REMARK  status: ('A' for Active; 'I' for Inactive)
REMARK    1  A    between atoms: C_1  and  C_2
REMARK    2  A    between atoms: C_2  and  O_3
REMARK    3  A    between atoms: O_3  and  C_4
REMARK    4  A    between atoms: C_4  and  C_5
REMARK    5  A    between atoms: C_10  and  C_12
REMARK    6  A    between atoms: C_14  and  C_15
REMARK                            x       y       z     vdW  Elec       q    Type
REMARK                         _______ _______ _______ _____ _____    ______ ____
ROOT
ATOM      1  C   UNL     1       6.096   4.036  16.118  0.00  0.00    +0.000 C 
ATOM      2  C   UNL     1       7.519   4.467  16.501  0.00  0.00    +0.000 C 
ATOM      3  C   UNL     1       7.335   5.846  17.109  0.00  0.00    +0.000 C 
ATOM      4  C   UNL     1       5.959   5.790  17.750  0.00  0.00    +0.000 C 
ATOM      5  N   UNL     1       5.273   4.632  17.180  0.00  0.00    +0.000 N 
ATOM      6  C   UNL     1       4.070   4.039  17.585  0.00  0.00    +0.000 C 
ATOM      7  O   UNL     1       3.615   3.062  17.001  0.00  0.00    +0.000 OA
ENDROOT
BRANCH   6   8
ATOM      8  C   UNL     1       3.328   4.595  18.775  0.00  0.00    +0.000 A 
ATOM      9  C   UNL     1       3.163   3.769  19.887  0.00  0.00    +0.000 A 
ATOM     10  C   UNL     1       2.316   4.159  20.901  0.00  0.00    +0.000 A 
ATOM     11  C   UNL     1       1.927   3.199  21.982  0.00  0.00    +0.000 C 
ATOM     12  N   UNL     1       1.767   5.387  20.942  0.00  0.00    +0.000 NA
ATOM     13  C   UNL     1       2.050   6.257  19.962  0.00  0.00    +0.000 A 
ATOM     14  C   UNL     1       1.551   7.543  20.111  0.00  0.00    +0.000 A 
ATOM     15  C   UNL     1       1.789   8.544  19.171  0.00  0.00    +0.000 A 
ATOM     16  C   UNL     1       2.515   8.237  18.030  0.00  0.00    +0.000 A 
ATOM     17  C   UNL     1       3.007   6.940  17.845  0.00  0.00    +0.000 A 
ATOM     18  C   UNL     1       2.813   5.924  18.819  0.00  0.00    +0.000 A 
ENDBRANCH   6   8
BRANCH   1  19
ATOM     19  C   UNL     1       5.670   4.527  14.722  0.00  0.00    +0.000 C 
BRANCH  19  20
ATOM     20  O   UNL     1       5.900   3.508  13.743  0.00  0.00    +0.000 OA
BRANCH  20  22
ATOM     21  C   UNL     1       4.632   3.241  11.736  0.00  0.00    +0.000 C 
ATOM     22  C   UNL     1       5.754   4.004  12.414  0.00  0.00    +0.000 C 
ENDBRANCH  20  22
ENDBRANCH  19  20
ENDBRANCH   1  19
TORSDOF 4
ENDMDL
MODEL 7
REMARK VINA RESULT:      -6.6      2.242      3.951
REMARK  Name = 
REMARK  6 active torsions:
REMARK  status: ('A' for Active; 'I' for Inactive)
REMARK    1  A    between atoms: C_1  and  C_2
REMARK    2  A    between atoms: C_2  and  O_3
REMARK    3  A    between atoms: O_3  and  C_4
REMARK    4  A    between atoms: C_4  and  C_5
REMARK    5  A    between atoms: C_10  and  C_12
REMARK    6  A    between atoms: C_14  and  C_15
REMARK                            x       y       z     vdW  Elec       q    Type
REMARK                         _______ _______ _______ _____ _____    ______ ____
ROOT
ATOM      1  C   UNL     1       6.756   6.304  17.251  0.00  0.00    +0.000 C 
ATOM      2  C   UNL     1       7.740   5.203  17.671  0.00  0.00    +0.000 C 
ATOM      3  C   UNL     1       7.515   5.059  19.165  0.00  0.00    +0.000 C 
ATOM      4  C   UNL     1       6.046   5.396  19.355  0.00  0.00    +0.000 C 
ATOM      5  N   UNL     1       5.607   6.078  18.139  0.00  0.00    +0.000 N 
ATOM      6  C   UNL     1       4.305   6.409  17.741  0.00  0.00    +0.000 C 
ATOM      7  O   UNL     1       4.093   6.987  16.681  0.00  0.00    +0.000 OA
ENDROOT
BRANCH   6   8
ATOM      8  C   UNL     1       3.138   6.028  18.616  0.00  0.00    +0.000 A 
ATOM      9  C   UNL     1       2.553   7.024  19.397  0.00  0.00    +0.000 A 
ATOM     10  C   UNL     1       1.631   6.676  20.361  0.00  0.00    +0.000 A 
ATOM     11  C   UNL     1       1.170   7.680  21.373  0.00  0.00    +0.000 C 
ATOM     12  N   UNL     1       1.146   5.426  20.468  0.00  0.00    +0.000 NA
ATOM     13  C   UNL     1       1.576   4.487  19.613  0.00  0.00    +0.000 A 
ATOM     14  C   UNL     1       0.961   3.246  19.694  0.00  0.00    +0.000 A 
ATOM     15  C   UNL     1       1.305   2.192  18.850  0.00  0.00    +0.000 A 
ATOM     16  C   UNL     1       2.322   2.375  17.924  0.00  0.00    +0.000 A 
ATOM     17  C   UNL     1       2.975   3.610  17.842  0.00  0.00    +0.000 A 
ATOM     18  C   UNL     1       2.599   4.708  18.663  0.00  0.00    +0.000 A 
ENDBRANCH   6   8
BRANCH   1  19
ATOM     19  C   UNL     1       7.332   7.723  17.411  0.00  0.00    +0.000 C 
BRANCH  19  20
ATOM     20  O   UNL     1       8.327   7.744  18.440  0.00  0.00    +0.000 OA
BRANCH  20  22
ATOM     21  C   UNL     1       8.105  10.020  17.747  0.00  0.00    +0.000 C 
ATOM     22  C   UNL     1       8.772   9.070  18.723  0.00  0.00    +0.000 C 
ENDBRANCH  20  22
ENDBRANCH  19  20
ENDBRANCH   1  19
TORSDOF 4
ENDMDL
MODEL 8
REMARK VINA RESULT:      -6.5      2.337      6.729
REMARK  Name = 
REMARK  6 active torsions:
REMARK  status: ('A' for Active; 'I' for Inactive)
REMARK    1  A    between atoms: C_1  and  C_2
REMARK    2  A    between atoms: C_2  and  O_3
REMARK    3  A    between atoms: O_3  and  C_4
REMARK    4  A    between atoms: C_4  and  C_5
REMARK    5  A    between atoms: C_10  and  C_12
REMARK    6  A    between atoms: C_14  and  C_15
REMARK                            x       y       z     vdW  Elec       q    Type
REMARK                         _______ _______ _______ _____ _____    ______ ____
ROOT
ATOM      1  C   UNL     1       2.569   3.585  19.237  0.00  0.00    +0.000 C 
ATOM      2  C   UNL     1       1.357   3.627  18.295  0.00  0.00    +0.000 C 
ATOM      3  C   UNL     1       1.414   5.016  17.685  0.00  0.00    +0.000 C 
ATOM      4  C   UNL     1       2.898   5.341  17.636  0.00  0.00    +0.000 C 
ATOM      5  N   UNL     1       3.567   4.398  18.529  0.00  0.00    +0.000 N 
ATOM      6  C   UNL     1       4.939   4.155  18.678  0.00  0.00    +0.000 C 
ATOM      7  O   UNL     1       5.354   3.324  19.477  0.00  0.00    +0.000 OA
ENDROOT
BRANCH   6   8
ATOM      8  C   UNL     1       5.927   4.910  17.824  0.00  0.00    +0.000 A 
ATOM      9  C   UNL     1       6.725   5.873  18.442  0.00  0.00    +0.000 A 
ATOM     10  C   UNL     1       7.481   6.726  17.668  0.00  0.00    +0.000 A 
ATOM     11  C   UNL     1       8.151   7.918  18.277  0.00  0.00    +0.000 C 
ATOM     12  N   UNL     1       7.612   6.558  16.339  0.00  0.00    +0.000 NA
ATOM     13  C   UNL     1       6.982   5.533  15.749  0.00  0.00    +0.000 A 
ATOM     14  C   UNL     1       7.241   5.339  14.400  0.00  0.00    +0.000 A 
ATOM     15  C   UNL     1       6.663   4.298  13.676  0.00  0.00    +0.000 A 
ATOM     16  C   UNL     1       5.770   3.450  14.313  0.00  0.00    +0.000 A 
ATOM     17  C   UNL     1       5.473   3.641  15.667  0.00  0.00    +0.000 A 
ATOM     18  C   UNL     1       6.093   4.668  16.429  0.00  0.00    +0.000 A 
ENDBRANCH   6   8
BRANCH   1  19
ATOM     19  C   UNL     1       2.265   4.146  20.639  0.00  0.00    +0.000 C 
BRANCH  19  20
ATOM     20  O   UNL     1       1.034   3.609  21.135  0.00  0.00    +0.000 OA
BRANCH  20  22
ATOM     21  C   UNL     1       2.503   1.828  21.754  0.00  0.00    +0.000 C 
ATOM     22  C   UNL     1       1.252   2.603  22.123  0.00  0.00    +0.000 C 
ENDBRANCH  20  22
ENDBRANCH  19  20
ENDBRANCH   1  19
TORSDOF 4
ENDMDL
MODEL 9
REMARK VINA RESULT:      -6.5      1.315      2.103
REMARK  Name = 
REMARK  6 active torsions:
REMARK  status: ('A' for Active; 'I' for Inactive)
REMARK    1  A    between atoms: C_1  and  C_2
REMARK    2  A    between atoms: C_2  and  O_3
REMARK    3  A    between atoms: O_3  and  C_4
REMARK    4  A    between atoms: C_4  and  C_5
REMARK    5  A    between atoms: C_10  and  C_12
REMARK    6  A    between atoms: C_14  and  C_15
REMARK                            x       y       z     vdW  Elec       q    Type
REMARK                         _______ _______ _______ _____ _____    ______ ____
ROOT
ATOM      1  C   UNL     1       6.662   4.695  17.061  0.00  0.00    +0.000 C 
ATOM      2  C   UNL     1       7.957   4.410  17.837  0.00  0.00    +0.000 C 
ATOM      3  C   UNL     1       7.860   5.311  19.056  0.00  0.00    +0.000 C 
ATOM      4  C   UNL     1       6.369   5.401  19.335  0.00  0.00    +0.000 C 
ATOM      5  N   UNL     1       5.684   4.943  18.129  0.00  0.00    +0.000 N 
ATOM      6  C   UNL     1       4.325   4.650  17.951  0.00  0.00    +0.000 C 
ATOM      7  O   UNL     1       3.894   4.271  16.868  0.00  0.00    +0.000 OA
ENDROOT
BRANCH   6   8
ATOM      8  C   UNL     1       3.376   4.778  19.115  0.00  0.00    +0.000 A 
ATOM      9  C   UNL     1       3.208   3.671  19.947  0.00  0.00    +0.000 A 
ATOM     10  C   UNL     1       2.200   3.676  20.887  0.00  0.00    +0.000 A 
ATOM     11  C   UNL     1       1.835   2.422  21.622  0.00  0.00    +0.000 C 
ATOM     12  N   UNL     1       1.473   4.777  21.150  0.00  0.00    +0.000 NA
ATOM     13  C   UNL     1       1.734   5.904  20.473  0.00  0.00    +0.000 A 
ATOM     14  C   UNL     1       1.035   7.037  20.862  0.00  0.00    +0.000 A 
ATOM     15  C   UNL     1       1.228   8.274  20.250  0.00  0.00    +0.000 A 
ATOM     16  C   UNL     1       2.120   8.369  19.191  0.00  0.00    +0.000 A 
ATOM     17  C   UNL     1       2.817   7.234  18.764  0.00  0.00    +0.000 A 
ATOM     18  C   UNL     1       2.666   5.978  19.412  0.00  0.00    +0.000 A 
ENDBRANCH   6   8
BRANCH   1  19
ATOM     19  C   UNL     1       6.782   5.897  16.106  0.00  0.00    +0.000 C 
BRANCH  19  20
ATOM     20  O   UNL     1       7.763   6.822  16.588  0.00  0.00    +0.000 OA
BRANCH  20  22
ATOM     21  C   UNL     1       8.200   8.758  17.919  0.00  0.00    +0.000 C 
ATOM     22  C   UNL     1       7.165   8.013  17.097  0.00  0.00    +0.000 C 
ENDBRANCH  20  22
ENDBRANCH  19  20
ENDBRANCH   1  19
TORSDOF 4
ENDMDL
