MODEL 1
REMARK VINA RESULT:      -7.4      0.000      0.000
REMARK  Name = 
REMARK  5 active torsions:
REMARK  status: ('A' for Active; 'I' for Inactive)
REMARK    1  A    between atoms: C_1  and  O_2
REMARK    2  A    between atoms: O_2  and  C_3
REMARK    3  A    between atoms: C_8  and  O_9
REMARK    4  A    between atoms: O_9  and  C_10
REMARK    5  A    between atoms: N_17  and  C_18
REMARK                            x       y       z     vdW  Elec       q    Type
REMARK                         _______ _______ _______ _____ _____    ______ ____
ROOT
ATOM      1  C   UNL     1       7.393   5.039  14.045  0.00  0.00    +0.000 A 
ATOM      2  C   UNL     1       7.275   5.604  15.325  0.00  0.00    +0.000 A 
ATOM      3  C   UNL     1       6.387   5.079  16.265  0.00  0.00    +0.000 A 
ATOM      4  C   UNL     1       5.508   4.076  15.874  0.00  0.00    +0.000 A 
ATOM      5  C   UNL     1       5.574   3.538  14.592  0.00  0.00    +0.000 A 
ATOM      6  C   UNL     1       6.521   4.002  13.668  0.00  0.00    +0.000 A 
ATOM      7  O   UNL     1       4.627   3.527  16.768  0.00  0.00    +0.000 OA
ATOM      8  C   UNL     1       3.656   4.360  17.290  0.00  0.00    +0.000 A 
ATOM      9  N   UNL     1       2.452   3.750  17.314  0.00  0.00    +0.000 NA
ATOM     10  C   UNL     1       1.449   4.448  17.841  0.00  0.00    +0.000 A 
ATOM     11  N   UNL     1       1.533   5.682  18.335  0.00  0.00    +0.000 NA
ATOM     12  C   UNL     1       2.746   6.267  18.308  0.00  0.00    +0.000 A 
ATOM     13  N   UNL     1       2.889   7.602  18.799  0.00  0.00    +0.000 N 
ATOM     14  C   UNL     1       3.903   5.620  17.838  0.00  0.00    +0.000 A 
ATOM     15  N   UNL     1       5.127   6.326  17.885  0.00  0.00    +0.000 N 
ATOM     16  C   UNL     1       6.346   5.568  17.679  0.00  0.00    +0.000 C 
ATOM     17  H   UNL     1       3.300   8.162  18.056  0.00  0.00    +0.000 HD
ATOM     18  H   UNL     1       5.154   6.880  18.742  0.00  0.00    +0.000 HD
ENDROOT
BRANCH  13  19
ATOM     19  C   UNL     1       1.871   8.259  19.527  0.00  0.00    +0.000 A 
ATOM     20  C   UNL     1       1.547   7.815  20.820  0.00  0.00    +0.000 A 
ATOM     21  C   UNL     1       0.472   8.360  21.520  0.00  0.00    +0.000 A 
ATOM     22  C   UNL     1      -0.286   9.368  20.937  0.00  0.00    +0.000 A 
ATOM     23  C   UNL     1       0.052   9.840  19.667  0.00  0.00    +0.000 A 
ATOM     24 BR   UNL     1      -0.994  11.203  18.878  0.00  0.00    +0.000 Br
ATOM     25  C   UNL     1       1.133   9.301  18.966  0.00  0.00    +0.000 A 
ENDBRANCH  13  19
BRANCH   1  27
ATOM     26  C   UNL     1       7.841   5.950  11.902  0.00  0.00    +0.000 C 
ATOM     27  O   UNL     1       8.334   5.497  13.163  0.00  0.00    +0.000 OA
ENDBRANCH   1  27
BRANCH   6  28
ATOM     28  O   UNL     1       6.458   3.321  12.481  0.00  0.00    +0.000 OA
ATOM     29  C   UNL     1       5.194   3.098  11.878  0.00  0.00    +0.000 C 
ENDBRANCH   6  28
TORSDOF 3
ENDMDL
MODEL 2
REMARK VINA RESULT:      -7.4      2.652      4.503
REMARK  Name = 
REMARK  5 active torsions:
REMARK  status: ('A' for Active; 'I' for Inactive)
REMARK    1  A    between atoms: C_1  and  O_2
REMARK    2  A    between atoms: O_2  and  C_3
REMARK    3  A    between atoms: C_8  and  O_9
REMARK    4  A    between atoms: O_9  and  C_10
REMARK    5  A    between atoms: N_17  and  C_18
REMARK                            x       y       z     vdW  Elec       q    Type
REMARK                         _______ _______ _______ _____ _____    ______ ____
ROOT
ATOM      1  C   UNL     1       6.081   5.341  18.632  0.00  0.00    +0.000 A 
ATOM      2  C   UNL     1       4.972   5.376  19.491  0.00  0.00    +0.000 A 
ATOM      3  C   UNL     1       3.749   5.900  19.067  0.00  0.00    +0.000 A 
ATOM      4  C   UNL     1       3.678   6.525  17.828  0.00  0.00    +0.000 A 
ATOM      5  C   UNL     1       4.783   6.548  16.983  0.00  0.00    +0.000 A 
ATOM      6  C   UNL     1       5.991   5.949  17.366  0.00  0.00    +0.000 A 
ATOM      7  O   UNL     1       2.495   7.044  17.371  0.00  0.00    +0.000 OA
ATOM      8  C   UNL     1       1.950   8.095  18.083  0.00  0.00    +0.000 A 
ATOM      9  N   UNL     1       1.495   9.061  17.256  0.00  0.00    +0.000 NA
ATOM     10  C   UNL     1       0.907  10.104  17.837  0.00  0.00    +0.000 A 
ATOM     11  N   UNL     1       0.737  10.274  19.146  0.00  0.00    +0.000 NA
ATOM     12  C   UNL     1       1.192   9.294  19.951  0.00  0.00    +0.000 A 
ATOM     13  N   UNL     1       1.062   9.437  21.367  0.00  0.00    +0.000 N 
ATOM     14  C   UNL     1       1.775   8.109  19.468  0.00  0.00    +0.000 A 
ATOM     15  N   UNL     1       2.190   7.138  20.409  0.00  0.00    +0.000 N 
ATOM     16  C   UNL     1       2.515   5.817  19.910  0.00  0.00    +0.000 C 
ATOM     17  H   UNL     1       1.988   9.337  21.774  0.00  0.00    +0.000 HD
ATOM     18  H   UNL     1       1.512   7.111  21.171  0.00  0.00    +0.000 HD
ENDROOT
BRANCH  13  19
ATOM     19  C   UNL     1       0.271  10.447  21.962  0.00  0.00    +0.000 A 
ATOM     20  C   UNL     1      -0.745  10.089  22.864  0.00  0.00    +0.000 A 
ATOM     21  C   UNL     1      -1.620  11.044  23.378  0.00  0.00    +0.000 A 
ATOM     22  C   UNL     1      -1.481  12.376  23.002  0.00  0.00    +0.000 A 
ATOM     23  C   UNL     1      -0.451  12.744  22.135  0.00  0.00    +0.000 A 
ATOM     24 BR   UNL     1      -0.278  14.555  21.621  0.00  0.00    +0.000 Br
ATOM     25  C   UNL     1       0.433  11.790  21.624  0.00  0.00    +0.000 A 
ENDBRANCH  13  19
BRANCH   1  27
ATOM     26  C   UNL     1       8.191   5.576  19.687  0.00  0.00    +0.000 C 
ATOM     27  O   UNL     1       7.247   4.738  19.021  0.00  0.00    +0.000 OA
ENDBRANCH   1  27
BRANCH   6  28
ATOM     28  O   UNL     1       6.943   6.036  16.386  0.00  0.00    +0.000 OA
ATOM     29  C   UNL     1       7.081   4.973  15.458  0.00  0.00    +0.000 C 
ENDBRANCH   6  28
TORSDOF 3
ENDMDL
MODEL 3
REMARK VINA RESULT:      -7.2      1.008      1.372
REMARK  Name = 
REMARK  5 active torsions:
REMARK  status: ('A' for Active; 'I' for Inactive)
REMARK    1  A    between atoms: C_1  and  O_2
REMARK    2  A    between atoms: O_2  and  C_3
REMARK    3  A    between atoms: C_8  and  O_9
REMARK    4  A    between atoms: O_9  and  C_10
REMARK    5  A    between atoms: N_17  and  C_18
REMARK                            x       y       z     vdW  Elec       q    Type
REMARK                         _______ _______ _______ _____ _____    ______ ____
ROOT
ATOM      1  C   UNL     1       7.440   5.138  14.092  0.00  0.00    +0.000 A 
ATOM      2  C   UNL     1       7.260   5.850  15.288  0.00  0.00    +0.000 A 
ATOM      3  C   UNL     1       6.381   5.393  16.272  0.00  0.00    +0.000 A 
ATOM      4  C   UNL     1       5.570   4.298  15.995  0.00  0.00    +0.000 A 
ATOM      5  C   UNL     1       5.697   3.611  14.792  0.00  0.00    +0.000 A 
ATOM      6  C   UNL     1       6.638   4.013  13.833  0.00  0.00    +0.000 A 
ATOM      7  O   UNL     1       4.701   3.813  16.936  0.00  0.00    +0.000 OA
ATOM      8  C   UNL     1       3.672   4.645  17.334  0.00  0.00    +0.000 A 
ATOM      9  N   UNL     1       2.504   3.972  17.413  0.00  0.00    +0.000 NA
ATOM     10  C   UNL     1       1.450   4.669  17.833  0.00  0.00    +0.000 A 
ATOM     11  N   UNL     1       1.452   5.957  18.170  0.00  0.00    +0.000 NA
ATOM     12  C   UNL     1       2.630   6.605  18.090  0.00  0.00    +0.000 A 
ATOM     13  N   UNL     1       2.684   7.997  18.413  0.00  0.00    +0.000 N 
ATOM     14  C   UNL     1       3.833   5.976  17.724  0.00  0.00    +0.000 A 
ATOM     15  N   UNL     1       5.014   6.754  17.702  0.00  0.00    +0.000 N 
ATOM     16  C   UNL     1       6.278   6.050  17.613  0.00  0.00    +0.000 C 
ATOM     17  H   UNL     1       3.081   8.485  17.613  0.00  0.00    +0.000 HD
ATOM     18  H   UNL     1       4.988   7.410  18.484  0.00  0.00    +0.000 HD
ENDROOT
BRANCH  13  19
ATOM     19  C   UNL     1       1.614   8.678  19.036  0.00  0.00    +0.000 A 
ATOM     20  C   UNL     1       0.788   9.518  18.271  0.00  0.00    +0.000 A 
ATOM     21  C   UNL     1      -0.200  10.296  18.871  0.00  0.00    +0.000 A 
ATOM     22  C   UNL     1      -0.382  10.233  20.248  0.00  0.00    +0.000 A 
ATOM     23  C   UNL     1       0.410   9.373  21.010  0.00  0.00    +0.000 A 
ATOM     24 BR   UNL     1       0.163   9.304  22.884  0.00  0.00    +0.000 Br
ATOM     25  C   UNL     1       1.397   8.586  20.411  0.00  0.00    +0.000 A 
ENDBRANCH  13  19
BRANCH   1  27
ATOM     26  C   UNL     1       7.863   6.019  11.931  0.00  0.00    +0.000 C 
ATOM     27  O   UNL     1       8.374   5.540  13.175  0.00  0.00    +0.000 OA
ENDBRANCH   1  27
BRANCH   6  28
ATOM     28  O   UNL     1       6.642   3.188  12.739  0.00  0.00    +0.000 OA
ATOM     29  C   UNL     1       5.453   3.037  11.982  0.00  0.00    +0.000 C 
ENDBRANCH   6  28
TORSDOF 3
ENDMDL
MODEL 4
REMARK VINA RESULT:      -7.2      5.412      9.744
REMARK  Name = 
REMARK  5 active torsions:
REMARK  status: ('A' for Active; 'I' for Inactive)
REMARK    1  A    between atoms: C_1  and  O_2
REMARK    2  A    between atoms: O_2  and  C_3
REMARK    3  A    between atoms: C_8  and  O_9
REMARK    4  A    between atoms: O_9  and  C_10
REMARK    5  A    between atoms: N_17  and  C_18
REMARK                            x       y       z     vdW  Elec       q    Type
REMARK                         _______ _______ _______ _____ _____    ______ ____
ROOT
ATOM      1  C   UNL     1      -0.150  14.809  19.275  0.00  0.00    +0.000 A 
ATOM      2  C   UNL     1      -0.284  13.681  18.450  0.00  0.00    +0.000 A 
ATOM      3  C   UNL     1      -0.524  12.416  18.992  0.00  0.00    +0.000 A 
ATOM      4  C   UNL     1      -0.484  12.257  20.372  0.00  0.00    +0.000 A 
ATOM      5  C   UNL     1      -0.301  13.356  21.206  0.00  0.00    +0.000 A 
ATOM      6  C   UNL     1      -0.143  14.643  20.672  0.00  0.00    +0.000 A 
ATOM      7  O   UNL     1      -0.724  11.036  20.944  0.00  0.00    +0.000 OA
ATOM      8  C   UNL     1       0.173  10.022  20.667  0.00  0.00    +0.000 A 
ATOM      9  N   UNL     1       0.480   9.324  21.781  0.00  0.00    +0.000 NA
ATOM     10  C   UNL     1       1.304   8.291  21.620  0.00  0.00    +0.000 A 
ATOM     11  N   UNL     1       1.847   7.899  20.469  0.00  0.00    +0.000 NA
ATOM     12  C   UNL     1       1.520   8.606  19.370  0.00  0.00    +0.000 A 
ATOM     13  N   UNL     1       2.096   8.247  18.112  0.00  0.00    +0.000 N 
ATOM     14  C   UNL     1       0.611   9.679  19.386  0.00  0.00    +0.000 A 
ATOM     15  N   UNL     1       0.324  10.329  18.163  0.00  0.00    +0.000 N 
ATOM     16  C   UNL     1      -0.814  11.226  18.133  0.00  0.00    +0.000 C 
ATOM     17  H   UNL     1       2.555   9.072  17.735  0.00  0.00    +0.000 HD
ATOM     18  H   UNL     1       0.288   9.628  17.421  0.00  0.00    +0.000 HD
ENDROOT
BRANCH  13  19
ATOM     19  C   UNL     1       2.811   7.043  17.916  0.00  0.00    +0.000 A 
ATOM     20  C   UNL     1       4.143   7.093  17.473  0.00  0.00    +0.000 A 
ATOM     21  C   UNL     1       4.840   5.930  17.156  0.00  0.00    +0.000 A 
ATOM     22  C   UNL     1       4.214   4.696  17.289  0.00  0.00    +0.000 A 
ATOM     23  C   UNL     1       2.902   4.636  17.763  0.00  0.00    +0.000 A 
ATOM     24 BR   UNL     1       2.055   2.953  17.929  0.00  0.00    +0.000 Br
ATOM     25  C   UNL     1       2.202   5.800  18.089  0.00  0.00    +0.000 A 
ENDBRANCH  13  19
BRANCH   1  27
ATOM     26  C   UNL     1       1.327  16.489  18.489  0.00  0.00    +0.000 C 
ATOM     27  O   UNL     1      -0.013  16.058  18.733  0.00  0.00    +0.000 OA
ENDBRANCH   1  27
BRANCH   6  28
ATOM     28  O   UNL     1      -0.020  15.594  21.649  0.00  0.00    +0.000 OA
ATOM     29  C   UNL     1       1.258  15.856  22.203  0.00  0.00    +0.000 C 
ENDBRANCH   6  28
TORSDOF 3
ENDMDL
MODEL 5
REMARK VINA RESULT:      -7.1      5.482     10.162
REMARK  Name = 
REMARK  5 active torsions:
REMARK  status: ('A' for Active; 'I' for Inactive)
REMARK    1  A    between atoms: C_1  and  O_2
REMARK    2  A    between atoms: O_2  and  C_3
REMARK    3  A    between atoms: C_8  and  O_9
REMARK    4  A    between atoms: O_9  and  C_10
REMARK    5  A    between atoms: N_17  and  C_18
REMARK                            x       y       z     vdW  Elec       q    Type
REMARK                         _______ _______ _______ _____ _____    ______ ____
ROOT
ATOM      1  C   UNL     1      -2.538  11.835  22.718  0.00  0.00    +0.000 A 
ATOM      2  C   UNL     1      -1.452  11.019  23.073  0.00  0.00    +0.000 A 
ATOM      3  C   UNL     1      -0.321  10.932  22.259  0.00  0.00    +0.000 A 
ATOM      4  C   UNL     1      -0.338  11.550  21.014  0.00  0.00    +0.000 A 
ATOM      5  C   UNL     1      -1.428  12.320  20.622  0.00  0.00    +0.000 A 
ATOM      6  C   UNL     1      -2.533  12.483  21.470  0.00  0.00    +0.000 A 
ATOM      7  O   UNL     1       0.755  11.497  20.189  0.00  0.00    +0.000 OA
ATOM      8  C   UNL     1       1.129  10.253  19.717  0.00  0.00    +0.000 A 
ATOM      9  N   UNL     1       1.436  10.303  18.403  0.00  0.00    +0.000 NA
ATOM     10  C   UNL     1       1.855   9.166  17.853  0.00  0.00    +0.000 A 
ATOM     11  N   UNL     1       1.988   7.999  18.480  0.00  0.00    +0.000 NA
ATOM     12  C   UNL     1       1.683   7.976  19.792  0.00  0.00    +0.000 A 
ATOM     13  N   UNL     1       1.781   6.743  20.510  0.00  0.00    +0.000 N 
ATOM     14  C   UNL     1       1.291   9.118  20.513  0.00  0.00    +0.000 A 
ATOM     15  N   UNL     1       1.023   8.976  21.894  0.00  0.00    +0.000 N 
ATOM     16  C   UNL     1       0.906  10.187  22.682  0.00  0.00    +0.000 C 
ATOM     17  H   UNL     1       0.878   6.565  20.942  0.00  0.00    +0.000 HD
ATOM     18  H   UNL     1       1.693   8.316  22.291  0.00  0.00    +0.000 HD
ENDROOT
BRANCH  13  19
ATOM     19  C   UNL     1       2.405   5.595  19.971  0.00  0.00    +0.000 A 
ATOM     20  C   UNL     1       1.755   4.352  20.051  0.00  0.00    +0.000 A 
ATOM     21  C   UNL     1       2.388   3.181  19.640  0.00  0.00    +0.000 A 
ATOM     22  C   UNL     1       3.680   3.241  19.130  0.00  0.00    +0.000 A 
ATOM     23  C   UNL     1       4.319   4.477  19.014  0.00  0.00    +0.000 A 
ATOM     24 BR   UNL     1       6.081   4.547  18.331  0.00  0.00    +0.000 Br
ATOM     25  C   UNL     1       3.684   5.654  19.418  0.00  0.00    +0.000 A 
ENDBRANCH  13  19
BRANCH   1  27
ATOM     26  C   UNL     1      -3.639  13.214  24.302  0.00  0.00    +0.000 C 
ATOM     27  O   UNL     1      -3.600  11.990  23.567  0.00  0.00    +0.000 OA
ENDBRANCH   1  27
BRANCH   6  28
ATOM     28  O   UNL     1      -3.481  13.309  20.927  0.00  0.00    +0.000 OA
ATOM     29  C   UNL     1      -4.531  12.747  20.158  0.00  0.00    +0.000 C 
ENDBRANCH   6  28
TORSDOF 3
ENDMDL
MODEL 6
REMARK VINA RESULT:      -7.1      4.461      9.016
REMARK  Name = 
REMARK  5 active torsions:
REMARK  status: ('A' for Active; 'I' for Inactive)
REMARK    1  A    between atoms: C_1  and  O_2
REMARK    2  A    between atoms: O_2  and  C_3
REMARK    3  A    between atoms: C_8  and  O_9
REMARK    4  A    between atoms: O_9  and  C_10
REMARK    5  A    between atoms: N_17  and  C_18
REMARK                            x       y       z     vdW  Elec       q    Type
REMARK                         _______ _______ _______ _____ _____    ______ ____
ROOT
ATOM      1  C   UNL     1       0.578  12.396  20.453  0.00  0.00    +0.000 A 
ATOM      2  C   UNL     1       0.898  11.731  19.260  0.00  0.00    +0.000 A 
ATOM      3  C   UNL     1       0.778  10.344  19.153  0.00  0.00    +0.000 A 
ATOM      4  C   UNL     1       0.475   9.606  20.291  0.00  0.00    +0.000 A 
ATOM      5  C   UNL     1       0.206  10.244  21.498  0.00  0.00    +0.000 A 
ATOM      6  C   UNL     1       0.242  11.643  21.592  0.00  0.00    +0.000 A 
ATOM      7  O   UNL     1       0.339   8.244  20.228  0.00  0.00    +0.000 OA
ATOM      8  C   UNL     1       1.460   7.512  19.887  0.00  0.00    +0.000 A 
ATOM      9  N   UNL     1       1.589   6.422  20.674  0.00  0.00    +0.000 NA
ATOM     10  C   UNL     1       2.614   5.618  20.402  0.00  0.00    +0.000 A 
ATOM     11  N   UNL     1       3.513   5.800  19.436  0.00  0.00    +0.000 NA
ATOM     12  C   UNL     1       3.360   6.890  18.660  0.00  0.00    +0.000 A 
ATOM     13  N   UNL     1       4.312   7.150  17.626  0.00  0.00    +0.000 N 
ATOM     14  C   UNL     1       2.285   7.787  18.795  0.00  0.00    +0.000 A 
ATOM     15  N   UNL     1       2.215   8.882  17.903  0.00  0.00    +0.000 N 
ATOM     16  C   UNL     1       0.972   9.627  17.854  0.00  0.00    +0.000 C 
ATOM     17  H   UNL     1       4.682   8.086  17.775  0.00  0.00    +0.000 HD
ATOM     18  H   UNL     1       2.519   8.572  16.979  0.00  0.00    +0.000 HD
ENDROOT
BRANCH  13  19
ATOM     19  C   UNL     1       5.278   6.200  17.222  0.00  0.00    +0.000 A 
ATOM     20  C   UNL     1       6.375   5.930  18.057  0.00  0.00    +0.000 A 
ATOM     21  C   UNL     1       7.407   5.091  17.641  0.00  0.00    +0.000 A 
ATOM     22  C   UNL     1       7.347   4.501  16.383  0.00  0.00    +0.000 A 
ATOM     23  C   UNL     1       6.242   4.736  15.563  0.00  0.00    +0.000 A 
ATOM     24 BR   UNL     1       6.176   3.938  13.850  0.00  0.00    +0.000 Br
ATOM     25  C   UNL     1       5.202   5.570  15.980  0.00  0.00    +0.000 A 
ENDBRANCH  13  19
BRANCH   1  27
ATOM     26  C   UNL     1      -0.475  14.441  19.878  0.00  0.00    +0.000 C 
ATOM     27  O   UNL     1       0.605  13.763  20.520  0.00  0.00    +0.000 OA
ENDBRANCH   1  27
BRANCH   6  28
ATOM     28  O   UNL     1      -0.094  12.082  22.845  0.00  0.00    +0.000 OA
ATOM     29  C   UNL     1      -1.444  12.411  23.124  0.00  0.00    +0.000 C 
ENDBRANCH   6  28
TORSDOF 3
ENDMDL
MODEL 7
REMARK VINA RESULT:      -7.0      5.412     10.123
REMARK  Name = 
REMARK  5 active torsions:
REMARK  status: ('A' for Active; 'I' for Inactive)
REMARK    1  A    between atoms: C_1  and  O_2
REMARK    2  A    between atoms: O_2  and  C_3
REMARK    3  A    between atoms: C_8  and  O_9
REMARK    4  A    between atoms: O_9  and  C_10
REMARK    5  A    between atoms: N_17  and  C_18
REMARK                            x       y       z     vdW  Elec       q    Type
REMARK                         _______ _______ _______ _____ _____    ______ ____
ROOT
ATOM      1  C   UNL     1      -2.469  11.809  22.675  0.00  0.00    +0.000 A 
ATOM      2  C   UNL     1      -1.363  11.018  23.025  0.00  0.00    +0.000 A 
ATOM      3  C   UNL     1      -0.247  10.930  22.190  0.00  0.00    +0.000 A 
ATOM      4  C   UNL     1      -0.300  11.518  20.932  0.00  0.00    +0.000 A 
ATOM      5  C   UNL     1      -1.410  12.262  20.545  0.00  0.00    +0.000 A 
ATOM      6  C   UNL     1      -2.500  12.427  21.412  0.00  0.00    +0.000 A 
ATOM      7  O   UNL     1       0.776  11.462  20.086  0.00  0.00    +0.000 OA
ATOM      8  C   UNL     1       1.160  10.214  19.635  0.00  0.00    +0.000 A 
ATOM      9  N   UNL     1       1.440  10.237  18.314  0.00  0.00    +0.000 NA
ATOM     10  C   UNL     1       1.865   9.093  17.782  0.00  0.00    +0.000 A 
ATOM     11  N   UNL     1       2.030   7.944  18.434  0.00  0.00    +0.000 NA
ATOM     12  C   UNL     1       1.752   7.947  19.752  0.00  0.00    +0.000 A 
ATOM     13  N   UNL     1       1.884   6.733  20.496  0.00  0.00    +0.000 N 
ATOM     14  C   UNL     1       1.357   9.100  20.454  0.00  0.00    +0.000 A 
ATOM     15  N   UNL     1       1.119   8.986  21.843  0.00  0.00    +0.000 N 
ATOM     16  C   UNL     1       1.000  10.214  22.605  0.00  0.00    +0.000 C 
ATOM     17  H   UNL     1       0.993   6.551  20.951  0.00  0.00    +0.000 HD
ATOM     18  H   UNL     1       1.807   8.346  22.242  0.00  0.00    +0.000 HD
ENDROOT
BRANCH  13  19
ATOM     19  C   UNL     1       2.515   5.582  19.971  0.00  0.00    +0.000 A 
ATOM     20  C   UNL     1       3.881   5.627  19.648  0.00  0.00    +0.000 A 
ATOM     21  C   UNL     1       4.507   4.553  19.019  0.00  0.00    +0.000 A 
ATOM     22  C   UNL     1       3.774   3.411  18.716  0.00  0.00    +0.000 A 
ATOM     23  C   UNL     1       2.424   3.345  19.067  0.00  0.00    +0.000 A 
ATOM     24 BR   UNL     1       1.432   1.793  18.640  0.00  0.00    +0.000 Br
ATOM     25  C   UNL     1       1.795   4.417  19.704  0.00  0.00    +0.000 A 
ENDBRANCH  13  19
BRANCH   1  27
ATOM     26  C   UNL     1      -3.546  13.199  24.265  0.00  0.00    +0.000 C 
ATOM     27  O   UNL     1      -3.516  11.968  23.542  0.00  0.00    +0.000 OA
ENDBRANCH   1  27
BRANCH   6  28
ATOM     28  O   UNL     1      -3.472  13.226  20.870  0.00  0.00    +0.000 OA
ATOM     29  C   UNL     1      -4.603  12.624  20.264  0.00  0.00    +0.000 C 
ENDBRANCH   6  28
TORSDOF 3
ENDMDL
MODEL 8
REMARK VINA RESULT:      -7.0      5.485      9.797
REMARK  Name = 
REMARK  5 active torsions:
REMARK  status: ('A' for Active; 'I' for Inactive)
REMARK    1  A    between atoms: C_1  and  O_2
REMARK    2  A    between atoms: O_2  and  C_3
REMARK    3  A    between atoms: C_8  and  O_9
REMARK    4  A    between atoms: O_9  and  C_10
REMARK    5  A    between atoms: N_17  and  C_18
REMARK                            x       y       z     vdW  Elec       q    Type
REMARK                         _______ _______ _______ _____ _____    ______ ____
ROOT
ATOM      1  C   UNL     1      -0.285  14.848  19.316  0.00  0.00    +0.000 A 
ATOM      2  C   UNL     1      -0.411  13.727  18.480  0.00  0.00    +0.000 A 
ATOM      3  C   UNL     1      -0.620  12.453  19.012  0.00  0.00    +0.000 A 
ATOM      4  C   UNL     1      -0.555  12.279  20.389  0.00  0.00    +0.000 A 
ATOM      5  C   UNL     1      -0.378  13.372  21.232  0.00  0.00    +0.000 A 
ATOM      6  C   UNL     1      -0.253  14.667  20.710  0.00  0.00    +0.000 A 
ATOM      7  O   UNL     1      -0.763  11.047  20.951  0.00  0.00    +0.000 OA
ATOM      8  C   UNL     1       0.147  10.053  20.648  0.00  0.00    +0.000 A 
ATOM      9  N   UNL     1       0.485   9.348  21.749  0.00  0.00    +0.000 NA
ATOM     10  C   UNL     1       1.325   8.333  21.563  0.00  0.00    +0.000 A 
ATOM     11  N   UNL     1       1.856   7.963  20.399  0.00  0.00    +0.000 NA
ATOM     12  C   UNL     1       1.499   8.676  19.314  0.00  0.00    +0.000 A 
ATOM     13  N   UNL     1       2.060   8.342  18.042  0.00  0.00    +0.000 N 
ATOM     14  C   UNL     1       0.571   9.732  19.356  0.00  0.00    +0.000 A 
ATOM     15  N   UNL     1       0.252  10.390  18.146  0.00  0.00    +0.000 N 
ATOM     16  C   UNL     1      -0.902  11.267  18.143  0.00  0.00    +0.000 C 
ATOM     17  H   UNL     1       2.499   9.180  17.668  0.00  0.00    +0.000 HD
ATOM     18  H   UNL     1       0.217   9.698  17.397  0.00  0.00    +0.000 HD
ENDROOT
BRANCH  13  19
ATOM     19  C   UNL     1       2.794   7.154  17.822  0.00  0.00    +0.000 A 
ATOM     20  C   UNL     1       2.173   5.909  18.020  0.00  0.00    +0.000 A 
ATOM     21  C   UNL     1       2.896   4.721  17.928  0.00  0.00    +0.000 A 
ATOM     22  C   UNL     1       4.252   4.765  17.624  0.00  0.00    +0.000 A 
ATOM     23  C   UNL     1       4.868   5.996  17.390  0.00  0.00    +0.000 A 
ATOM     24 BR   UNL     1       6.715   6.045  16.989  0.00  0.00    +0.000 Br
ATOM     25  C   UNL     1       4.144   7.188  17.474  0.00  0.00    +0.000 A 
ENDBRANCH  13  19
BRANCH   1  27
ATOM     26  C   UNL     1       1.147  16.557  18.510  0.00  0.00    +0.000 C 
ATOM     27  O   UNL     1      -0.179  16.105  18.785  0.00  0.00    +0.000 OA
ENDBRANCH   1  27
BRANCH   6  28
ATOM     28  O   UNL     1      -0.131  15.609  21.697  0.00  0.00    +0.000 OA
ATOM     29  C   UNL     1       1.152  15.890  22.231  0.00  0.00    +0.000 C 
ENDBRANCH   6  28
TORSDOF 3
ENDMDL
MODEL 9
REMARK VINA RESULT:      -6.8      4.989      9.437
REMARK  Name = 
REMARK  5 active torsions:
REMARK  status: ('A' for Active; 'I' for Inactive)
REMARK    1  A    between atoms: C_1  and  O_2
REMARK    2  A    between atoms: O_2  and  C_3
REMARK    3  A    between atoms: C_8  and  O_9
REMARK    4  A    between atoms: O_9  and  C_10
REMARK    5  A    between atoms: N_17  and  C_18
REMARK                            x       y       z     vdW  Elec       q    Type
REMARK                         _______ _______ _______ _____ _____    ______ ____
ROOT
ATOM      1  C   UNL     1       0.724  14.030  19.937  0.00  0.00    +0.000 A 
ATOM      2  C   UNL     1       0.690  13.105  18.883  0.00  0.00    +0.000 A 
ATOM      3  C   UNL     1       0.342  11.771  19.106  0.00  0.00    +0.000 A 
ATOM      4  C   UNL     1       0.169  11.330  20.413  0.00  0.00    +0.000 A 
ATOM      5  C   UNL     1       0.251  12.223  21.477  0.00  0.00    +0.000 A 
ATOM      6  C   UNL     1       0.517  13.582  21.254  0.00  0.00    +0.000 A 
ATOM      7  O   UNL     1      -0.182  10.032  20.675  0.00  0.00    +0.000 OA
ATOM      8  C   UNL     1       0.722   9.050  20.320  0.00  0.00    +0.000 A 
ATOM      9  N   UNL     1       0.843   8.122  21.294  0.00  0.00    +0.000 NA
ATOM     10  C   UNL     1       1.657   7.101  21.037  0.00  0.00    +0.000 A 
ATOM     11  N   UNL     1       2.358   6.925  19.919  0.00  0.00    +0.000 NA
ATOM     12  C   UNL     1       2.216   7.859  18.959  0.00  0.00    +0.000 A 
ATOM     13  N   UNL     1       2.966   7.735  17.748  0.00  0.00    +0.000 N 
ATOM     14  C   UNL     1       1.340   8.953  19.071  0.00  0.00    +0.000 A 
ATOM     15  N   UNL     1       1.256   9.855  17.985  0.00  0.00    +0.000 N 
ATOM     16  C   UNL     1       0.156  10.800  17.983  0.00  0.00    +0.000 C 
ATOM     17  H   UNL     1       3.496   8.594  17.623  0.00  0.00    +0.000 HD
ATOM     18  H   UNL     1       1.315   9.324  17.114  0.00  0.00    +0.000 HD
ENDROOT
BRANCH  13  19
ATOM     19  C   UNL     1       3.674   6.560  17.406  0.00  0.00    +0.000 A 
ATOM     20  C   UNL     1       4.841   6.655  16.630  0.00  0.00    +0.000 A 
ATOM     21  C   UNL     1       5.498   5.514  16.175  0.00  0.00    +0.000 A 
ATOM     22  C   UNL     1       4.999   4.259  16.502  0.00  0.00    +0.000 A 
ATOM     23  C   UNL     1       3.861   4.155  17.303  0.00  0.00    +0.000 A 
ATOM     24 BR   UNL     1       3.184   2.442  17.732  0.00  0.00    +0.000 Br
ATOM     25  C   UNL     1       3.204   5.297  17.767  0.00  0.00    +0.000 A 
ENDBRANCH  13  19
BRANCH   1  27
ATOM     26  C   UNL     1      -0.154  16.137  19.295  0.00  0.00    +0.000 C 
ATOM     27  O   UNL     1       0.971  15.355  19.695  0.00  0.00    +0.000 OA
ENDBRANCH   1  27
BRANCH   6  28
ATOM     28  O   UNL     1       0.514  14.304  22.418  0.00  0.00    +0.000 OA
ATOM     29  C   UNL     1      -0.711  14.513  23.100  0.00  0.00    +0.000 C 
ENDBRANCH   6  28
TORSDOF 3
ENDMDL
