MODEL 1
REMARK VINA RESULT:      -8.1      0.000      0.000
REMARK  Name = 
REMARK  4 active torsions:
REMARK  status: ('A' for Active; 'I' for Inactive)
REMARK    1  A    between atoms: C_1  and  C_2
REMARK    2  A    between atoms: C_6  and  C_7
REMARK    3  A    between atoms: N_9  and  C_10
REMARK    4  A    between atoms: C_13  and  N_14
REMARK                            x       y       z     vdW  Elec       q    Type
REMARK                         _______ _______ _______ _____ _____    ______ ____
ROOT
ATOM      1  C   UNL     1       8.322   9.487  17.972  0.00  0.00    +0.000 A 
ATOM      2  C   UNL     1       9.101   9.369  19.128  0.00  0.00    +0.000 A 
ATOM      3  C   UNL     1       9.673  10.498  19.731  0.00  0.00    +0.000 A 
ATOM      4  C   UNL     1       9.419  11.770  19.215  0.00  0.00    +0.000 A 
ATOM      5  C   UNL     1       8.661  11.881  18.046  0.00  0.00    +0.000 A 
ATOM      6  F   UNL     1       8.479  13.081  17.474  0.00  0.00    +0.000 F 
ATOM      7  C   UNL     1       8.147  10.753  17.406  0.00  0.00    +0.000 A 
ENDROOT
BRANCH   4   8
ATOM      8  N   UNL     1       9.910  12.917  19.859  0.00  0.00    +0.000 N 
ATOM      9  C   UNL     1      10.975  13.660  19.414  0.00  0.00    +0.000 C 
ATOM     10  O   UNL     1      11.695  13.509  18.443  0.00  0.00    +0.000 OA
ATOM     11  C   UNL     1      11.098  14.788  20.336  0.00  0.00    +0.000 A 
ATOM     12  C   UNL     1      11.951  15.876  20.313  0.00  0.00    +0.000 A 
ATOM     13  C   UNL     1      11.843  16.797  21.359  0.00  0.00    +0.000 A 
ATOM     14  C   UNL     1      10.908  16.606  22.398  0.00  0.00    +0.000 A 
ATOM     15  C   UNL     1      10.043  15.508  22.390  0.00  0.00    +0.000 A 
ATOM     16  C   UNL     1      10.150  14.628  21.329  0.00  0.00    +0.000 A 
ATOM     17  C   UNL     1       9.369  13.434  21.012  0.00  0.00    +0.000 C 
ATOM     18  O   UNL     1       8.473  13.019  21.723  0.00  0.00    +0.000 OA
ENDBRANCH   4   8
BRANCH   1  21
ATOM     19  C   UNL     1       7.635   7.085  17.799  0.00  0.00    +0.000 C 
ATOM     20  O   UNL     1       8.110   6.689  18.860  0.00  0.00    +0.000 OA
ATOM     21  N   UNL     1       7.697   8.392  17.340  0.00  0.00    +0.000 N 
ATOM     22  H   UNL     1       7.141   8.579  16.513  0.00  0.00    +0.000 HD
BRANCH  19  28
ATOM     23  C   UNL     1       4.424   6.861  17.261  0.00  0.00    +0.000 C 
ATOM     24  C   UNL     1       5.530   6.072  16.660  0.00  0.00    +0.000 A 
ATOM     25  C   UNL     1       5.402   5.031  15.700  0.00  0.00    +0.000 A 
ATOM     26  C   UNL     1       6.679   4.597  15.423  0.00  0.00    +0.000 A 
ATOM     27  O   UNL     1       7.587   5.302  16.140  0.00  0.00    +0.000 OA
ATOM     28  C   UNL     1       6.892   6.200  16.909  0.00  0.00    +0.000 A 
ENDBRANCH  19  28
ENDBRANCH   1  21
TORSDOF 3
ENDMDL
MODEL 2
REMARK VINA RESULT:      -8.1      0.126      1.694
REMARK  Name = 
REMARK  4 active torsions:
REMARK  status: ('A' for Active; 'I' for Inactive)
REMARK    1  A    between atoms: C_1  and  C_2
REMARK    2  A    between atoms: C_6  and  C_7
REMARK    3  A    between atoms: N_9  and  C_10
REMARK    4  A    between atoms: C_13  and  N_14
REMARK                            x       y       z     vdW  Elec       q    Type
REMARK                         _______ _______ _______ _____ _____    ______ ____
ROOT
ATOM      1  C   UNL     1       8.295   9.473  17.952  0.00  0.00    +0.000 A 
ATOM      2  C   UNL     1       9.086   9.388  19.102  0.00  0.00    +0.000 A 
ATOM      3  C   UNL     1       9.652  10.535  19.676  0.00  0.00    +0.000 A 
ATOM      4  C   UNL     1       9.379  11.793  19.136  0.00  0.00    +0.000 A 
ATOM      5  C   UNL     1       8.609  11.872  17.973  0.00  0.00    +0.000 A 
ATOM      6  F   UNL     1       8.408  13.058  17.378  0.00  0.00    +0.000 F 
ATOM      7  C   UNL     1       8.100  10.726  17.361  0.00  0.00    +0.000 A 
ENDROOT
BRANCH   4   8
ATOM      8  N   UNL     1       9.864  12.959  19.751  0.00  0.00    +0.000 N 
ATOM      9  C   UNL     1       9.329  13.517  20.885  0.00  0.00    +0.000 C 
ATOM     10  O   UNL     1       8.380  13.171  21.566  0.00  0.00    +0.000 OA
ATOM     11  C   UNL     1      10.172  14.666  21.211  0.00  0.00    +0.000 A 
ATOM     12  C   UNL     1      10.130  15.533  22.287  0.00  0.00    +0.000 A 
ATOM     13  C   UNL     1      11.074  16.564  22.316  0.00  0.00    +0.000 A 
ATOM     14  C   UNL     1      12.015  16.714  21.276  0.00  0.00    +0.000 A 
ATOM     15  C   UNL     1      12.050  15.813  20.208  0.00  0.00    +0.000 A 
ATOM     16  C   UNL     1      11.126  14.785  20.217  0.00  0.00    +0.000 A 
ATOM     17  C   UNL     1      10.942  13.673  19.287  0.00  0.00    +0.000 C 
ATOM     18  O   UNL     1      11.621  13.525  18.287  0.00  0.00    +0.000 OA
ENDBRANCH   4   8
BRANCH   1  21
ATOM     19  C   UNL     1       7.646   7.058  17.828  0.00  0.00    +0.000 C 
ATOM     20  O   UNL     1       8.151   6.685  18.883  0.00  0.00    +0.000 OA
ATOM     21  N   UNL     1       7.676   8.359  17.349  0.00  0.00    +0.000 N 
ATOM     22  H   UNL     1       7.098   8.525  16.532  0.00  0.00    +0.000 HD
BRANCH  19  28
ATOM     23  C   UNL     1       4.442   6.886  17.229  0.00  0.00    +0.000 C 
ATOM     24  C   UNL     1       5.540   6.041  16.693  0.00  0.00    +0.000 A 
ATOM     25  C   UNL     1       5.406   4.956  15.784  0.00  0.00    +0.000 A 
ATOM     26  C   UNL     1       6.677   4.477  15.557  0.00  0.00    +0.000 A 
ATOM     27  O   UNL     1       7.587   5.195  16.258  0.00  0.00    +0.000 OA
ATOM     28  C   UNL     1       6.899   6.148  16.966  0.00  0.00    +0.000 A 
ENDBRANCH  19  28
ENDBRANCH   1  21
TORSDOF 3
ENDMDL
MODEL 3
REMARK VINA RESULT:      -7.9      7.368     10.807
REMARK  Name = 
REMARK  4 active torsions:
REMARK  status: ('A' for Active; 'I' for Inactive)
REMARK    1  A    between atoms: C_1  and  C_2
REMARK    2  A    between atoms: C_6  and  C_7
REMARK    3  A    between atoms: N_9  and  C_10
REMARK    4  A    between atoms: C_13  and  N_14
REMARK                            x       y       z     vdW  Elec       q    Type
REMARK                         _______ _______ _______ _____ _____    ______ ____
ROOT
ATOM      1  C   UNL     1       0.910   9.141  19.772  0.00  0.00    +0.000 A 
ATOM      2  C   UNL     1       1.327   9.431  18.469  0.00  0.00    +0.000 A 
ATOM      3  C   UNL     1       2.279   8.632  17.821  0.00  0.00    +0.000 A 
ATOM      4  C   UNL     1       2.781   7.493  18.452  0.00  0.00    +0.000 A 
ATOM      5  C   UNL     1       2.381   7.221  19.763  0.00  0.00    +0.000 A 
ATOM      6  F   UNL     1       2.917   6.186  20.429  0.00  0.00    +0.000 F 
ATOM      7  C   UNL     1       1.484   8.052  20.435  0.00  0.00    +0.000 A 
ENDROOT
BRANCH   4   8
ATOM      8  N   UNL     1       3.667   6.633  17.783  0.00  0.00    +0.000 N 
ATOM      9  C   UNL     1       3.375   5.337  17.434  0.00  0.00    +0.000 C 
ATOM     10  O   UNL     1       2.368   4.677  17.616  0.00  0.00    +0.000 OA
ATOM     11  C   UNL     1       4.541   4.839  16.706  0.00  0.00    +0.000 A 
ATOM     12  C   UNL     1       4.750   3.629  16.070  0.00  0.00    +0.000 A 
ATOM     13  C   UNL     1       5.995   3.432  15.464  0.00  0.00    +0.000 A 
ATOM     14  C   UNL     1       6.993   4.427  15.519  0.00  0.00    +0.000 A 
ATOM     15  C   UNL     1       6.750   5.650  16.150  0.00  0.00    +0.000 A 
ATOM     16  C   UNL     1       5.502   5.832  16.717  0.00  0.00    +0.000 A 
ATOM     17  C   UNL     1       4.932   6.997  17.392  0.00  0.00    +0.000 C 
ATOM     18  O   UNL     1       5.557   8.025  17.580  0.00  0.00    +0.000 OA
ENDBRANCH   4   8
BRANCH   1  21
ATOM     19  C   UNL     1       0.150  10.984  21.288  0.00  0.00    +0.000 C 
ATOM     20  O   UNL     1       1.247  11.480  21.525  0.00  0.00    +0.000 OA
ATOM     21  N   UNL     1      -0.065   9.891  20.462  0.00  0.00    +0.000 N 
ATOM     22  H   UNL     1      -1.040   9.691  20.266  0.00  0.00    +0.000 HD
BRANCH  19  28
ATOM     23  C   UNL     1      -2.140  12.813  19.852  0.00  0.00    +0.000 C 
ATOM     24  C   UNL     1      -2.074  12.328  21.254  0.00  0.00    +0.000 A 
ATOM     25  C   UNL     1      -3.028  12.573  22.280  0.00  0.00    +0.000 A 
ATOM     26  C   UNL     1      -2.567  11.925  23.404  0.00  0.00    +0.000 A 
ATOM     27  O   UNL     1      -1.399  11.291  23.143  0.00  0.00    +0.000 OA
ATOM     28  C   UNL     1      -1.083  11.542  21.832  0.00  0.00    +0.000 A 
ENDBRANCH  19  28
ENDBRANCH   1  21
TORSDOF 3
ENDMDL
MODEL 4
REMARK VINA RESULT:      -7.8      7.600      9.151
REMARK  Name = 
REMARK  4 active torsions:
REMARK  status: ('A' for Active; 'I' for Inactive)
REMARK    1  A    between atoms: C_1  and  C_2
REMARK    2  A    between atoms: C_6  and  C_7
REMARK    3  A    between atoms: N_9  and  C_10
REMARK    4  A    between atoms: C_13  and  N_14
REMARK                            x       y       z     vdW  Elec       q    Type
REMARK                         _______ _______ _______ _____ _____    ______ ____
ROOT
ATOM      1  C   UNL     1       2.794   7.928  18.213  0.00  0.00    +0.000 A 
ATOM      2  C   UNL     1       2.356   9.029  17.471  0.00  0.00    +0.000 A 
ATOM      3  C   UNL     1       1.375   9.895  17.974  0.00  0.00    +0.000 A 
ATOM      4  C   UNL     1       0.865   9.701  19.259  0.00  0.00    +0.000 A 
ATOM      5  C   UNL     1       1.287   8.586  19.987  0.00  0.00    +0.000 A 
ATOM      6  F   UNL     1       0.744   8.320  21.186  0.00  0.00    +0.000 F 
ATOM      7  C   UNL     1       2.213   7.684  19.462  0.00  0.00    +0.000 A 
ENDROOT
BRANCH   4   8
ATOM      8  N   UNL     1      -0.051  10.610  19.813  0.00  0.00    +0.000 N 
ATOM      9  C   UNL     1       0.199  11.387  20.917  0.00  0.00    +0.000 C 
ATOM     10  O   UNL     1       1.186  11.460  21.626  0.00  0.00    +0.000 OA
ATOM     11  C   UNL     1      -0.986  12.223  21.103  0.00  0.00    +0.000 A 
ATOM     12  C   UNL     1      -1.237  13.232  22.014  0.00  0.00    +0.000 A 
ATOM     13  C   UNL     1      -2.491  13.849  21.957  0.00  0.00    +0.000 A 
ATOM     14  C   UNL     1      -3.457  13.439  21.015  0.00  0.00    +0.000 A 
ATOM     15  C   UNL     1      -3.173  12.430  20.091  0.00  0.00    +0.000 A 
ATOM     16  C   UNL     1      -1.917  11.856  20.148  0.00  0.00    +0.000 A 
ATOM     17  C   UNL     1      -1.308  10.831  19.303  0.00  0.00    +0.000 C 
ATOM     18  O   UNL     1      -1.899  10.291  18.386  0.00  0.00    +0.000 OA
ENDBRANCH   4   8
BRANCH   1  21
ATOM     19  C   UNL     1       3.691   5.667  17.620  0.00  0.00    +0.000 C 
ATOM     20  O   UNL     1       2.675   5.013  17.834  0.00  0.00    +0.000 OA
ATOM     21  N   UNL     1       3.798   7.041  17.772  0.00  0.00    +0.000 N 
ATOM     22  H   UNL     1       4.663   7.441  17.425  0.00  0.00    +0.000 HD
BRANCH  19  28
ATOM     23  C   UNL     1       6.633   5.414  19.011  0.00  0.00    +0.000 C 
ATOM     24  C   UNL     1       6.183   4.929  17.681  0.00  0.00    +0.000 A 
ATOM     25  C   UNL     1       6.971   4.237  16.720  0.00  0.00    +0.000 A 
ATOM     26  C   UNL     1       6.144   3.976  15.651  0.00  0.00    +0.000 A 
ATOM     27  O   UNL     1       4.899   4.454  15.886  0.00  0.00    +0.000 OA
ATOM     28  C   UNL     1       4.915   5.049  17.122  0.00  0.00    +0.000 A 
ENDBRANCH  19  28
ENDBRANCH   1  21
TORSDOF 3
ENDMDL
MODEL 5
REMARK VINA RESULT:      -7.8      7.696      9.221
REMARK  Name = 
REMARK  4 active torsions:
REMARK  status: ('A' for Active; 'I' for Inactive)
REMARK    1  A    between atoms: C_1  and  C_2
REMARK    2  A    between atoms: C_6  and  C_7
REMARK    3  A    between atoms: N_9  and  C_10
REMARK    4  A    between atoms: C_13  and  N_14
REMARK                            x       y       z     vdW  Elec       q    Type
REMARK                         _______ _______ _______ _____ _____    ______ ____
ROOT
ATOM      1  C   UNL     1       2.618   8.005  18.377  0.00  0.00    +0.000 A 
ATOM      2  C   UNL     1       2.198   9.091  17.604  0.00  0.00    +0.000 A 
ATOM      3  C   UNL     1       1.240   9.994  18.086  0.00  0.00    +0.000 A 
ATOM      4  C   UNL     1       0.736   9.853  19.380  0.00  0.00    +0.000 A 
ATOM      5  C   UNL     1       1.140   8.753  20.141  0.00  0.00    +0.000 A 
ATOM      6  F   UNL     1       0.602   8.538  21.352  0.00  0.00    +0.000 F 
ATOM      7  C   UNL     1       2.042   7.815  19.638  0.00  0.00    +0.000 A 
ENDROOT
BRANCH   4   8
ATOM      8  N   UNL     1      -0.155  10.799  19.911  0.00  0.00    +0.000 N 
ATOM      9  C   UNL     1      -1.425  11.018  19.440  0.00  0.00    +0.000 C 
ATOM     10  O   UNL     1      -2.029  10.496  18.520  0.00  0.00    +0.000 OA
ATOM     11  C   UNL     1      -2.016  12.030  20.315  0.00  0.00    +0.000 A 
ATOM     12  C   UNL     1      -3.292  12.560  20.338  0.00  0.00    +0.000 A 
ATOM     13  C   UNL     1      -3.561  13.542  21.297  0.00  0.00    +0.000 A 
ATOM     14  C   UNL     1      -2.558  13.976  22.189  0.00  0.00    +0.000 A 
ATOM     15  C   UNL     1      -1.280  13.410  22.159  0.00  0.00    +0.000 A 
ATOM     16  C   UNL     1      -1.049  12.421  21.222  0.00  0.00    +0.000 A 
ATOM     17  C   UNL     1       0.145  11.614  20.977  0.00  0.00    +0.000 C 
ATOM     18  O   UNL     1       1.179  11.752  21.604  0.00  0.00    +0.000 OA
ENDBRANCH   4   8
BRANCH   1  21
ATOM     19  C   UNL     1       3.423   5.728  17.718  0.00  0.00    +0.000 C 
ATOM     20  O   UNL     1       2.358   5.128  17.821  0.00  0.00    +0.000 OA
ATOM     21  N   UNL     1       3.599   7.082  17.957  0.00  0.00    +0.000 N 
ATOM     22  H   UNL     1       4.508   7.446  17.697  0.00  0.00    +0.000 HD
BRANCH  19  28
ATOM     23  C   UNL     1       6.288   5.356  19.237  0.00  0.00    +0.000 C 
ATOM     24  C   UNL     1       5.879   4.892  17.887  0.00  0.00    +0.000 A 
ATOM     25  C   UNL     1       6.681   4.171  16.960  0.00  0.00    +0.000 A 
ATOM     26  C   UNL     1       5.893   3.945  15.854  0.00  0.00    +0.000 A 
ATOM     27  O   UNL     1       4.658   4.471  16.036  0.00  0.00    +0.000 OA
ATOM     28  C   UNL     1       4.643   5.063  17.273  0.00  0.00    +0.000 A 
ENDBRANCH  19  28
ENDBRANCH   1  21
TORSDOF 3
ENDMDL
MODEL 6
REMARK VINA RESULT:      -7.7      8.067     11.887
REMARK  Name = 
REMARK  4 active torsions:
REMARK  status: ('A' for Active; 'I' for Inactive)
REMARK    1  A    between atoms: C_1  and  C_2
REMARK    2  A    between atoms: C_6  and  C_7
REMARK    3  A    between atoms: N_9  and  C_10
REMARK    4  A    between atoms: C_13  and  N_14
REMARK                            x       y       z     vdW  Elec       q    Type
REMARK                         _______ _______ _______ _____ _____    ______ ____
ROOT
ATOM      1  C   UNL     1      -0.343  13.067  19.415  0.00  0.00    +0.000 A 
ATOM      2  C   UNL     1       0.690  12.739  20.297  0.00  0.00    +0.000 A 
ATOM      3  C   UNL     1       1.212  11.438  20.346  0.00  0.00    +0.000 A 
ATOM      4  C   UNL     1       0.743  10.464  19.464  0.00  0.00    +0.000 A 
ATOM      5  C   UNL     1      -0.307  10.789  18.601  0.00  0.00    +0.000 A 
ATOM      6  F   UNL     1      -0.843   9.848  17.809  0.00  0.00    +0.000 F 
ATOM      7  C   UNL     1      -0.874  12.064  18.597  0.00  0.00    +0.000 A 
ENDROOT
BRANCH   4   8
ATOM      8  N   UNL     1       1.316   9.182  19.439  0.00  0.00    +0.000 N 
ATOM      9  C   UNL     1       1.252   8.283  20.474  0.00  0.00    +0.000 C 
ATOM     10  O   UNL     1       0.736   8.378  21.573  0.00  0.00    +0.000 OA
ATOM     11  C   UNL     1       1.916   7.069  20.001  0.00  0.00    +0.000 A 
ATOM     12  C   UNL     1       2.069   5.837  20.608  0.00  0.00    +0.000 A 
ATOM     13  C   UNL     1       2.778   4.859  19.904  0.00  0.00    +0.000 A 
ATOM     14  C   UNL     1       3.323   5.136  18.632  0.00  0.00    +0.000 A 
ATOM     15  C   UNL     1       3.138   6.383  18.030  0.00  0.00    +0.000 A 
ATOM     16  C   UNL     1       2.409   7.323  18.735  0.00  0.00    +0.000 A 
ATOM     17  C   UNL     1       2.005   8.677  18.362  0.00  0.00    +0.000 C 
ATOM     18  O   UNL     1       2.319   9.196  17.306  0.00  0.00    +0.000 OA
ENDBRANCH   4   8
BRANCH   1  21
ATOM     19  C   UNL     1      -0.210  15.527  18.965  0.00  0.00    +0.000 C 
ATOM     20  O   UNL     1       0.985  15.592  18.693  0.00  0.00    +0.000 OA
ATOM     21  N   UNL     1      -0.887  14.364  19.300  0.00  0.00    +0.000 N 
ATOM     22  H   UNL     1      -1.894  14.460  19.363  0.00  0.00    +0.000 HD
BRANCH  19  28
ATOM     23  C   UNL     1      -0.143  18.105  16.965  0.00  0.00    +0.000 C 
ATOM     24  C   UNL     1      -1.075  17.814  18.085  0.00  0.00    +0.000 A 
ATOM     25  C   UNL     1      -2.157  18.629  18.519  0.00  0.00    +0.000 A 
ATOM     26  C   UNL     1      -2.748  17.965  19.570  0.00  0.00    +0.000 A 
ATOM     27  O   UNL     1      -2.111  16.794  19.811  0.00  0.00    +0.000 OA
ATOM     28  C   UNL     1      -1.078  16.699  18.914  0.00  0.00    +0.000 A 
ENDBRANCH  19  28
ENDBRANCH   1  21
TORSDOF 3
ENDMDL
MODEL 7
REMARK VINA RESULT:      -7.7      7.377      8.544
REMARK  Name = 
REMARK  4 active torsions:
REMARK  status: ('A' for Active; 'I' for Inactive)
REMARK    1  A    between atoms: C_1  and  C_2
REMARK    2  A    between atoms: C_6  and  C_7
REMARK    3  A    between atoms: N_9  and  C_10
REMARK    4  A    between atoms: C_13  and  N_14
REMARK                            x       y       z     vdW  Elec       q    Type
REMARK                         _______ _______ _______ _____ _____    ______ ____
ROOT
ATOM      1  C   UNL     1       2.639   7.513  18.098  0.00  0.00    +0.000 A 
ATOM      2  C   UNL     1       2.019   8.650  17.571  0.00  0.00    +0.000 A 
ATOM      3  C   UNL     1       1.297   9.526  18.395  0.00  0.00    +0.000 A 
ATOM      4  C   UNL     1       1.241   9.303  19.772  0.00  0.00    +0.000 A 
ATOM      5  C   UNL     1       1.841   8.153  20.290  0.00  0.00    +0.000 A 
ATOM      6  F   UNL     1       1.723   7.863  21.595  0.00  0.00    +0.000 F 
ATOM      7  C   UNL     1       2.502   7.244  19.464  0.00  0.00    +0.000 A 
ENDROOT
BRANCH   4   8
ATOM      8  N   UNL     1       0.600  10.219  20.622  0.00  0.00    +0.000 N 
ATOM      9  C   UNL     1       0.904  11.556  20.693  0.00  0.00    +0.000 C 
ATOM     10  O   UNL     1       1.739  12.210  20.095  0.00  0.00    +0.000 OA
ATOM     11  C   UNL     1      -0.040  12.138  21.646  0.00  0.00    +0.000 A 
ATOM     12  C   UNL     1      -0.227  13.452  22.033  0.00  0.00    +0.000 A 
ATOM     13  C   UNL     1      -1.213  13.703  22.992  0.00  0.00    +0.000 A 
ATOM     14  C   UNL     1      -1.969  12.649  23.546  0.00  0.00    +0.000 A 
ATOM     15  C   UNL     1      -1.776  11.331  23.124  0.00  0.00    +0.000 A 
ATOM     16  C   UNL     1      -0.815  11.112  22.154  0.00  0.00    +0.000 A 
ATOM     17  C   UNL     1      -0.419   9.878  21.479  0.00  0.00    +0.000 C 
ATOM     18  O   UNL     1      -0.908   8.794  21.738  0.00  0.00    +0.000 OA
ENDBRANCH   4   8
BRANCH   1  21
ATOM     19  C   UNL     1       4.775   6.633  17.132  0.00  0.00    +0.000 C 
ATOM     20  O   UNL     1       5.544   7.445  17.637  0.00  0.00    +0.000 OA
ATOM     21  N   UNL     1       3.402   6.614  17.324  0.00  0.00    +0.000 N 
ATOM     22  H   UNL     1       2.930   5.799  16.946  0.00  0.00    +0.000 HD
BRANCH  19  28
ATOM     23  C   UNL     1       4.298   3.415  17.394  0.00  0.00    +0.000 C 
ATOM     24  C   UNL     1       5.073   4.165  16.373  0.00  0.00    +0.000 A 
ATOM     25  C   UNL     1       5.783   3.611  15.273  0.00  0.00    +0.000 A 
ATOM     26  C   UNL     1       6.337   4.670  14.591  0.00  0.00    +0.000 A 
ATOM     27  O   UNL     1       6.014   5.842  15.190  0.00  0.00    +0.000 OA
ATOM     28  C   UNL     1       5.250   5.542  16.288  0.00  0.00    +0.000 A 
ENDBRANCH  19  28
ENDBRANCH   1  21
TORSDOF 3
ENDMDL
MODEL 8
REMARK VINA RESULT:      -7.7      7.386     10.760
REMARK  Name = 
REMARK  4 active torsions:
REMARK  status: ('A' for Active; 'I' for Inactive)
REMARK    1  A    between atoms: C_1  and  C_2
REMARK    2  A    between atoms: C_6  and  C_7
REMARK    3  A    between atoms: N_9  and  C_10
REMARK    4  A    between atoms: C_13  and  N_14
REMARK                            x       y       z     vdW  Elec       q    Type
REMARK                         _______ _______ _______ _____ _____    ______ ____
ROOT
ATOM      1  C   UNL     1       0.866   9.164  19.827  0.00  0.00    +0.000 A 
ATOM      2  C   UNL     1       1.282   9.478  18.530  0.00  0.00    +0.000 A 
ATOM      3  C   UNL     1       2.231   8.688  17.865  0.00  0.00    +0.000 A 
ATOM      4  C   UNL     1       2.728   7.534  18.473  0.00  0.00    +0.000 A 
ATOM      5  C   UNL     1       2.328   7.238  19.778  0.00  0.00    +0.000 A 
ATOM      6  F   UNL     1       2.861   6.188  20.423  0.00  0.00    +0.000 F 
ATOM      7  C   UNL     1       1.436   8.059  20.468  0.00  0.00    +0.000 A 
ENDROOT
BRANCH   4   8
ATOM      8  N   UNL     1       3.610   6.683  17.786  0.00  0.00    +0.000 N 
ATOM      9  C   UNL     1       4.866   7.044  17.366  0.00  0.00    +0.000 C 
ATOM     10  O   UNL     1       5.461   8.101  17.469  0.00  0.00    +0.000 OA
ATOM     11  C   UNL     1       5.452   5.848  16.762  0.00  0.00    +0.000 A 
ATOM     12  C   UNL     1       6.717   5.632  16.249  0.00  0.00    +0.000 A 
ATOM     13  C   UNL     1       6.985   4.368  15.714  0.00  0.00    +0.000 A 
ATOM     14  C   UNL     1       5.990   3.367  15.692  0.00  0.00    +0.000 A 
ATOM     15  C   UNL     1       4.725   3.603  16.235  0.00  0.00    +0.000 A 
ATOM     16  C   UNL     1       4.495   4.851  16.783  0.00  0.00    +0.000 A 
ATOM     17  C   UNL     1       3.314   5.381  17.462  0.00  0.00    +0.000 C 
ATOM     18  O   UNL     1       2.290   4.739  17.609  0.00  0.00    +0.000 OA
ENDBRANCH   4   8
BRANCH   1  21
ATOM     19  C   UNL     1       0.100  11.052  21.282  0.00  0.00    +0.000 C 
ATOM     20  O   UNL     1       1.181  11.614  21.425  0.00  0.00    +0.000 OA
ATOM     21  N   UNL     1      -0.106   9.903  20.533  0.00  0.00    +0.000 N 
ATOM     22  H   UNL     1      -1.078   9.645  20.408  0.00  0.00    +0.000 HD
BRANCH  19  28
ATOM     23  C   UNL     1      -2.230  12.913  19.956  0.00  0.00    +0.000 C 
ATOM     24  C   UNL     1      -2.135  12.378  21.338  0.00  0.00    +0.000 A 
ATOM     25  C   UNL     1      -3.071  12.578  22.390  0.00  0.00    +0.000 A 
ATOM     26  C   UNL     1      -2.585  11.893  23.481  0.00  0.00    +0.000 A 
ATOM     27  O   UNL     1      -1.417  11.279  23.175  0.00  0.00    +0.000 OA
ATOM     28  C   UNL     1      -1.128  11.580  21.868  0.00  0.00    +0.000 A 
ENDBRANCH  19  28
ENDBRANCH   1  21
TORSDOF 3
ENDMDL
MODEL 9
REMARK VINA RESULT:      -7.7      7.406      8.788
REMARK  Name = 
REMARK  4 active torsions:
REMARK  status: ('A' for Active; 'I' for Inactive)
REMARK    1  A    between atoms: C_1  and  C_2
REMARK    2  A    between atoms: C_6  and  C_7
REMARK    3  A    between atoms: N_9  and  C_10
REMARK    4  A    between atoms: C_13  and  N_14
REMARK                            x       y       z     vdW  Elec       q    Type
REMARK                         _______ _______ _______ _____ _____    ______ ____
ROOT
ATOM      1  C   UNL     1       2.840   7.420  18.140  0.00  0.00    +0.000 A 
ATOM      2  C   UNL     1       2.272   7.066  19.368  0.00  0.00    +0.000 A 
ATOM      3  C   UNL     1       1.468   7.969  20.078  0.00  0.00    +0.000 A 
ATOM      4  C   UNL     1       1.173   9.220  19.533  0.00  0.00    +0.000 A 
ATOM      5  C   UNL     1       1.763   9.578  18.318  0.00  0.00    +0.000 A 
ATOM      6  F   UNL     1       1.574  10.809  17.816  0.00  0.00    +0.000 F 
ATOM      7  C   UNL     1       2.618   8.708  17.642  0.00  0.00    +0.000 A 
ENDROOT
BRANCH   4   8
ATOM      8  N   UNL     1       0.297  10.100  20.189  0.00  0.00    +0.000 N 
ATOM      9  C   UNL     1       0.438  10.506  21.493  0.00  0.00    +0.000 C 
ATOM     10  O   UNL     1       1.278  10.216  22.325  0.00  0.00    +0.000 OA
ATOM     11  C   UNL     1      -0.642  11.460  21.741  0.00  0.00    +0.000 A 
ATOM     12  C   UNL     1      -0.924  12.225  22.857  0.00  0.00    +0.000 A 
ATOM     13  C   UNL     1      -2.054  13.046  22.803  0.00  0.00    +0.000 A 
ATOM     14  C   UNL     1      -2.875  13.073  21.656  0.00  0.00    +0.000 A 
ATOM     15  C   UNL     1      -2.559  12.305  20.532  0.00  0.00    +0.000 A 
ATOM     16  C   UNL     1      -1.420  11.524  20.600  0.00  0.00    +0.000 A 
ATOM     17  C   UNL     1      -0.804  10.664  19.591  0.00  0.00    +0.000 C 
ATOM     18  O   UNL     1      -1.281  10.494  18.484  0.00  0.00    +0.000 OA
ENDBRANCH   4   8
BRANCH   1  21
ATOM     19  C   UNL     1       5.002   6.615  17.167  0.00  0.00    +0.000 C 
ATOM     20  O   UNL     1       5.743   7.458  17.663  0.00  0.00    +0.000 OA
ATOM     21  N   UNL     1       3.632   6.545  17.368  0.00  0.00    +0.000 N 
ATOM     22  H   UNL     1       3.190   5.711  16.997  0.00  0.00    +0.000 HD
BRANCH  19  28
ATOM     23  C   UNL     1       4.337   3.419  17.214  0.00  0.00    +0.000 C 
ATOM     24  C   UNL     1       5.259   4.170  16.323  0.00  0.00    +0.000 A 
ATOM     25  C   UNL     1       6.059   3.625  15.281  0.00  0.00    +0.000 A 
ATOM     26  C   UNL     1       6.739   4.682  14.718  0.00  0.00    +0.000 A 
ATOM     27  O   UNL     1       6.410   5.842  15.335  0.00  0.00    +0.000 OA
ATOM     28  C   UNL     1       5.513   5.536  16.327  0.00  0.00    +0.000 A 
ENDBRANCH  19  28
ENDBRANCH   1  21
TORSDOF 3
ENDMDL
