MODEL 1
REMARK VINA RESULT:      -9.3      0.000      0.000
REMARK  Name = 
REMARK  4 active torsions:
REMARK  status: ('A' for Active; 'I' for Inactive)
REMARK    1  A    between atoms: N_14  and  C_15
REMARK    2  A    between atoms: C_15  and  C_16
REMARK    3  A    between atoms: C_16  and  O_17
REMARK    4  A    between atoms: O_17  and  C_18
REMARK                            x       y       z     vdW  Elec       q    Type
REMARK                         _______ _______ _______ _____ _____    ______ ____
ROOT
ATOM      1  O   UNL     1       6.456   4.063  18.738  0.00  0.00    +0.000 OA
ATOM      2  C   UNL     1       5.404   4.670  18.633  0.00  0.00    +0.000 C 
ATOM      3  N   UNL     1       4.204   4.200  19.103  0.00  0.00    +0.000 N 
ATOM      4  C   UNL     1       3.092   5.078  18.830  0.00  0.00    +0.000 C 
ATOM      5  C   UNL     1       2.438   5.636  20.101  0.00  0.00    +0.000 C 
ATOM      6  C   UNL     1       1.255   4.864  20.678  0.00  0.00    +0.000 C 
ATOM      7  C   UNL     1       1.567   3.462  21.182  0.00  0.00    +0.000 C 
ATOM      8  C   UNL     1       1.651   2.310  20.176  0.00  0.00    +0.000 C 
ATOM      9  C   UNL     1       0.971   2.481  18.821  0.00  0.00    +0.000 C 
ATOM     10  C   UNL     1       1.863   3.048  17.719  0.00  0.00    +0.000 C 
ATOM     11  C   UNL     1       2.126   4.553  17.752  0.00  0.00    +0.000 C 
ATOM     12  C   UNL     1       3.884   6.231  18.171  0.00  0.00    +0.000 C 
ATOM     13  O   UNL     1       3.358   7.265  17.777  0.00  0.00    +0.000 OA
ATOM     14  N   UNL     1       5.204   5.888  18.069  0.00  0.00    +0.000 N 
ATOM     15  H   UNL     1       4.168   3.310  19.579  0.00  0.00    +0.000 HD
ENDROOT
BRANCH  14  16
ATOM     16  C   UNL     1       6.285   6.668  17.472  0.00  0.00    +0.000 C 
BRANCH  16  17
ATOM     17  C   UNL     1       6.371   6.547  15.955  0.00  0.00    +0.000 C 
BRANCH  17  18
ATOM     18  O   UNL     1       7.362   5.605  15.541  0.00  0.00    +0.000 OA
BRANCH  18  19
ATOM     19  C   UNL     1       7.033   4.963  14.367  0.00  0.00    +0.000 A 
ATOM     20  C   UNL     1       5.933   4.106  14.442  0.00  0.00    +0.000 A 
ATOM     21  C   UNL     1       5.501   3.408  13.305  0.00  0.00    +0.000 A 
ATOM     22  C   UNL     1       6.171   3.553  12.092  0.00  0.00    +0.000 A 
ATOM     23  C   UNL     1       7.280   4.389  12.014  0.00  0.00    +0.000 A 
ATOM     24  C   UNL     1       7.708   5.079  13.143  0.00  0.00    +0.000 A 
ATOM     25  F   UNL     1       8.806   5.836  13.005  0.00  0.00    +0.000 F 
ENDBRANCH  18  19
ENDBRANCH  17  18
ENDBRANCH  16  17
ENDBRANCH  14  16
TORSDOF 4
ENDMDL
MODEL 2
REMARK VINA RESULT:      -8.4      0.906      2.278
REMARK  Name = 
REMARK  4 active torsions:
REMARK  status: ('A' for Active; 'I' for Inactive)
REMARK    1  A    between atoms: N_14  and  C_15
REMARK    2  A    between atoms: C_15  and  C_16
REMARK    3  A    between atoms: C_16  and  O_17
REMARK    4  A    between atoms: O_17  and  C_18
REMARK                            x       y       z     vdW  Elec       q    Type
REMARK                         _______ _______ _______ _____ _____    ______ ____
ROOT
ATOM      1  O   UNL     1       3.168   7.383  17.748  0.00  0.00    +0.000 OA
ATOM      2  C   UNL     1       3.627   6.288  18.024  0.00  0.00    +0.000 C 
ATOM      3  N   UNL     1       2.874   5.246  18.503  0.00  0.00    +0.000 N 
ATOM      4  C   UNL     1       3.646   4.060  18.791  0.00  0.00    +0.000 C 
ATOM      5  C   UNL     1       3.259   2.862  17.914  0.00  0.00    +0.000 C 
ATOM      6  C   UNL     1       2.204   1.904  18.461  0.00  0.00    +0.000 C 
ATOM      7  C   UNL     1       0.816   2.497  18.659  0.00  0.00    +0.000 C 
ATOM      8  C   UNL     1       0.528   3.316  19.921  0.00  0.00    +0.000 C 
ATOM      9  C   UNL     1       1.435   3.123  21.132  0.00  0.00    +0.000 C 
ATOM     10  C   UNL     1       2.626   4.077  21.205  0.00  0.00    +0.000 C 
ATOM     11  C   UNL     1       3.812   3.768  20.293  0.00  0.00    +0.000 C 
ATOM     12  C   UNL     1       5.020   4.571  18.298  0.00  0.00    +0.000 C 
ATOM     13  O   UNL     1       6.033   3.884  18.312  0.00  0.00    +0.000 OA
ATOM     14  N   UNL     1       4.916   5.878  17.908  0.00  0.00    +0.000 N 
ATOM     15  H   UNL     1       1.880   5.365  18.629  0.00  0.00    +0.000 HD
ENDROOT
BRANCH  14  16
ATOM     16  C   UNL     1       5.981   6.751  17.421  0.00  0.00    +0.000 C 
BRANCH  16  17
ATOM     17  C   UNL     1       6.195   6.684  15.913  0.00  0.00    +0.000 C 
BRANCH  17  18
ATOM     18  O   UNL     1       7.233   5.773  15.551  0.00  0.00    +0.000 OA
BRANCH  18  19
ATOM     19  C   UNL     1       6.940   5.052  14.414  0.00  0.00    +0.000 A 
ATOM     20  C   UNL     1       5.815   4.230  14.501  0.00  0.00    +0.000 A 
ATOM     21  C   UNL     1       5.416   3.458  13.399  0.00  0.00    +0.000 A 
ATOM     22  C   UNL     1       6.145   3.494  12.213  0.00  0.00    +0.000 A 
ATOM     23  C   UNL     1       7.279   4.295  12.125  0.00  0.00    +0.000 A 
ATOM     24  C   UNL     1       7.674   5.059  13.219  0.00  0.00    +0.000 A 
ATOM     25  F   UNL     1       8.798   5.776  13.077  0.00  0.00    +0.000 F 
ENDBRANCH  18  19
ENDBRANCH  17  18
ENDBRANCH  16  17
ENDBRANCH  14  16
TORSDOF 4
ENDMDL
MODEL 3
REMARK VINA RESULT:      -8.4      1.112      1.471
REMARK  Name = 
REMARK  4 active torsions:
REMARK  status: ('A' for Active; 'I' for Inactive)
REMARK    1  A    between atoms: N_14  and  C_15
REMARK    2  A    between atoms: C_15  and  C_16
REMARK    3  A    between atoms: C_16  and  O_17
REMARK    4  A    between atoms: O_17  and  C_18
REMARK                            x       y       z     vdW  Elec       q    Type
REMARK                         _______ _______ _______ _____ _____    ______ ____
ROOT
ATOM      1  O   UNL     1       6.815   4.751  19.261  0.00  0.00    +0.000 OA
ATOM      2  C   UNL     1       5.704   5.130  18.933  0.00  0.00    +0.000 C 
ATOM      3  N   UNL     1       4.542   4.533  19.352  0.00  0.00    +0.000 N 
ATOM      4  C   UNL     1       3.351   5.138  18.802  0.00  0.00    +0.000 C 
ATOM      5  C   UNL     1       2.448   5.769  19.870  0.00  0.00    +0.000 C 
ATOM      6  C   UNL     1       1.336   4.901  20.452  0.00  0.00    +0.000 C 
ATOM      7  C   UNL     1       1.797   3.682  21.239  0.00  0.00    +0.000 C 
ATOM      8  C   UNL     1       2.201   2.414  20.480  0.00  0.00    +0.000 C 
ATOM      9  C   UNL     1       1.695   2.232  19.052  0.00  0.00    +0.000 C 
ATOM     10  C   UNL     1       2.628   2.762  17.965  0.00  0.00    +0.000 C 
ATOM     11  C   UNL     1       2.639   4.274  17.745  0.00  0.00    +0.000 C 
ATOM     12  C   UNL     1       4.032   6.290  18.028  0.00  0.00    +0.000 C 
ATOM     13  O   UNL     1       3.406   7.131  17.394  0.00  0.00    +0.000 OA
ATOM     14  N   UNL     1       5.391   6.181  18.133  0.00  0.00    +0.000 N 
ATOM     15  H   UNL     1       4.583   3.743  19.979  0.00  0.00    +0.000 HD
ENDROOT
BRANCH  14  16
ATOM     16  C   UNL     1       6.405   7.035  17.520  0.00  0.00    +0.000 C 
BRANCH  16  17
ATOM     17  C   UNL     1       6.658   6.735  16.047  0.00  0.00    +0.000 C 
BRANCH  17  18
ATOM     18  O   UNL     1       7.323   5.486  15.854  0.00  0.00    +0.000 OA
BRANCH  18  19
ATOM     19  C   UNL     1       7.041   4.913  14.633  0.00  0.00    +0.000 A 
ATOM     20  C   UNL     1       7.791   5.396  13.559  0.00  0.00    +0.000 A 
ATOM     21  C   UNL     1       7.597   4.877  12.269  0.00  0.00    +0.000 A 
ATOM     22  C   UNL     1       6.645   3.885  12.046  0.00  0.00    +0.000 A 
ATOM     23  C   UNL     1       5.880   3.413  13.107  0.00  0.00    +0.000 A 
ATOM     24  C   UNL     1       6.073   3.929  14.384  0.00  0.00    +0.000 A 
ATOM     25  F   UNL     1       5.273   3.457  15.351  0.00  0.00    +0.000 F 
ENDBRANCH  18  19
ENDBRANCH  17  18
ENDBRANCH  16  17
ENDBRANCH  14  16
TORSDOF 4
ENDMDL
MODEL 4
REMARK VINA RESULT:      -8.2      1.352      2.671
REMARK  Name = 
REMARK  4 active torsions:
REMARK  status: ('A' for Active; 'I' for Inactive)
REMARK    1  A    between atoms: N_14  and  C_15
REMARK    2  A    between atoms: C_15  and  C_16
REMARK    3  A    between atoms: C_16  and  O_17
REMARK    4  A    between atoms: O_17  and  C_18
REMARK                            x       y       z     vdW  Elec       q    Type
REMARK                         _______ _______ _______ _____ _____    ______ ____
ROOT
ATOM      1  O   UNL     1       3.456   7.306  17.213  0.00  0.00    +0.000 OA
ATOM      2  C   UNL     1       3.909   6.313  17.756  0.00  0.00    +0.000 C 
ATOM      3  N   UNL     1       3.133   5.295  18.249  0.00  0.00    +0.000 N 
ATOM      4  C   UNL     1       3.894   4.242  18.880  0.00  0.00    +0.000 C 
ATOM      5  C   UNL     1       3.765   2.892  18.162  0.00  0.00    +0.000 C 
ATOM      6  C   UNL     1       2.676   1.940  18.647  0.00  0.00    +0.000 C 
ATOM      7  C   UNL     1       1.245   2.430  18.465  0.00  0.00    +0.000 C 
ATOM      8  C   UNL     1       0.655   3.406  19.487  0.00  0.00    +0.000 C 
ATOM      9  C   UNL     1       1.301   3.486  20.868  0.00  0.00    +0.000 C 
ATOM     10  C   UNL     1       2.394   4.543  21.008  0.00  0.00    +0.000 C 
ATOM     11  C   UNL     1       3.760   4.203  20.414  0.00  0.00    +0.000 C 
ATOM     12  C   UNL     1       5.309   4.792  18.586  0.00  0.00    +0.000 C 
ATOM     13  O   UNL     1       6.334   4.209  18.915  0.00  0.00    +0.000 OA
ATOM     14  N   UNL     1       5.215   6.008  17.966  0.00  0.00    +0.000 N 
ATOM     15  H   UNL     1       2.129   5.342  18.156  0.00  0.00    +0.000 HD
ENDROOT
BRANCH  14  16
ATOM     16  C   UNL     1       6.307   6.886  17.555  0.00  0.00    +0.000 C 
BRANCH  16  17
ATOM     17  C   UNL     1       6.701   6.740  16.090  0.00  0.00    +0.000 C 
BRANCH  17  18
ATOM     18  O   UNL     1       7.382   5.511  15.831  0.00  0.00    +0.000 OA
BRANCH  18  19
ATOM     19  C   UNL     1       7.005   4.933  14.638  0.00  0.00    +0.000 A 
ATOM     20  C   UNL     1       7.805   5.250  13.540  0.00  0.00    +0.000 A 
ATOM     21  C   UNL     1       7.522   4.708  12.277  0.00  0.00    +0.000 A 
ATOM     22  C   UNL     1       6.432   3.859  12.104  0.00  0.00    +0.000 A 
ATOM     23  C   UNL     1       5.617   3.554  13.189  0.00  0.00    +0.000 A 
ATOM     24  C   UNL     1       5.899   4.092  14.440  0.00  0.00    +0.000 A 
ATOM     25  F   UNL     1       5.049   3.787  15.431  0.00  0.00    +0.000 F 
ENDBRANCH  18  19
ENDBRANCH  17  18
ENDBRANCH  16  17
ENDBRANCH  14  16
TORSDOF 4
ENDMDL
MODEL 5
REMARK VINA RESULT:      -8.1      3.666      5.362
REMARK  Name = 
REMARK  4 active torsions:
REMARK  status: ('A' for Active; 'I' for Inactive)
REMARK    1  A    between atoms: N_14  and  C_15
REMARK    2  A    between atoms: C_15  and  C_16
REMARK    3  A    between atoms: C_16  and  O_17
REMARK    4  A    between atoms: O_17  and  C_18
REMARK                            x       y       z     vdW  Elec       q    Type
REMARK                         _______ _______ _______ _____ _____    ______ ____
ROOT
ATOM      1  O   UNL     1       7.672   5.131  19.472  0.00  0.00    +0.000 OA
ATOM      2  C   UNL     1       6.616   5.403  18.927  0.00  0.00    +0.000 C 
ATOM      3  N   UNL     1       5.410   4.864  19.295  0.00  0.00    +0.000 N 
ATOM      4  C   UNL     1       4.304   5.310  18.481  0.00  0.00    +0.000 C 
ATOM      5  C   UNL     1       3.258   6.110  19.269  0.00  0.00    +0.000 C 
ATOM      6  C   UNL     1       2.081   5.338  19.856  0.00  0.00    +0.000 C 
ATOM      7  C   UNL     1       2.433   4.312  20.924  0.00  0.00    +0.000 C 
ATOM      8  C   UNL     1       2.944   2.934  20.495  0.00  0.00    +0.000 C 
ATOM      9  C   UNL     1       2.642   2.460  19.076  0.00  0.00    +0.000 C 
ATOM     10  C   UNL     1       3.714   2.795  18.042  0.00  0.00    +0.000 C 
ATOM     11  C   UNL     1       3.750   4.234  17.529  0.00  0.00    +0.000 C 
ATOM     12  C   UNL     1       5.081   6.310  17.592  0.00  0.00    +0.000 C 
ATOM     13  O   UNL     1       4.546   6.989  16.725  0.00  0.00    +0.000 OA
ATOM     14  N   UNL     1       6.413   6.267  17.900  0.00  0.00    +0.000 N 
ATOM     15  H   UNL     1       5.367   4.214  20.066  0.00  0.00    +0.000 HD
ENDROOT
BRANCH  14  16
ATOM     16  C   UNL     1       7.498   7.016  17.272  0.00  0.00    +0.000 C 
BRANCH  16  17
ATOM     17  C   UNL     1       8.027   8.167  18.119  0.00  0.00    +0.000 C 
BRANCH  17  18
ATOM     18  O   UNL     1       7.862   9.433  17.478  0.00  0.00    +0.000 OA
BRANCH  18  19
ATOM     19  C   UNL     1       8.522  10.452  18.129  0.00  0.00    +0.000 A 
ATOM     20  C   UNL     1       9.320  10.057  19.204  0.00  0.00    +0.000 A 
ATOM     21  C   UNL     1      10.048  11.009  19.934  0.00  0.00    +0.000 A 
ATOM     22  C   UNL     1       9.973  12.359  19.601  0.00  0.00    +0.000 A 
ATOM     23  C   UNL     1       9.164  12.764  18.544  0.00  0.00    +0.000 A 
ATOM     24  C   UNL     1       8.442  11.819  17.822  0.00  0.00    +0.000 A 
ATOM     25  F   UNL     1       7.653  12.284  16.843  0.00  0.00    +0.000 F 
ENDBRANCH  18  19
ENDBRANCH  17  18
ENDBRANCH  16  17
ENDBRANCH  14  16
TORSDOF 4
ENDMDL
MODEL 6
REMARK VINA RESULT:      -8.1      4.060      5.773
REMARK  Name = 
REMARK  4 active torsions:
REMARK  status: ('A' for Active; 'I' for Inactive)
REMARK    1  A    between atoms: N_14  and  C_15
REMARK    2  A    between atoms: C_15  and  C_16
REMARK    3  A    between atoms: C_16  and  O_17
REMARK    4  A    between atoms: O_17  and  C_18
REMARK                            x       y       z     vdW  Elec       q    Type
REMARK                         _______ _______ _______ _____ _____    ______ ____
ROOT
ATOM      1  O   UNL     1       7.357   5.528  19.839  0.00  0.00    +0.000 OA
ATOM      2  C   UNL     1       6.542   5.706  18.951  0.00  0.00    +0.000 C 
ATOM      3  N   UNL     1       5.274   5.183  18.966  0.00  0.00    +0.000 N 
ATOM      4  C   UNL     1       4.503   5.501  17.787  0.00  0.00    +0.000 C 
ATOM      5  C   UNL     1       3.268   6.361  18.088  0.00  0.00    +0.000 C 
ATOM      6  C   UNL     1       1.952   5.634  18.346  0.00  0.00    +0.000 C 
ATOM      7  C   UNL     1       1.920   4.751  19.586  0.00  0.00    +0.000 C 
ATOM      8  C   UNL     1       2.524   3.345  19.517  0.00  0.00    +0.000 C 
ATOM      9  C   UNL     1       2.697   2.699  18.145  0.00  0.00    +0.000 C 
ATOM     10  C   UNL     1       4.053   2.937  17.486  0.00  0.00    +0.000 C 
ATOM     11  C   UNL     1       4.275   4.305  16.844  0.00  0.00    +0.000 C 
ATOM     12  C   UNL     1       5.542   6.408  17.088  0.00  0.00    +0.000 C 
ATOM     13  O   UNL     1       5.330   6.966  16.018  0.00  0.00    +0.000 OA
ATOM     14  N   UNL     1       6.699   6.436  17.817  0.00  0.00    +0.000 N 
ATOM     15  H   UNL     1       4.972   4.628  19.753  0.00  0.00    +0.000 HD
ENDROOT
BRANCH  14  16
ATOM     16  C   UNL     1       7.941   7.134  17.493  0.00  0.00    +0.000 C 
BRANCH  16  17
ATOM     17  C   UNL     1       7.939   8.610  17.874  0.00  0.00    +0.000 C 
BRANCH  17  18
ATOM     18  O   UNL     1       8.739   8.873  19.028  0.00  0.00    +0.000 OA
BRANCH  18  19
ATOM     19  C   UNL     1       9.154  10.185  19.102  0.00  0.00    +0.000 A 
ATOM     20  C   UNL     1       9.400  10.805  17.876  0.00  0.00    +0.000 A 
ATOM     21  C   UNL     1       9.817  12.144  17.831  0.00  0.00    +0.000 A 
ATOM     22  C   UNL     1      10.001  12.864  19.009  0.00  0.00    +0.000 A 
ATOM     23  C   UNL     1       9.778  12.248  20.235  0.00  0.00    +0.000 A 
ATOM     24  C   UNL     1       9.366  10.920  20.279  0.00  0.00    +0.000 A 
ATOM     25  F   UNL     1       9.208  10.378  21.495  0.00  0.00    +0.000 F 
ENDBRANCH  18  19
ENDBRANCH  17  18
ENDBRANCH  16  17
ENDBRANCH  14  16
TORSDOF 4
ENDMDL
MODEL 7
REMARK VINA RESULT:      -8.0      3.659      5.720
REMARK  Name = 
REMARK  4 active torsions:
REMARK  status: ('A' for Active; 'I' for Inactive)
REMARK    1  A    between atoms: N_14  and  C_15
REMARK    2  A    between atoms: C_15  and  C_16
REMARK    3  A    between atoms: C_16  and  O_17
REMARK    4  A    between atoms: O_17  and  C_18
REMARK                            x       y       z     vdW  Elec       q    Type
REMARK                         _______ _______ _______ _____ _____    ______ ____
ROOT
ATOM      1  O   UNL     1       5.473   6.667  15.546  0.00  0.00    +0.000 OA
ATOM      2  C   UNL     1       5.521   6.154  16.650  0.00  0.00    +0.000 C 
ATOM      3  N   UNL     1       4.518   5.375  17.170  0.00  0.00    +0.000 N 
ATOM      4  C   UNL     1       4.786   4.907  18.510  0.00  0.00    +0.000 C 
ATOM      5  C   UNL     1       4.903   3.379  18.603  0.00  0.00    +0.000 C 
ATOM      6  C   UNL     1       3.637   2.598  18.940  0.00  0.00    +0.000 C 
ATOM      7  C   UNL     1       2.520   2.676  17.909  0.00  0.00    +0.000 C 
ATOM      8  C   UNL     1       1.597   3.899  17.900  0.00  0.00    +0.000 C 
ATOM      9  C   UNL     1       1.502   4.742  19.168  0.00  0.00    +0.000 C 
ATOM     10  C   UNL     1       2.479   5.914  19.238  0.00  0.00    +0.000 C 
ATOM     11  C   UNL     1       3.927   5.582  19.595  0.00  0.00    +0.000 C 
ATOM     12  C   UNL     1       6.209   5.492  18.663  0.00  0.00    +0.000 C 
ATOM     13  O   UNL     1       6.894   5.331  19.665  0.00  0.00    +0.000 OA
ATOM     14  N   UNL     1       6.531   6.225  17.554  0.00  0.00    +0.000 N 
ATOM     15  H   UNL     1       3.692   5.191  16.621  0.00  0.00    +0.000 HD
ENDROOT
BRANCH  14  16
ATOM     16  C   UNL     1       7.758   6.979  17.308  0.00  0.00    +0.000 C 
BRANCH  16  17
ATOM     17  C   UNL     1       7.974   8.141  18.271  0.00  0.00    +0.000 C 
BRANCH  17  18
ATOM     18  O   UNL     1       7.716   9.406  17.662  0.00  0.00    +0.000 OA
BRANCH  18  19
ATOM     19  C   UNL     1       8.492  10.419  18.184  0.00  0.00    +0.000 A 
ATOM     20  C   UNL     1       9.345  10.043  19.223  0.00  0.00    +0.000 A 
ATOM     21  C   UNL     1      10.189  10.990  19.824  0.00  0.00    +0.000 A 
ATOM     22  C   UNL     1      10.175  12.316  19.398  0.00  0.00    +0.000 A 
ATOM     23  C   UNL     1       9.314  12.702  18.377  0.00  0.00    +0.000 A 
ATOM     24  C   UNL     1       8.476  11.763  17.784  0.00  0.00    +0.000 A 
ATOM     25  F   UNL     1       7.645  12.214  16.834  0.00  0.00    +0.000 F 
ENDBRANCH  18  19
ENDBRANCH  17  18
ENDBRANCH  16  17
ENDBRANCH  14  16
TORSDOF 4
ENDMDL
MODEL 8
REMARK VINA RESULT:      -7.7      3.908      5.955
REMARK  Name = 
REMARK  4 active torsions:
REMARK  status: ('A' for Active; 'I' for Inactive)
REMARK    1  A    between atoms: N_14  and  C_15
REMARK    2  A    between atoms: C_15  and  C_16
REMARK    3  A    between atoms: C_16  and  O_17
REMARK    4  A    between atoms: O_17  and  C_18
REMARK                            x       y       z     vdW  Elec       q    Type
REMARK                         _______ _______ _______ _____ _____    ______ ____
ROOT
ATOM      1  O   UNL     1       5.821   6.413  15.432  0.00  0.00    +0.000 OA
ATOM      2  C   UNL     1       5.790   6.010  16.581  0.00  0.00    +0.000 C 
ATOM      3  N   UNL     1       4.794   5.210  17.081  0.00  0.00    +0.000 N 
ATOM      4  C   UNL     1       4.954   4.891  18.480  0.00  0.00    +0.000 C 
ATOM      5  C   UNL     1       5.162   3.393  18.737  0.00  0.00    +0.000 C 
ATOM      6  C   UNL     1       3.923   2.552  19.030  0.00  0.00    +0.000 C 
ATOM      7  C   UNL     1       2.914   2.448  17.895  0.00  0.00    +0.000 C 
ATOM      8  C   UNL     1       1.918   3.591  17.676  0.00  0.00    +0.000 C 
ATOM      9  C   UNL     1       1.639   4.541  18.838  0.00  0.00    +0.000 C 
ATOM     10  C   UNL     1       2.524   5.785  18.882  0.00  0.00    +0.000 C 
ATOM     11  C   UNL     1       3.947   5.598  19.405  0.00  0.00    +0.000 C 
ATOM     12  C   UNL     1       6.313   5.595  18.707  0.00  0.00    +0.000 C 
ATOM     13  O   UNL     1       6.902   5.581  19.780  0.00  0.00    +0.000 OA
ATOM     14  N   UNL     1       6.696   6.242  17.565  0.00  0.00    +0.000 N 
ATOM     15  H   UNL     1       4.041   4.913  16.477  0.00  0.00    +0.000 HD
ENDROOT
BRANCH  14  16
ATOM     16  C   UNL     1       7.889   7.061  17.362  0.00  0.00    +0.000 C 
BRANCH  16  17
ATOM     17  C   UNL     1       7.756   8.488  17.880  0.00  0.00    +0.000 C 
BRANCH  17  18
ATOM     18  O   UNL     1       8.760   8.812  18.843  0.00  0.00    +0.000 OA
BRANCH  18  19
ATOM     19  C   UNL     1       8.962  10.169  18.969  0.00  0.00    +0.000 A 
ATOM     20  C   UNL     1       8.932  10.892  17.775  0.00  0.00    +0.000 A 
ATOM     21  C   UNL     1       9.115  12.283  17.785  0.00  0.00    +0.000 A 
ATOM     22  C   UNL     1       9.341  12.955  18.984  0.00  0.00    +0.000 A 
ATOM     23  C   UNL     1       9.393  12.240  20.175  0.00  0.00    +0.000 A 
ATOM     24  C   UNL     1       9.212  10.860  20.164  0.00  0.00    +0.000 A 
ATOM     25  F   UNL     1       9.314  10.231  21.343  0.00  0.00    +0.000 F 
ENDBRANCH  18  19
ENDBRANCH  17  18
ENDBRANCH  16  17
ENDBRANCH  14  16
TORSDOF 4
ENDMDL
MODEL 9
REMARK VINA RESULT:      -7.6      1.462      2.015
REMARK  Name = 
REMARK  4 active torsions:
REMARK  status: ('A' for Active; 'I' for Inactive)
REMARK    1  A    between atoms: N_14  and  C_15
REMARK    2  A    between atoms: C_15  and  C_16
REMARK    3  A    between atoms: C_16  and  O_17
REMARK    4  A    between atoms: O_17  and  C_18
REMARK                            x       y       z     vdW  Elec       q    Type
REMARK                         _______ _______ _______ _____ _____    ______ ____
ROOT
ATOM      1  O   UNL     1       6.811   5.666  19.614  0.00  0.00    +0.000 OA
ATOM      2  C   UNL     1       5.970   4.983  19.055  0.00  0.00    +0.000 C 
ATOM      3  N   UNL     1       4.736   4.709  19.589  0.00  0.00    +0.000 N 
ATOM      4  C   UNL     1       3.926   3.849  18.758  0.00  0.00    +0.000 C 
ATOM      5  C   UNL     1       2.648   4.530  18.252  0.00  0.00    +0.000 C 
ATOM      6  C   UNL     1       1.383   4.358  19.088  0.00  0.00    +0.000 C 
ATOM      7  C   UNL     1       1.427   4.968  20.482  0.00  0.00    +0.000 C 
ATOM      8  C   UNL     1       2.113   4.196  21.613  0.00  0.00    +0.000 C 
ATOM      9  C   UNL     1       2.299   2.690  21.452  0.00  0.00    +0.000 C 
ATOM     10  C   UNL     1       3.626   2.267  20.826  0.00  0.00    +0.000 C 
ATOM     11  C   UNL     1       3.754   2.422  19.311  0.00  0.00    +0.000 C 
ATOM     12  C   UNL     1       4.896   3.730  17.559  0.00  0.00    +0.000 C 
ATOM     13  O   UNL     1       4.631   3.096  16.546  0.00  0.00    +0.000 OA
ATOM     14  N   UNL     1       6.062   4.388  17.838  0.00  0.00    +0.000 N 
ATOM     15  H   UNL     1       4.483   5.095  20.486  0.00  0.00    +0.000 HD
ENDROOT
BRANCH  14  16
ATOM     16  C   UNL     1       7.253   4.487  16.999  0.00  0.00    +0.000 C 
BRANCH  16  17
ATOM     17  C   UNL     1       7.287   5.729  16.116  0.00  0.00    +0.000 C 
BRANCH  17  18
ATOM     18  O   UNL     1       6.178   5.786  15.217  0.00  0.00    +0.000 OA
BRANCH  18  19
ATOM     19  C   UNL     1       6.364   5.016  14.090  0.00  0.00    +0.000 A 
ATOM     20  C   UNL     1       5.346   4.101  13.816  0.00  0.00    +0.000 A 
ATOM     21  C   UNL     1       5.423   3.272  12.687  0.00  0.00    +0.000 A 
ATOM     22  C   UNL     1       6.523   3.345  11.835  0.00  0.00    +0.000 A 
ATOM     23  C   UNL     1       7.551   4.239  12.111  0.00  0.00    +0.000 A 
ATOM     24  C   UNL     1       7.473   5.060  13.232  0.00  0.00    +0.000 A 
ATOM     25  F   UNL     1       8.518   5.869  13.458  0.00  0.00    +0.000 F 
ENDBRANCH  18  19
ENDBRANCH  17  18
ENDBRANCH  16  17
ENDBRANCH  14  16
TORSDOF 4
ENDMDL
