MODEL 1
REMARK VINA RESULT:      -7.6      0.000      0.000
REMARK  Name = 
REMARK  8 active torsions:
REMARK  status: ('A' for Active; 'I' for Inactive)
REMARK    1  A    between atoms: C_1  and  C_2
REMARK    2  A    between atoms: C_4  and  C_5
REMARK    3  A    between atoms: N_9  and  C_10
REMARK    4  A    between atoms: C_10  and  C_12
REMARK    5  A    between atoms: C_12  and  C_13
REMARK    6  A    between atoms: C_12  and  C_20
REMARK    7  A    between atoms: C_20  and  C_21
REMARK    8  A    between atoms: C_20  and  C_22
REMARK                            x       y       z     vdW  Elec       q    Type
REMARK                         _______ _______ _______ _____ _____    ______ ____
ROOT
ATOM      1  C   UNL     1       2.604   4.879  18.747  0.00  0.00    +0.000 C 
ATOM      2  O   UNL     1       1.548   4.357  19.109  0.00  0.00    +0.000 OA
ENDROOT
BRANCH   1  11
ATOM      3  C   UNL     1       0.730  12.786  18.778  0.00  0.00    +0.000 C 
ATOM      4  C   UNL     1       0.927  11.341  19.171  0.00  0.00    +0.000 A 
ATOM      5  C   UNL     1       0.394  10.948  20.520  0.00  0.00    +0.000 A 
ATOM      6  C   UNL     1       0.637   9.686  20.909  0.00  0.00    +0.000 A 
ATOM      7  C   UNL     1       0.129   9.153  22.220  0.00  0.00    +0.000 C 
ATOM      8  N   UNL     1       1.341   8.871  20.055  0.00  0.00    +0.000 N 
ATOM      9  S   UNL     1       1.783   7.317  20.370  0.00  0.00    +0.000 S 
ATOM     10  C   UNL     1       2.320   7.157  18.686  0.00  0.00    +0.000 A 
ATOM     11  N   UNL     1       2.707   6.082  18.086  0.00  0.00    +0.000 NA
ATOM     12  N   UNL     1       2.280   8.362  18.001  0.00  0.00    +0.000 NA
ATOM     13  C   UNL     1       1.724   9.251  18.785  0.00  0.00    +0.000 A 
ATOM     14  N   UNL     1       1.539  10.543  18.343  0.00  0.00    +0.000 NA
ENDBRANCH   1  11
BRANCH   1  15
ATOM     15  C   UNL     1       3.900   4.075  18.894  0.00  0.00    +0.000 C 
BRANCH  15  16
ATOM     16  C   UNL     1       4.801   4.276  17.680  0.00  0.00    +0.000 A 
ATOM     17  C   UNL     1       4.357   4.141  16.359  0.00  0.00    +0.000 A 
ATOM     18  C   UNL     1       5.235   4.341  15.287  0.00  0.00    +0.000 A 
ATOM     19  C   UNL     1       6.561   4.696  15.524  0.00  0.00    +0.000 A 
ATOM     20 CL   UNL     1       7.634   4.944  14.203  0.00  0.00    +0.000 Cl
ATOM     21  C   UNL     1       7.019   4.856  16.827  0.00  0.00    +0.000 A 
ATOM     22  C   UNL     1       6.144   4.649  17.897  0.00  0.00    +0.000 A 
ENDBRANCH  15  16
BRANCH  15  23
ATOM     23  C   UNL     1       3.579   2.629  19.371  0.00  0.00    +0.000 C 
ATOM     24  C   UNL     1       3.522   1.645  18.197  0.00  0.00    +0.000 C 
ATOM     25  C   UNL     1       4.648   2.120  20.358  0.00  0.00    +0.000 C 
ENDBRANCH  15  23
ENDBRANCH   1  15
TORSDOF 4
ENDMDL
MODEL 2
REMARK VINA RESULT:      -7.3      1.494      1.872
REMARK  Name = 
REMARK  8 active torsions:
REMARK  status: ('A' for Active; 'I' for Inactive)
REMARK    1  A    between atoms: C_1  and  C_2
REMARK    2  A    between atoms: C_4  and  C_5
REMARK    3  A    between atoms: N_9  and  C_10
REMARK    4  A    between atoms: C_10  and  C_12
REMARK    5  A    between atoms: C_12  and  C_13
REMARK    6  A    between atoms: C_12  and  C_20
REMARK    7  A    between atoms: C_20  and  C_21
REMARK    8  A    between atoms: C_20  and  C_22
REMARK                            x       y       z     vdW  Elec       q    Type
REMARK                         _______ _______ _______ _____ _____    ______ ____
ROOT
ATOM      1  C   UNL     1       3.547   6.338  17.787  0.00  0.00    +0.000 C 
ATOM      2  O   UNL     1       2.736   5.438  18.013  0.00  0.00    +0.000 OA
ENDROOT
BRANCH   1  11
ATOM      3  C   UNL     1      -0.973  12.934  19.230  0.00  0.00    +0.000 C 
ATOM      4  C   UNL     1      -0.283  11.596  19.346  0.00  0.00    +0.000 A 
ATOM      5  C   UNL     1      -0.643  10.773  20.550  0.00  0.00    +0.000 A 
ATOM      6  C   UNL     1       0.027   9.618  20.701  0.00  0.00    +0.000 A 
ATOM      7  C   UNL     1      -0.261   8.684  21.843  0.00  0.00    +0.000 C 
ATOM      8  N   UNL     1       0.970   9.290  19.757  0.00  0.00    +0.000 N 
ATOM      9  S   UNL     1       1.928   7.953  19.792  0.00  0.00    +0.000 S 
ATOM     10  C   UNL     1       2.484   8.340  18.152  0.00  0.00    +0.000 A 
ATOM     11  N   UNL     1       3.222   7.613  17.383  0.00  0.00    +0.000 NA
ATOM     12  N   UNL     1       2.024   9.574  17.715  0.00  0.00    +0.000 NA
ATOM     13  C   UNL     1       1.194  10.034  18.616  0.00  0.00    +0.000 A 
ATOM     14  N   UNL     1       0.568  11.247  18.423  0.00  0.00    +0.000 NA
ENDBRANCH   1  11
BRANCH   1  15
ATOM     15  C   UNL     1       5.039   5.992  17.798  0.00  0.00    +0.000 C 
BRANCH  15  16
ATOM     16  C   UNL     1       5.458   5.363  16.472  0.00  0.00    +0.000 A 
ATOM     17  C   UNL     1       4.629   4.519  15.722  0.00  0.00    +0.000 A 
ATOM     18  C   UNL     1       5.071   3.975  14.511  0.00  0.00    +0.000 A 
ATOM     19  C   UNL     1       6.341   4.283  14.028  0.00  0.00    +0.000 A 
ATOM     20 CL   UNL     1       6.879   3.615  12.537  0.00  0.00    +0.000 Cl
ATOM     21  C   UNL     1       7.174   5.134  14.745  0.00  0.00    +0.000 A 
ATOM     22  C   UNL     1       6.735   5.671  15.958  0.00  0.00    +0.000 A 
ENDBRANCH  15  16
BRANCH  15  23
ATOM     23  C   UNL     1       5.411   5.277  19.128  0.00  0.00    +0.000 C 
ATOM     24  C   UNL     1       5.143   3.769  19.056  0.00  0.00    +0.000 C 
ATOM     25  C   UNL     1       6.902   5.472  19.466  0.00  0.00    +0.000 C 
ENDBRANCH  15  23
ENDBRANCH   1  15
TORSDOF 4
ENDMDL
MODEL 3
REMARK VINA RESULT:      -7.2      1.020      1.606
REMARK  Name = 
REMARK  8 active torsions:
REMARK  status: ('A' for Active; 'I' for Inactive)
REMARK    1  A    between atoms: C_1  and  C_2
REMARK    2  A    between atoms: C_4  and  C_5
REMARK    3  A    between atoms: N_9  and  C_10
REMARK    4  A    between atoms: C_10  and  C_12
REMARK    5  A    between atoms: C_12  and  C_13
REMARK    6  A    between atoms: C_12  and  C_20
REMARK    7  A    between atoms: C_20  and  C_21
REMARK    8  A    between atoms: C_20  and  C_22
REMARK                            x       y       z     vdW  Elec       q    Type
REMARK                         _______ _______ _______ _____ _____    ______ ____
ROOT
ATOM      1  C   UNL     1       3.507   5.257  18.986  0.00  0.00    +0.000 C 
ATOM      2  O   UNL     1       3.254   5.120  20.185  0.00  0.00    +0.000 OA
ENDROOT
BRANCH   1  11
ATOM      3  C   UNL     1      -0.402  12.361  18.454  0.00  0.00    +0.000 C 
ATOM      4  C   UNL     1       0.139  11.036  18.937  0.00  0.00    +0.000 A 
ATOM      5  C   UNL     1      -0.383  10.558  20.262  0.00  0.00    +0.000 A 
ATOM      6  C   UNL     1       0.153   9.421  20.736  0.00  0.00    +0.000 A 
ATOM      7  C   UNL     1      -0.304   8.813  22.032  0.00  0.00    +0.000 C 
ATOM      8  N   UNL     1       1.119   8.799  19.981  0.00  0.00    +0.000 N 
ATOM      9  S   UNL     1       1.931   7.434  20.410  0.00  0.00    +0.000 S 
ATOM     10  C   UNL     1       2.633   7.371  18.782  0.00  0.00    +0.000 A 
ATOM     11  N   UNL     1       3.342   6.422  18.270  0.00  0.00    +0.000 NA
ATOM     12  N   UNL     1       2.331   8.498  18.032  0.00  0.00    +0.000 NA
ATOM     13  C   UNL     1       1.494   9.228  18.723  0.00  0.00    +0.000 A 
ATOM     14  N   UNL     1       1.009  10.407  18.200  0.00  0.00    +0.000 NA
ENDBRANCH   1  11
BRANCH   1  15
ATOM     15  C   UNL     1       3.886   4.014  18.176  0.00  0.00    +0.000 C 
BRANCH  15  16
ATOM     16  C   UNL     1       4.911   4.362  17.100  0.00  0.00    +0.000 A 
ATOM     17  C   UNL     1       6.196   4.840  17.384  0.00  0.00    +0.000 A 
ATOM     18  C   UNL     1       7.092   5.138  16.351  0.00  0.00    +0.000 A 
ATOM     19  C   UNL     1       6.717   4.946  15.023  0.00  0.00    +0.000 A 
ATOM     20 CL   UNL     1       7.823   5.312  13.757  0.00  0.00    +0.000 Cl
ATOM     21  C   UNL     1       5.454   4.454  14.718  0.00  0.00    +0.000 A 
ATOM     22  C   UNL     1       4.558   4.162  15.749  0.00  0.00    +0.000 A 
ENDBRANCH  15  16
BRANCH  15  23
ATOM     23  C   UNL     1       2.605   3.226  17.778  0.00  0.00    +0.000 C 
ATOM     24  C   UNL     1       2.300   2.100  18.773  0.00  0.00    +0.000 C 
ATOM     25  C   UNL     1       1.375   4.153  17.729  0.00  0.00    +0.000 C 
ENDBRANCH  15  23
ENDBRANCH   1  15
TORSDOF 4
ENDMDL
MODEL 4
REMARK VINA RESULT:      -7.1      2.101      3.097
REMARK  Name = 
REMARK  8 active torsions:
REMARK  status: ('A' for Active; 'I' for Inactive)
REMARK    1  A    between atoms: C_1  and  C_2
REMARK    2  A    between atoms: C_4  and  C_5
REMARK    3  A    between atoms: N_9  and  C_10
REMARK    4  A    between atoms: C_10  and  C_12
REMARK    5  A    between atoms: C_12  and  C_13
REMARK    6  A    between atoms: C_12  and  C_20
REMARK    7  A    between atoms: C_20  and  C_21
REMARK    8  A    between atoms: C_20  and  C_22
REMARK                            x       y       z     vdW  Elec       q    Type
REMARK                         _______ _______ _______ _____ _____    ______ ____
ROOT
ATOM      1  C   UNL     1       2.182   6.910  19.925  0.00  0.00    +0.000 C 
ATOM      2  O   UNL     1       2.491   7.570  18.931  0.00  0.00    +0.000 OA
ENDROOT
BRANCH   1  11
ATOM      3  C   UNL     1      -1.332  13.383  23.358  0.00  0.00    +0.000 C 
ATOM      4  C   UNL     1      -0.674  12.439  22.380  0.00  0.00    +0.000 A 
ATOM      5  C   UNL     1      -0.347  13.013  21.031  0.00  0.00    +0.000 A 
ATOM      6  C   UNL     1       0.164  12.158  20.130  0.00  0.00    +0.000 A 
ATOM      7  C   UNL     1       0.567  12.609  18.754  0.00  0.00    +0.000 C 
ATOM      8  N   UNL     1       0.343  10.849  20.511  0.00  0.00    +0.000 N 
ATOM      9  S   UNL     1       0.903   9.643  19.542  0.00  0.00    +0.000 S 
ATOM     10  C   UNL     1       0.994   8.581  20.960  0.00  0.00    +0.000 A 
ATOM     11  N   UNL     1       1.512   7.401  21.024  0.00  0.00    +0.000 NA
ATOM     12  N   UNL     1       0.437   9.160  22.091  0.00  0.00    +0.000 NA
ATOM     13  C   UNL     1       0.117  10.393  21.794  0.00  0.00    +0.000 A 
ATOM     14  N   UNL     1      -0.443  11.212  22.751  0.00  0.00    +0.000 NA
ENDBRANCH   1  11
BRANCH   1  15
ATOM     15  C   UNL     1       2.707   5.476  20.039  0.00  0.00    +0.000 C 
BRANCH  15  16
ATOM     16  C   UNL     1       3.768   5.203  18.977  0.00  0.00    +0.000 A 
ATOM     17  C   UNL     1       3.467   4.942  17.635  0.00  0.00    +0.000 A 
ATOM     18  C   UNL     1       4.489   4.702  16.708  0.00  0.00    +0.000 A 
ATOM     19  C   UNL     1       5.822   4.737  17.110  0.00  0.00    +0.000 A 
ATOM     20 CL   UNL     1       7.072   4.445  15.966  0.00  0.00    +0.000 Cl
ATOM     21  C   UNL     1       6.145   5.014  18.434  0.00  0.00    +0.000 A 
ATOM     22  C   UNL     1       5.125   5.247  19.360  0.00  0.00    +0.000 A 
ENDBRANCH  15  16
BRANCH  15  23
ATOM     23  C   UNL     1       1.519   4.484  20.197  0.00  0.00    +0.000 C 
ATOM     24  C   UNL     1       1.249   3.712  18.900  0.00  0.00    +0.000 C 
ATOM     25  C   UNL     1       1.800   3.452  21.307  0.00  0.00    +0.000 C 
ENDBRANCH  15  23
ENDBRANCH   1  15
TORSDOF 4
ENDMDL
MODEL 5
REMARK VINA RESULT:      -7.1      2.079      3.219
REMARK  Name = 
REMARK  8 active torsions:
REMARK  status: ('A' for Active; 'I' for Inactive)
REMARK    1  A    between atoms: C_1  and  C_2
REMARK    2  A    between atoms: C_4  and  C_5
REMARK    3  A    between atoms: N_9  and  C_10
REMARK    4  A    between atoms: C_10  and  C_12
REMARK    5  A    between atoms: C_12  and  C_13
REMARK    6  A    between atoms: C_12  and  C_20
REMARK    7  A    between atoms: C_20  and  C_21
REMARK    8  A    between atoms: C_20  and  C_22
REMARK                            x       y       z     vdW  Elec       q    Type
REMARK                         _______ _______ _______ _____ _____    ______ ____
ROOT
ATOM      1  C   UNL     1       2.157   6.690  20.071  0.00  0.00    +0.000 C 
ATOM      2  O   UNL     1       2.366   7.258  18.996  0.00  0.00    +0.000 OA
ENDROOT
BRANCH   1  11
ATOM      3  C   UNL     1      -1.226  13.357  23.254  0.00  0.00    +0.000 C 
ATOM      4  C   UNL     1      -0.554  12.375  22.324  0.00  0.00    +0.000 A 
ATOM      5  C   UNL     1      -0.103  12.926  21.001  0.00  0.00    +0.000 A 
ATOM      6  C   UNL     1       0.422  12.041  20.138  0.00  0.00    +0.000 A 
ATOM      7  C   UNL     1       0.945  12.465  18.794  0.00  0.00    +0.000 C 
ATOM      8  N   UNL     1       0.502  10.726  20.529  0.00  0.00    +0.000 N 
ATOM      9  S   UNL     1       1.061   9.488  19.601  0.00  0.00    +0.000 S 
ATOM     10  C   UNL     1       0.994   8.427  21.021  0.00  0.00    +0.000 A 
ATOM     11  N   UNL     1       1.441   7.220  21.120  0.00  0.00    +0.000 NA
ATOM     12  N   UNL     1       0.392   9.039  22.111  0.00  0.00    +0.000 NA
ATOM     13  C   UNL     1       0.162  10.288  21.793  0.00  0.00    +0.000 A 
ATOM     14  N   UNL     1      -0.417  11.139  22.709  0.00  0.00    +0.000 NA
ENDBRANCH   1  11
BRANCH   1  15
ATOM     15  C   UNL     1       2.868   5.361  20.341  0.00  0.00    +0.000 C 
BRANCH  15  16
ATOM     16  C   UNL     1       3.724   4.953  19.145  0.00  0.00    +0.000 A 
ATOM     17  C   UNL     1       5.119   5.075  19.117  0.00  0.00    +0.000 A 
ATOM     18  C   UNL     1       5.847   4.679  17.989  0.00  0.00    +0.000 A 
ATOM     19  C   UNL     1       5.190   4.142  16.884  0.00  0.00    +0.000 A 
ATOM     20 CL   UNL     1       6.090   3.655  15.502  0.00  0.00    +0.000 Cl
ATOM     21  C   UNL     1       3.808   3.993  16.898  0.00  0.00    +0.000 A 
ATOM     22  C   UNL     1       3.080   4.394  18.021  0.00  0.00    +0.000 A 
ENDBRANCH  15  16
BRANCH  15  23
ATOM     23  C   UNL     1       1.868   4.334  20.945  0.00  0.00    +0.000 C 
ATOM     24  C   UNL     1       0.838   3.869  19.908  0.00  0.00    +0.000 C 
ATOM     25  C   UNL     1       2.603   3.085  21.468  0.00  0.00    +0.000 C 
ENDBRANCH  15  23
ENDBRANCH   1  15
TORSDOF 4
ENDMDL
MODEL 6
REMARK VINA RESULT:      -7.1      1.121      1.387
REMARK  Name = 
REMARK  8 active torsions:
REMARK  status: ('A' for Active; 'I' for Inactive)
REMARK    1  A    between atoms: C_1  and  C_2
REMARK    2  A    between atoms: C_4  and  C_5
REMARK    3  A    between atoms: N_9  and  C_10
REMARK    4  A    between atoms: C_10  and  C_12
REMARK    5  A    between atoms: C_12  and  C_13
REMARK    6  A    between atoms: C_12  and  C_20
REMARK    7  A    between atoms: C_20  and  C_21
REMARK    8  A    between atoms: C_20  and  C_22
REMARK                            x       y       z     vdW  Elec       q    Type
REMARK                         _______ _______ _______ _____ _____    ______ ____
ROOT
ATOM      1  C   UNL     1       3.715   5.245  18.715  0.00  0.00    +0.000 C 
ATOM      2  O   UNL     1       3.596   5.114  19.935  0.00  0.00    +0.000 OA
ENDROOT
BRANCH   1  11
ATOM      3  C   UNL     1      -0.440  12.221  18.375  0.00  0.00    +0.000 C 
ATOM      4  C   UNL     1       0.156  10.909  18.827  0.00  0.00    +0.000 A 
ATOM      5  C   UNL     1      -0.317  10.396  20.157  0.00  0.00    +0.000 A 
ATOM      6  C   UNL     1       0.268   9.271  20.602  0.00  0.00    +0.000 A 
ATOM      7  C   UNL     1      -0.137   8.632  21.901  0.00  0.00    +0.000 C 
ATOM      8  N   UNL     1       1.236   8.692  19.816  0.00  0.00    +0.000 N 
ATOM      9  S   UNL     1       2.102   7.349  20.206  0.00  0.00    +0.000 S 
ATOM     10  C   UNL     1       2.766   7.331  18.561  0.00  0.00    +0.000 A 
ATOM     11  N   UNL     1       3.493   6.413  18.019  0.00  0.00    +0.000 NA
ATOM     12  N   UNL     1       2.409   8.457  17.834  0.00  0.00    +0.000 NA
ATOM     13  C   UNL     1       1.565   9.149  18.555  0.00  0.00    +0.000 A 
ATOM     14  N   UNL     1       1.029  10.319  18.060  0.00  0.00    +0.000 NA
ENDBRANCH   1  11
BRANCH   1  15
ATOM     15  C   UNL     1       3.974   3.994  17.870  0.00  0.00    +0.000 C 
BRANCH  15  16
ATOM     16  C   UNL     1       4.943   4.302  16.732  0.00  0.00    +0.000 A 
ATOM     17  C   UNL     1       4.589   4.239  15.379  0.00  0.00    +0.000 A 
ATOM     18  C   UNL     1       5.524   4.537  14.381  0.00  0.00    +0.000 A 
ATOM     19  C   UNL     1       6.819   4.916  14.727  0.00  0.00    +0.000 A 
ATOM     20 CL   UNL     1       7.964   5.283  13.497  0.00  0.00    +0.000 Cl
ATOM     21  C   UNL     1       7.188   5.004  16.065  0.00  0.00    +0.000 A 
ATOM     22  C   UNL     1       6.256   4.701  17.060  0.00  0.00    +0.000 A 
ENDBRANCH  15  16
BRANCH  15  23
ATOM     23  C   UNL     1       2.631   3.278  17.551  0.00  0.00    +0.000 C 
ATOM     24  C   UNL     1       2.377   2.100  18.499  0.00  0.00    +0.000 C 
ATOM     25  C   UNL     1       1.440   4.248  17.679  0.00  0.00    +0.000 C 
ENDBRANCH  15  23
ENDBRANCH   1  15
TORSDOF 4
ENDMDL
MODEL 7
REMARK VINA RESULT:      -7.1      1.268      1.456
REMARK  Name = 
REMARK  8 active torsions:
REMARK  status: ('A' for Active; 'I' for Inactive)
REMARK    1  A    between atoms: C_1  and  C_2
REMARK    2  A    between atoms: C_4  and  C_5
REMARK    3  A    between atoms: N_9  and  C_10
REMARK    4  A    between atoms: C_10  and  C_12
REMARK    5  A    between atoms: C_12  and  C_13
REMARK    6  A    between atoms: C_12  and  C_20
REMARK    7  A    between atoms: C_20  and  C_21
REMARK    8  A    between atoms: C_20  and  C_22
REMARK                            x       y       z     vdW  Elec       q    Type
REMARK                         _______ _______ _______ _____ _____    ______ ____
ROOT
ATOM      1  C   UNL     1       2.701   5.503  19.990  0.00  0.00    +0.000 C 
ATOM      2  O   UNL     1       2.421   5.553  21.189  0.00  0.00    +0.000 OA
ENDROOT
BRANCH   1  11
ATOM      3  C   UNL     1      -0.526  12.821  18.553  0.00  0.00    +0.000 C 
ATOM      4  C   UNL     1      -0.084  11.535  19.210  0.00  0.00    +0.000 A 
ATOM      5  C   UNL     1      -0.556  11.321  20.620  0.00  0.00    +0.000 A 
ATOM      6  C   UNL     1      -0.101  10.219  21.238  0.00  0.00    +0.000 A 
ATOM      7  C   UNL     1      -0.523   9.868  22.637  0.00  0.00    +0.000 C 
ATOM      8  N   UNL     1       0.745   9.390  20.540  0.00  0.00    +0.000 N 
ATOM      9  S   UNL     1       1.448   8.027  21.135  0.00  0.00    +0.000 S 
ATOM     10  C   UNL     1       2.024   7.643  19.501  0.00  0.00    +0.000 A 
ATOM     11  N   UNL     1       2.600   6.557  19.109  0.00  0.00    +0.000 NA
ATOM     12  N   UNL     1       1.782   8.669  18.600  0.00  0.00    +0.000 NA
ATOM     13  C   UNL     1       1.070   9.580  19.212  0.00  0.00    +0.000 A 
ATOM     14  N   UNL     1       0.667  10.712  18.536  0.00  0.00    +0.000 NA
ENDBRANCH   1  11
BRANCH   1  15
ATOM     15  C   UNL     1       3.039   4.141  19.378  0.00  0.00    +0.000 C 
BRANCH  15  16
ATOM     16  C   UNL     1       4.119   4.281  18.310  0.00  0.00    +0.000 A 
ATOM     17  C   UNL     1       3.865   4.175  16.936  0.00  0.00    +0.000 A 
ATOM     18  C   UNL     1       4.901   4.316  16.006  0.00  0.00    +0.000 A 
ATOM     19  C   UNL     1       6.199   4.581  16.437  0.00  0.00    +0.000 A 
ATOM     20 CL   UNL     1       7.467   4.757  15.289  0.00  0.00    +0.000 Cl
ATOM     21  C   UNL     1       6.471   4.710  17.795  0.00  0.00    +0.000 A 
ATOM     22  C   UNL     1       5.438   4.562  18.724  0.00  0.00    +0.000 A 
ENDBRANCH  15  16
BRANCH  15  23
ATOM     23  C   UNL     1       1.731   3.369  19.039  0.00  0.00    +0.000 C 
ATOM     24  C   UNL     1       1.994   1.874  18.825  0.00  0.00    +0.000 C 
ATOM     25  C   UNL     1       0.696   3.505  20.172  0.00  0.00    +0.000 C 
ENDBRANCH  15  23
ENDBRANCH   1  15
TORSDOF 4
ENDMDL
MODEL 8
REMARK VINA RESULT:      -7.0      1.532      2.381
REMARK  Name = 
REMARK  8 active torsions:
REMARK  status: ('A' for Active; 'I' for Inactive)
REMARK    1  A    between atoms: C_1  and  C_2
REMARK    2  A    between atoms: C_4  and  C_5
REMARK    3  A    between atoms: N_9  and  C_10
REMARK    4  A    between atoms: C_10  and  C_12
REMARK    5  A    between atoms: C_12  and  C_13
REMARK    6  A    between atoms: C_12  and  C_20
REMARK    7  A    between atoms: C_20  and  C_21
REMARK    8  A    between atoms: C_20  and  C_22
REMARK                            x       y       z     vdW  Elec       q    Type
REMARK                         _______ _______ _______ _____ _____    ______ ____
ROOT
ATOM      1  C   UNL     1       3.693   5.996  18.580  0.00  0.00    +0.000 C 
ATOM      2  O   UNL     1       4.069   6.956  17.903  0.00  0.00    +0.000 OA
ENDROOT
BRANCH   1  11
ATOM      3  C   UNL     1      -1.107  10.733  23.113  0.00  0.00    +0.000 C 
ATOM      4  C   UNL     1      -0.244  10.183  22.002  0.00  0.00    +0.000 A 
ATOM      5  C   UNL     1       0.026  11.117  20.857  0.00  0.00    +0.000 A 
ATOM      6  C   UNL     1       0.725  10.609  19.829  0.00  0.00    +0.000 A 
ATOM      7  C   UNL     1       1.095  11.446  18.636  0.00  0.00    +0.000 C 
ATOM      8  N   UNL     1       1.129   9.298  19.908  0.00  0.00    +0.000 N 
ATOM      9  S   UNL     1       1.944   8.480  18.736  0.00  0.00    +0.000 S 
ATOM     10  C   UNL     1       2.172   7.135  19.870  0.00  0.00    +0.000 A 
ATOM     11  N   UNL     1       2.898   6.081  19.701  0.00  0.00    +0.000 NA
ATOM     12  N   UNL     1       1.469   7.314  21.052  0.00  0.00    +0.000 NA
ATOM     13  C   UNL     1       0.939   8.510  21.025  0.00  0.00    +0.000 A 
ATOM     14  N   UNL     1       0.196   8.961  22.095  0.00  0.00    +0.000 NA
ENDBRANCH   1  11
BRANCH   1  15
ATOM     15  C   UNL     1       4.267   4.613  18.261  0.00  0.00    +0.000 C 
BRANCH  15  16
ATOM     16  C   UNL     1       5.131   4.662  17.004  0.00  0.00    +0.000 A 
ATOM     17  C   UNL     1       4.608   4.607  15.706  0.00  0.00    +0.000 A 
ATOM     18  C   UNL     1       5.454   4.659  14.593  0.00  0.00    +0.000 A 
ATOM     19  C   UNL     1       6.831   4.784  14.765  0.00  0.00    +0.000 A 
ATOM     20 CL   UNL     1       7.866   4.851  13.393  0.00  0.00    +0.000 Cl
ATOM     21  C   UNL     1       7.371   4.860  16.044  0.00  0.00    +0.000 A 
ATOM     22  C   UNL     1       6.526   4.801  17.155  0.00  0.00    +0.000 A 
ENDBRANCH  15  16
BRANCH  15  23
ATOM     23  C   UNL     1       3.152   3.533  18.375  0.00  0.00    +0.000 C 
ATOM     24  C   UNL     1       1.955   3.858  17.475  0.00  0.00    +0.000 C 
ATOM     25  C   UNL     1       3.681   2.144  17.968  0.00  0.00    +0.000 C 
ENDBRANCH  15  23
ENDBRANCH   1  15
TORSDOF 4
ENDMDL
MODEL 9
REMARK VINA RESULT:      -7.0      0.866      1.378
REMARK  Name = 
REMARK  8 active torsions:
REMARK  status: ('A' for Active; 'I' for Inactive)
REMARK    1  A    between atoms: C_1  and  C_2
REMARK    2  A    between atoms: C_4  and  C_5
REMARK    3  A    between atoms: N_9  and  C_10
REMARK    4  A    between atoms: C_10  and  C_12
REMARK    5  A    between atoms: C_12  and  C_13
REMARK    6  A    between atoms: C_12  and  C_20
REMARK    7  A    between atoms: C_20  and  C_21
REMARK    8  A    between atoms: C_20  and  C_22
REMARK                            x       y       z     vdW  Elec       q    Type
REMARK                         _______ _______ _______ _____ _____    ______ ____
ROOT
ATOM      1  C   UNL     1       3.089   5.011  19.837  0.00  0.00    +0.000 C 
ATOM      2  O   UNL     1       2.490   4.925  20.911  0.00  0.00    +0.000 OA
ENDROOT
BRANCH   1  11
ATOM      3  C   UNL     1      -0.133  12.332  18.407  0.00  0.00    +0.000 C 
ATOM      4  C   UNL     1       0.280  11.031  19.053  0.00  0.00    +0.000 A 
ATOM      5  C   UNL     1      -0.287  10.766  20.419  0.00  0.00    +0.000 A 
ATOM      6  C   UNL     1       0.139   9.650  21.032  0.00  0.00    +0.000 A 
ATOM      7  C   UNL     1      -0.375   9.248  22.386  0.00  0.00    +0.000 C 
ATOM      8  N   UNL     1       1.044   8.854  20.369  0.00  0.00    +0.000 N 
ATOM      9  S   UNL     1       1.723   7.481  20.969  0.00  0.00    +0.000 S 
ATOM     10  C   UNL     1       2.418   7.156  19.369  0.00  0.00    +0.000 A 
ATOM     11  N   UNL     1       3.035   6.091  18.984  0.00  0.00    +0.000 NA
ATOM     12  N   UNL     1       2.225   8.208  18.486  0.00  0.00    +0.000 NA
ATOM     13  C   UNL     1       1.459   9.091  19.074  0.00  0.00    +0.000 A 
ATOM     14  N   UNL     1       1.088  10.239  18.408  0.00  0.00    +0.000 NA
ENDBRANCH   1  11
BRANCH   1  15
ATOM     15  C   UNL     1       3.830   3.775  19.316  0.00  0.00    +0.000 C 
BRANCH  15  16
ATOM     16  C   UNL     1       4.741   4.143  18.149  0.00  0.00    +0.000 A 
ATOM     17  C   UNL     1       6.074   4.543  18.308  0.00  0.00    +0.000 A 
ATOM     18  C   UNL     1       6.860   4.866  17.195  0.00  0.00    +0.000 A 
ATOM     19  C   UNL     1       6.326   4.775  15.911  0.00  0.00    +0.000 A 
ATOM     20 CL   UNL     1       7.297   5.169  14.547  0.00  0.00    +0.000 Cl
ATOM     21  C   UNL     1       5.011   4.361  15.729  0.00  0.00    +0.000 A 
ATOM     22  C   UNL     1       4.225   4.046  16.840  0.00  0.00    +0.000 A 
ENDBRANCH  15  16
BRANCH  15  23
ATOM     23  C   UNL     1       2.839   2.586  19.160  0.00  0.00    +0.000 C 
ATOM     24  C   UNL     1       1.640   2.959  18.279  0.00  0.00    +0.000 C 
ATOM     25  C   UNL     1       3.530   1.368  18.518  0.00  0.00    +0.000 C 
ENDBRANCH  15  23
ENDBRANCH   1  15
TORSDOF 4
ENDMDL
