MODEL 1
REMARK VINA RESULT:      -8.4      0.000      0.000
REMARK  Name = 
REMARK  9 active torsions:
REMARK  status: ('A' for Active; 'I' for Inactive)
REMARK    1  A    between atoms: C_1  and  C_2
REMARK    2  A    between atoms: C_5  and  N_6
REMARK    3  A    between atoms: C_7  and  C_9
REMARK    4  A    between atoms: C_9  and  S_10
REMARK    5  A    between atoms: S_10  and  C_11
REMARK    6  A    between atoms: C_14  and  O_15
REMARK    7  A    between atoms: C_17  and  O_18
REMARK    8  A    between atoms: C_21  and  C_22
REMARK    9  A    between atoms: C_25  and  C_26
REMARK                            x       y       z     vdW  Elec       q    Type
REMARK                         _______ _______ _______ _____ _____    ______ ____
ROOT
ATOM      1  C   UNL     1       5.159   5.969  18.011  0.00  0.00    +0.000 A 
ATOM      2  S   UNL     1       5.790   4.446  18.477  0.00  0.00    +0.000 S 
ATOM      3  C   UNL     1       4.305   3.937  19.128  0.00  0.00    +0.000 A 
ATOM      4  C   UNL     1       4.010   2.721  19.744  0.00  0.00    +0.000 A 
ATOM      5  C   UNL     1       2.726   2.512  20.203  0.00  0.00    +0.000 A 
ATOM      6  C   UNL     1       1.807   3.527  20.021  0.00  0.00    +0.000 A 
ATOM      7  N   UNL     1       2.047   4.710  19.435  0.00  0.00    +0.000 NA
ATOM      8  C   UNL     1       3.318   4.909  18.984  0.00  0.00    +0.000 A 
ATOM      9  C   UNL     1       3.814   6.083  18.333  0.00  0.00    +0.000 A 
ENDROOT
BRANCH   4  10
ATOM     10  O   UNL     1       4.944   1.729  19.911  0.00  0.00    +0.000 OA
ATOM     11  H   UNL     1       5.719   2.127  20.350  0.00  0.00    +0.000 HD
ENDBRANCH   4  10
BRANCH   6  12
ATOM     12  O   UNL     1       0.522   3.371  20.454  0.00  0.00    +0.000 OA
ATOM     13  H   UNL     1       0.032   4.180  20.247  0.00  0.00    +0.000 HD
ENDBRANCH   6  12
BRANCH   9  14
ATOM     14  C   UNL     1       2.999   7.234  18.049  0.00  0.00    +0.000 C 
ATOM     15  N   UNL     1       2.306   8.135  17.859  0.00  0.00    +0.000 NA
ENDBRANCH   9  14
BRANCH   1  16
ATOM     16  S   UNL     1       6.258   6.989  17.121  0.00  0.00    +0.000 S 
BRANCH  16  17
ATOM     17  C   UNL     1       7.785   7.145  18.085  0.00  0.00    +0.000 C 
BRANCH  17  19
ATOM     18  N   UNL     1       9.031   9.017  19.101  0.00  0.00    +0.000 N 
ATOM     19  C   UNL     1       8.138   8.633  18.103  0.00  0.00    +0.000 C 
ATOM     20  O   UNL     1       7.637   9.377  17.265  0.00  0.00    +0.000 OA
ATOM     21  H   UNL     1       9.385   8.300  19.729  0.00  0.00    +0.000 HD
BRANCH  18  26
ATOM     22  C   UNL     1      10.680  14.449  19.958  0.00  0.00    +0.000 C 
ATOM     23  C   UNL     1      10.292  13.025  19.690  0.00  0.00    +0.000 A 
ATOM     24  C   UNL     1       9.831  12.265  20.758  0.00  0.00    +0.000 A 
ATOM     25  C   UNL     1       9.443  10.947  20.569  0.00  0.00    +0.000 A 
ATOM     26  C   UNL     1       9.477  10.345  19.312  0.00  0.00    +0.000 A 
ATOM     27  C   UNL     1       9.958  11.093  18.233  0.00  0.00    +0.000 A 
ATOM     28  C   UNL     1      10.374  12.432  18.413  0.00  0.00    +0.000 A 
ATOM     29  C   UNL     1      10.906  13.219  17.248  0.00  0.00    +0.000 C 
ENDBRANCH  18  26
ENDBRANCH  17  19
ENDBRANCH  16  17
ENDBRANCH   1  16
TORSDOF 7
ENDMDL
MODEL 2
REMARK VINA RESULT:      -8.3      0.393      1.407
REMARK  Name = 
REMARK  9 active torsions:
REMARK  status: ('A' for Active; 'I' for Inactive)
REMARK    1  A    between atoms: C_1  and  C_2
REMARK    2  A    between atoms: C_5  and  N_6
REMARK    3  A    between atoms: C_7  and  C_9
REMARK    4  A    between atoms: C_9  and  S_10
REMARK    5  A    between atoms: S_10  and  C_11
REMARK    6  A    between atoms: C_14  and  O_15
REMARK    7  A    between atoms: C_17  and  O_18
REMARK    8  A    between atoms: C_21  and  C_22
REMARK    9  A    between atoms: C_25  and  C_26
REMARK                            x       y       z     vdW  Elec       q    Type
REMARK                         _______ _______ _______ _____ _____    ______ ____
ROOT
ATOM      1  C   UNL     1       5.273   5.998  17.985  0.00  0.00    +0.000 A 
ATOM      2  S   UNL     1       5.865   4.466  18.472  0.00  0.00    +0.000 S 
ATOM      3  C   UNL     1       4.358   3.990  19.095  0.00  0.00    +0.000 A 
ATOM      4  C   UNL     1       4.025   2.784  19.712  0.00  0.00    +0.000 A 
ATOM      5  C   UNL     1       2.729   2.603  20.147  0.00  0.00    +0.000 A 
ATOM      6  C   UNL     1       1.835   3.634  19.941  0.00  0.00    +0.000 A 
ATOM      7  N   UNL     1       2.110   4.810  19.353  0.00  0.00    +0.000 NA
ATOM      8  C   UNL     1       3.393   4.980  18.927  0.00  0.00    +0.000 A 
ATOM      9  C   UNL     1       3.924   6.140  18.279  0.00  0.00    +0.000 A 
ENDROOT
BRANCH   4  10
ATOM     10  O   UNL     1       4.937   1.775  19.903  0.00  0.00    +0.000 OA
ATOM     11  H   UNL     1       5.243   1.485  19.024  0.00  0.00    +0.000 HD
ENDBRANCH   4  10
BRANCH   6  12
ATOM     12  O   UNL     1       0.538   3.507  20.350  0.00  0.00    +0.000 OA
ATOM     13  H   UNL     1      -0.010   3.340  19.569  0.00  0.00    +0.000 HD
ENDBRANCH   6  12
BRANCH   9  14
ATOM     14  C   UNL     1       3.139   7.306  17.973  0.00  0.00    +0.000 C 
ATOM     15  N   UNL     1       2.473   8.224  17.771  0.00  0.00    +0.000 NA
ENDBRANCH   9  14
BRANCH   1  16
ATOM     16  S   UNL     1       6.410   6.990  17.111  0.00  0.00    +0.000 S 
BRANCH  16  17
ATOM     17  C   UNL     1       7.888   7.191  18.140  0.00  0.00    +0.000 C 
BRANCH  17  19
ATOM     18  N   UNL     1       9.135   9.067  19.148  0.00  0.00    +0.000 N 
ATOM     19  C   UNL     1       8.155   8.694  18.230  0.00  0.00    +0.000 C 
ATOM     20  O   UNL     1       7.518   9.459  17.511  0.00  0.00    +0.000 OA
ATOM     21  H   UNL     1       9.599   8.334  19.676  0.00  0.00    +0.000 HD
BRANCH  18  26
ATOM     22  C   UNL     1      10.874  14.432  20.224  0.00  0.00    +0.000 C 
ATOM     23  C   UNL     1      10.370  13.040  19.978  0.00  0.00    +0.000 A 
ATOM     24  C   UNL     1      10.644  12.458  18.747  0.00  0.00    +0.000 A 
ATOM     25  C   UNL     1      10.218  11.168  18.467  0.00  0.00    +0.000 A 
ATOM     26  C   UNL     1       9.526  10.405  19.406  0.00  0.00    +0.000 A 
ATOM     27  C   UNL     1       9.226  10.986  20.642  0.00  0.00    +0.000 A 
ATOM     28  C   UNL     1       9.638  12.307  20.935  0.00  0.00    +0.000 A 
ATOM     29  C   UNL     1       9.294  12.928  22.260  0.00  0.00    +0.000 C 
ENDBRANCH  18  26
ENDBRANCH  17  19
ENDBRANCH  16  17
ENDBRANCH   1  16
TORSDOF 7
ENDMDL
MODEL 3
REMARK VINA RESULT:      -7.8      4.980      5.892
REMARK  Name = 
REMARK  9 active torsions:
REMARK  status: ('A' for Active; 'I' for Inactive)
REMARK    1  A    between atoms: C_1  and  C_2
REMARK    2  A    between atoms: C_5  and  N_6
REMARK    3  A    between atoms: C_7  and  C_9
REMARK    4  A    between atoms: C_9  and  S_10
REMARK    5  A    between atoms: S_10  and  C_11
REMARK    6  A    between atoms: C_14  and  O_15
REMARK    7  A    between atoms: C_17  and  O_18
REMARK    8  A    between atoms: C_21  and  C_22
REMARK    9  A    between atoms: C_25  and  C_26
REMARK                            x       y       z     vdW  Elec       q    Type
REMARK                         _______ _______ _______ _____ _____    ______ ____
ROOT
ATOM      1  C   UNL     1       4.845   3.988  17.313  0.00  0.00    +0.000 A 
ATOM      2  S   UNL     1       3.381   3.220  16.863  0.00  0.00    +0.000 S 
ATOM      3  C   UNL     1       2.861   3.081  18.475  0.00  0.00    +0.000 A 
ATOM      4  C   UNL     1       1.680   2.513  18.950  0.00  0.00    +0.000 A 
ATOM      5  C   UNL     1       1.454   2.506  20.311  0.00  0.00    +0.000 A 
ATOM      6  C   UNL     1       2.419   3.069  21.122  0.00  0.00    +0.000 A 
ATOM      7  N   UNL     1       3.569   3.625  20.709  0.00  0.00    +0.000 NA
ATOM      8  C   UNL     1       3.784   3.627  19.364  0.00  0.00    +0.000 A 
ATOM      9  C   UNL     1       4.930   4.156  18.688  0.00  0.00    +0.000 A 
ENDROOT
BRANCH   4  10
ATOM     10  O   UNL     1       0.736   1.961  18.118  0.00  0.00    +0.000 OA
ATOM     11  H   UNL     1       1.118   1.932  17.221  0.00  0.00    +0.000 HD
ENDBRANCH   4  10
BRANCH   6  12
ATOM     12  O   UNL     1       2.245   3.091  22.477  0.00  0.00    +0.000 OA
ATOM     13  H   UNL     1       2.045   4.001  22.741  0.00  0.00    +0.000 HD
ENDBRANCH   6  12
BRANCH   9  14
ATOM     14  C   UNL     1       6.028   4.788  19.369  0.00  0.00    +0.000 C 
ATOM     15  N   UNL     1       6.938   5.294  19.863  0.00  0.00    +0.000 NA
ENDBRANCH   9  14
BRANCH   1  16
ATOM     16  S   UNL     1       5.842   4.523  15.987  0.00  0.00    +0.000 S 
BRANCH  16  17
ATOM     17  C   UNL     1       5.239   6.145  15.448  0.00  0.00    +0.000 C 
BRANCH  17  19
ATOM     18  N   UNL     1       3.387   6.864  16.912  0.00  0.00    +0.000 N 
ATOM     19  C   UNL     1       4.765   6.872  16.707  0.00  0.00    +0.000 C 
ATOM     20  O   UNL     1       5.596   7.400  17.442  0.00  0.00    +0.000 OA
ATOM     21  H   UNL     1       2.805   6.381  16.234  0.00  0.00    +0.000 HD
BRANCH  18  26
ATOM     22  C   UNL     1       0.604   9.317  21.294  0.00  0.00    +0.000 C 
ATOM     23  C   UNL     1       1.349   8.732  20.131  0.00  0.00    +0.000 A 
ATOM     24  C   UNL     1       1.924   7.477  20.291  0.00  0.00    +0.000 A 
ATOM     25  C   UNL     1       2.611   6.878  19.246  0.00  0.00    +0.000 A 
ATOM     26  C   UNL     1       2.733   7.493  18.001  0.00  0.00    +0.000 A 
ATOM     27  C   UNL     1       2.177   8.765  17.832  0.00  0.00    +0.000 A 
ATOM     28  C   UNL     1       1.488   9.396  18.895  0.00  0.00    +0.000 A 
ATOM     29  C   UNL     1       0.910  10.771  18.707  0.00  0.00    +0.000 C 
ENDBRANCH  18  26
ENDBRANCH  17  19
ENDBRANCH  16  17
ENDBRANCH   1  16
TORSDOF 7
ENDMDL
MODEL 4
REMARK VINA RESULT:      -7.8      4.479      7.685
REMARK  Name = 
REMARK  9 active torsions:
REMARK  status: ('A' for Active; 'I' for Inactive)
REMARK    1  A    between atoms: C_1  and  C_2
REMARK    2  A    between atoms: C_5  and  N_6
REMARK    3  A    between atoms: C_7  and  C_9
REMARK    4  A    between atoms: C_9  and  S_10
REMARK    5  A    between atoms: S_10  and  C_11
REMARK    6  A    between atoms: C_14  and  O_15
REMARK    7  A    between atoms: C_17  and  O_18
REMARK    8  A    between atoms: C_21  and  C_22
REMARK    9  A    between atoms: C_25  and  C_26
REMARK                            x       y       z     vdW  Elec       q    Type
REMARK                         _______ _______ _______ _____ _____    ______ ____
ROOT
ATOM      1  C   UNL     1       5.752   4.429  17.076  0.00  0.00    +0.000 A 
ATOM      2  S   UNL     1       5.221   3.381  15.829  0.00  0.00    +0.000 S 
ATOM      3  C   UNL     1       6.237   4.103  14.675  0.00  0.00    +0.000 A 
ATOM      4  C   UNL     1       6.371   3.779  13.326  0.00  0.00    +0.000 A 
ATOM      5  C   UNL     1       7.265   4.500  12.562  0.00  0.00    +0.000 A 
ATOM      6  C   UNL     1       7.979   5.503  13.187  0.00  0.00    +0.000 A 
ATOM      7  N   UNL     1       7.882   5.849  14.481  0.00  0.00    +0.000 NA
ATOM      8  C   UNL     1       6.996   5.133  15.228  0.00  0.00    +0.000 A 
ATOM      9  C   UNL     1       6.717   5.316  16.620  0.00  0.00    +0.000 A 
ENDROOT
BRANCH   4  10
ATOM     10  O   UNL     1       5.648   2.775  12.730  0.00  0.00    +0.000 OA
ATOM     11  H   UNL     1       5.475   3.044  11.809  0.00  0.00    +0.000 HD
ENDBRANCH   4  10
BRANCH   6  12
ATOM     12  O   UNL     1       8.879   6.246  12.478  0.00  0.00    +0.000 OA
ATOM     13  H   UNL     1       8.821   7.163  12.782  0.00  0.00    +0.000 HD
ENDBRANCH   6  12
BRANCH   9  14
ATOM     14  C   UNL     1       7.371   6.304  17.435  0.00  0.00    +0.000 C 
ATOM     15  N   UNL     1       7.918   7.118  18.039  0.00  0.00    +0.000 NA
ENDBRANCH   9  14
BRANCH   1  16
ATOM     16  S   UNL     1       5.103   4.089  18.659  0.00  0.00    +0.000 S 
BRANCH  16  17
ATOM     17  C   UNL     1       3.394   3.521  18.455  0.00  0.00    +0.000 C 
BRANCH  17  19
ATOM     18  N   UNL     1       3.068   5.922  18.923  0.00  0.00    +0.000 N 
ATOM     19  C   UNL     1       2.528   4.776  18.342  0.00  0.00    +0.000 C 
ATOM     20  O   UNL     1       1.448   4.708  17.762  0.00  0.00    +0.000 OA
ATOM     21  H   UNL     1       3.980   5.850  19.364  0.00  0.00    +0.000 HD
BRANCH  18  26
ATOM     22  C   UNL     1       0.626  11.116  19.055  0.00  0.00    +0.000 C 
ATOM     23  C   UNL     1       1.220   9.738  19.059  0.00  0.00    +0.000 A 
ATOM     24  C   UNL     1       1.843   9.296  17.898  0.00  0.00    +0.000 A 
ATOM     25  C   UNL     1       2.425   8.038  17.847  0.00  0.00    +0.000 A 
ATOM     26  C   UNL     1       2.428   7.186  18.950  0.00  0.00    +0.000 A 
ATOM     27  C   UNL     1       1.787   7.611  20.118  0.00  0.00    +0.000 A 
ATOM     28  C   UNL     1       1.174   8.884  20.180  0.00  0.00    +0.000 A 
ATOM     29  C   UNL     1       0.472   9.323  21.435  0.00  0.00    +0.000 C 
ENDBRANCH  18  26
ENDBRANCH  17  19
ENDBRANCH  16  17
ENDBRANCH   1  16
TORSDOF 7
ENDMDL
MODEL 5
REMARK VINA RESULT:      -7.8      6.780      9.769
REMARK  Name = 
REMARK  9 active torsions:
REMARK  status: ('A' for Active; 'I' for Inactive)
REMARK    1  A    between atoms: C_1  and  C_2
REMARK    2  A    between atoms: C_5  and  N_6
REMARK    3  A    between atoms: C_7  and  C_9
REMARK    4  A    between atoms: C_9  and  S_10
REMARK    5  A    between atoms: S_10  and  C_11
REMARK    6  A    between atoms: C_14  and  O_15
REMARK    7  A    between atoms: C_17  and  O_18
REMARK    8  A    between atoms: C_21  and  C_22
REMARK    9  A    between atoms: C_25  and  C_26
REMARK                            x       y       z     vdW  Elec       q    Type
REMARK                         _______ _______ _______ _____ _____    ______ ____
ROOT
ATOM      1  C   UNL     1      -0.128  11.053  19.802  0.00  0.00    +0.000 A 
ATOM      2  S   UNL     1      -1.596  11.832  20.220  0.00  0.00    +0.000 S 
ATOM      3  C   UNL     1      -2.336  11.409  18.751  0.00  0.00    +0.000 A 
ATOM      4  C   UNL     1      -3.625  11.716  18.318  0.00  0.00    +0.000 A 
ATOM      5  C   UNL     1      -4.028  11.267  17.078  0.00  0.00    +0.000 A 
ATOM      6  C   UNL     1      -3.122  10.534  16.338  0.00  0.00    +0.000 A 
ATOM      7  N   UNL     1      -1.873  10.215  16.713  0.00  0.00    +0.000 NA
ATOM      8  C   UNL     1      -1.484  10.663  17.939  0.00  0.00    +0.000 A 
ATOM      9  C   UNL     1      -0.208  10.454  18.553  0.00  0.00    +0.000 A 
ENDROOT
BRANCH   4  10
ATOM     10  O   UNL     1      -4.506  12.448  19.078  0.00  0.00    +0.000 OA
ATOM     11  H   UNL     1      -5.041  12.988  18.467  0.00  0.00    +0.000 HD
ENDBRANCH   4  10
BRANCH   6  12
ATOM     12  O   UNL     1      -3.470  10.063  15.104  0.00  0.00    +0.000 OA
ATOM     13  H   UNL     1      -4.381   9.737  15.150  0.00  0.00    +0.000 HD
ENDBRANCH   6  12
BRANCH   9  14
ATOM     14  C   UNL     1       0.855   9.706  17.935  0.00  0.00    +0.000 C 
ATOM     15  N   UNL     1       1.694   9.135  17.390  0.00  0.00    +0.000 NA
ENDBRANCH   9  14
BRANCH   1  16
ATOM     16  S   UNL     1       1.089  11.041  21.051  0.00  0.00    +0.000 S 
BRANCH  16  17
ATOM     17  C   UNL     1       0.648   9.757  22.252  0.00  0.00    +0.000 C 
BRANCH  17  19
ATOM     18  N   UNL     1       1.795   7.906  21.091  0.00  0.00    +0.000 N 
ATOM     19  C   UNL     1       0.567   8.443  21.474  0.00  0.00    +0.000 C 
ATOM     20  O   UNL     1      -0.533   7.950  21.244  0.00  0.00    +0.000 OA
ATOM     21  H   UNL     1       2.639   8.407  21.353  0.00  0.00    +0.000 HD
BRANCH  18  26
ATOM     22  C   UNL     1       2.294   3.100  17.989  0.00  0.00    +0.000 C 
ATOM     23  C   UNL     1       2.172   4.323  18.851  0.00  0.00    +0.000 A 
ATOM     24  C   UNL     1       2.633   5.528  18.338  0.00  0.00    +0.000 A 
ATOM     25  C   UNL     1       2.532   6.695  19.080  0.00  0.00    +0.000 A 
ATOM     26  C   UNL     1       1.951   6.709  20.348  0.00  0.00    +0.000 A 
ATOM     27  C   UNL     1       1.501   5.499  20.884  0.00  0.00    +0.000 A 
ATOM     28  C   UNL     1       1.613   4.298  20.145  0.00  0.00    +0.000 A 
ATOM     29  C   UNL     1       1.143   3.000  20.740  0.00  0.00    +0.000 C 
ENDBRANCH  18  26
ENDBRANCH  17  19
ENDBRANCH  16  17
ENDBRANCH   1  16
TORSDOF 7
ENDMDL
MODEL 6
REMARK VINA RESULT:      -7.7      1.065      1.187
REMARK  Name = 
REMARK  9 active torsions:
REMARK  status: ('A' for Active; 'I' for Inactive)
REMARK    1  A    between atoms: C_1  and  C_2
REMARK    2  A    between atoms: C_5  and  N_6
REMARK    3  A    between atoms: C_7  and  C_9
REMARK    4  A    between atoms: C_9  and  S_10
REMARK    5  A    between atoms: S_10  and  C_11
REMARK    6  A    between atoms: C_14  and  O_15
REMARK    7  A    between atoms: C_17  and  O_18
REMARK    8  A    between atoms: C_21  and  C_22
REMARK    9  A    between atoms: C_25  and  C_26
REMARK                            x       y       z     vdW  Elec       q    Type
REMARK                         _______ _______ _______ _____ _____    ______ ____
ROOT
ATOM      1  C   UNL     1       4.716   5.977  17.906  0.00  0.00    +0.000 A 
ATOM      2  S   UNL     1       5.526   4.523  18.311  0.00  0.00    +0.000 S 
ATOM      3  C   UNL     1       4.198   3.931  19.191  0.00  0.00    +0.000 A 
ATOM      4  C   UNL     1       4.092   2.721  19.875  0.00  0.00    +0.000 A 
ATOM      5  C   UNL     1       2.911   2.436  20.529  0.00  0.00    +0.000 A 
ATOM      6  C   UNL     1       1.900   3.373  20.461  0.00  0.00    +0.000 A 
ATOM      7  N   UNL     1       1.958   4.549  19.815  0.00  0.00    +0.000 NA
ATOM      8  C   UNL     1       3.128   4.823  19.173  0.00  0.00    +0.000 A 
ATOM      9  C   UNL     1       3.429   6.005  18.424  0.00  0.00    +0.000 A 
ENDROOT
BRANCH   4  10
ATOM     10  O   UNL     1       5.116   1.806  19.925  0.00  0.00    +0.000 OA
ATOM     11  H   UNL     1       5.950   2.291  19.782  0.00  0.00    +0.000 HD
ENDBRANCH   4  10
BRANCH   6  12
ATOM     12  O   UNL     1       0.709   3.141  21.088  0.00  0.00    +0.000 OA
ATOM     13  H   UNL     1       0.892   2.717  21.939  0.00  0.00    +0.000 HD
ENDBRANCH   6  12
BRANCH   9  14
ATOM     14  C   UNL     1       2.494   7.082  18.237  0.00  0.00    +0.000 C 
ATOM     15  N   UNL     1       1.791   7.981  18.076  0.00  0.00    +0.000 NA
ENDBRANCH   9  14
BRANCH   1  16
ATOM     16  S   UNL     1       5.588   7.040  16.834  0.00  0.00    +0.000 S 
BRANCH  16  17
ATOM     17  C   UNL     1       7.346   6.606  16.920  0.00  0.00    +0.000 C 
BRANCH  17  19
ATOM     18  N   UNL     1       8.024   8.911  17.484  0.00  0.00    +0.000 N 
ATOM     19  C   UNL     1       7.988   7.584  17.906  0.00  0.00    +0.000 C 
ATOM     20  O   UNL     1       8.415   7.160  18.977  0.00  0.00    +0.000 OA
ATOM     21  H   UNL     1       7.625   9.136  16.577  0.00  0.00    +0.000 HD
BRANCH  18  26
ATOM     22  C   UNL     1      10.177  13.226  20.600  0.00  0.00    +0.000 C 
ATOM     23  C   UNL     1       9.631  12.128  19.735  0.00  0.00    +0.000 A 
ATOM     24  C   UNL     1       9.686  10.829  20.222  0.00  0.00    +0.000 A 
ATOM     25  C   UNL     1       9.182   9.775  19.475  0.00  0.00    +0.000 A 
ATOM     26  C   UNL     1       8.589   9.976  18.229  0.00  0.00    +0.000 A 
ATOM     27  C   UNL     1       8.547  11.276  17.718  0.00  0.00    +0.000 A 
ATOM     28  C   UNL     1       9.072  12.360  18.461  0.00  0.00    +0.000 A 
ATOM     29  C   UNL     1       9.037  13.751  17.893  0.00  0.00    +0.000 C 
ENDBRANCH  18  26
ENDBRANCH  17  19
ENDBRANCH  16  17
ENDBRANCH   1  16
TORSDOF 7
ENDMDL
MODEL 7
REMARK VINA RESULT:      -7.6      4.966      7.047
REMARK  Name = 
REMARK  9 active torsions:
REMARK  status: ('A' for Active; 'I' for Inactive)
REMARK    1  A    between atoms: C_1  and  C_2
REMARK    2  A    between atoms: C_5  and  N_6
REMARK    3  A    between atoms: C_7  and  C_9
REMARK    4  A    between atoms: C_9  and  S_10
REMARK    5  A    between atoms: S_10  and  C_11
REMARK    6  A    between atoms: C_14  and  O_15
REMARK    7  A    between atoms: C_17  and  O_18
REMARK    8  A    between atoms: C_21  and  C_22
REMARK    9  A    between atoms: C_25  and  C_26
REMARK                            x       y       z     vdW  Elec       q    Type
REMARK                         _______ _______ _______ _____ _____    ______ ____
ROOT
ATOM      1  C   UNL     1       3.637   3.153  19.228  0.00  0.00    +0.000 A 
ATOM      2  S   UNL     1       5.306   3.286  19.592  0.00  0.00    +0.000 S 
ATOM      3  C   UNL     1       5.587   4.357  18.304  0.00  0.00    +0.000 A 
ATOM      4  C   UNL     1       6.793   4.943  17.921  0.00  0.00    +0.000 A 
ATOM      5  C   UNL     1       6.796   5.793  16.834  0.00  0.00    +0.000 A 
ATOM      6  C   UNL     1       5.594   6.014  16.192  0.00  0.00    +0.000 A 
ATOM      7  N   UNL     1       4.411   5.473  16.524  0.00  0.00    +0.000 NA
ATOM      8  C   UNL     1       4.418   4.634  17.598  0.00  0.00    +0.000 A 
ATOM      9  C   UNL     1       3.289   3.939  18.139  0.00  0.00    +0.000 A 
ENDROOT
BRANCH   4  10
ATOM     10  O   UNL     1       7.974   4.705  18.581  0.00  0.00    +0.000 OA
ATOM     11  H   UNL     1       8.141   5.466  19.167  0.00  0.00    +0.000 HD
ENDBRANCH   4  10
BRANCH   6  12
ATOM     12  O   UNL     1       5.540   6.849  15.112  0.00  0.00    +0.000 OA
ATOM     13  H   UNL     1       6.439   7.151  14.918  0.00  0.00    +0.000 HD
ENDBRANCH   6  12
BRANCH   9  14
ATOM     14  C   UNL     1       1.958   4.056  17.606  0.00  0.00    +0.000 C 
ATOM     15  N   UNL     1       0.907   4.203  17.159  0.00  0.00    +0.000 NA
ENDBRANCH   9  14
BRANCH   1  16
ATOM     16  S   UNL     1       2.705   2.201  20.353  0.00  0.00    +0.000 S 
BRANCH  16  17
ATOM     17  C   UNL     1       2.166   3.289  21.698  0.00  0.00    +0.000 C 
BRANCH  17  19
ATOM     18  N   UNL     1       2.250   5.702  21.187  0.00  0.00    +0.000 N 
ATOM     19  C   UNL     1       1.534   4.516  21.039  0.00  0.00    +0.000 C 
ATOM     20  O   UNL     1       0.472   4.390  20.435  0.00  0.00    +0.000 OA
ATOM     21  H   UNL     1       3.125   5.671  21.702  0.00  0.00    +0.000 HD
BRANCH  18  26
ATOM     22  C   UNL     1       0.433  10.723  19.075  0.00  0.00    +0.000 C 
ATOM     23  C   UNL     1       0.960   9.418  19.596  0.00  0.00    +0.000 A 
ATOM     24  C   UNL     1       0.580   9.026  20.873  0.00  0.00    +0.000 A 
ATOM     25  C   UNL     1       1.022   7.822  21.402  0.00  0.00    +0.000 A 
ATOM     26  C   UNL     1       1.838   6.957  20.674  0.00  0.00    +0.000 A 
ATOM     27  C   UNL     1       2.245   7.349  19.395  0.00  0.00    +0.000 A 
ATOM     28  C   UNL     1       1.817   8.582  18.849  0.00  0.00    +0.000 A 
ATOM     29  C   UNL     1       2.276   9.000  17.481  0.00  0.00    +0.000 C 
ENDBRANCH  18  26
ENDBRANCH  17  19
ENDBRANCH  16  17
ENDBRANCH   1  16
TORSDOF 7
ENDMDL
MODEL 8
REMARK VINA RESULT:      -7.5      1.944      2.253
REMARK  Name = 
REMARK  9 active torsions:
REMARK  status: ('A' for Active; 'I' for Inactive)
REMARK    1  A    between atoms: C_1  and  C_2
REMARK    2  A    between atoms: C_5  and  N_6
REMARK    3  A    between atoms: C_7  and  C_9
REMARK    4  A    between atoms: C_9  and  S_10
REMARK    5  A    between atoms: S_10  and  C_11
REMARK    6  A    between atoms: C_14  and  O_15
REMARK    7  A    between atoms: C_17  and  O_18
REMARK    8  A    between atoms: C_21  and  C_22
REMARK    9  A    between atoms: C_25  and  C_26
REMARK                            x       y       z     vdW  Elec       q    Type
REMARK                         _______ _______ _______ _____ _____    ______ ____
ROOT
ATOM      1  C   UNL     1       5.700   5.779  17.274  0.00  0.00    +0.000 A 
ATOM      2  S   UNL     1       5.006   6.123  18.801  0.00  0.00    +0.000 S 
ATOM      3  C   UNL     1       3.914   4.826  18.690  0.00  0.00    +0.000 A 
ATOM      4  C   UNL     1       2.944   4.438  19.614  0.00  0.00    +0.000 A 
ATOM      5  C   UNL     1       2.158   3.343  19.322  0.00  0.00    +0.000 A 
ATOM      6  C   UNL     1       2.384   2.694  18.125  0.00  0.00    +0.000 A 
ATOM      7  N   UNL     1       3.304   3.031  17.208  0.00  0.00    +0.000 NA
ATOM      8  C   UNL     1       4.076   4.114  17.504  0.00  0.00    +0.000 A 
ATOM      9  C   UNL     1       5.115   4.665  16.688  0.00  0.00    +0.000 A 
ENDROOT
BRANCH   4  10
ATOM     10  O   UNL     1       2.742   5.104  20.799  0.00  0.00    +0.000 OA
ATOM     11  H   UNL     1       3.374   5.846  20.830  0.00  0.00    +0.000 HD
ENDBRANCH   4  10
BRANCH   6  12
ATOM     12  O   UNL     1       1.636   1.602  17.788  0.00  0.00    +0.000 OA
ATOM     13  H   UNL     1       2.240   0.870  17.593  0.00  0.00    +0.000 HD
ENDBRANCH   6  12
BRANCH   9  14
ATOM     14  C   UNL     1       5.496   4.115  15.414  0.00  0.00    +0.000 C 
ATOM     15  N   UNL     1       5.826   3.726  14.381  0.00  0.00    +0.000 NA
ENDBRANCH   9  14
BRANCH   1  16
ATOM     16  S   UNL     1       7.062   6.775  16.835  0.00  0.00    +0.000 S 
BRANCH  16  17
ATOM     17  C   UNL     1       7.974   7.178  18.348  0.00  0.00    +0.000 C 
BRANCH  17  19
ATOM     18  N   UNL     1       9.149   9.150  19.254  0.00  0.00    +0.000 N 
ATOM     19  C   UNL     1       8.237   8.684  18.309  0.00  0.00    +0.000 C 
ATOM     20  O   UNL     1       7.655   9.372  17.475  0.00  0.00    +0.000 OA
ATOM     21  H   UNL     1       9.573   8.475  19.884  0.00  0.00    +0.000 HD
BRANCH  18  26
ATOM     22  C   UNL     1      10.506  14.695  19.866  0.00  0.00    +0.000 C 
ATOM     23  C   UNL     1      10.196  13.241  19.665  0.00  0.00    +0.000 A 
ATOM     24  C   UNL     1       9.718  12.522  20.753  0.00  0.00    +0.000 A 
ATOM     25  C   UNL     1       9.399  11.178  20.624  0.00  0.00    +0.000 A 
ATOM     26  C   UNL     1       9.524  10.508  19.407  0.00  0.00    +0.000 A 
ATOM     27  C   UNL     1      10.024  11.216  18.309  0.00  0.00    +0.000 A 
ATOM     28  C   UNL     1      10.370  12.582  18.430  0.00  0.00    +0.000 A 
ATOM     29  C   UNL     1      10.923  13.327  17.248  0.00  0.00    +0.000 C 
ENDBRANCH  18  26
ENDBRANCH  17  19
ENDBRANCH  16  17
ENDBRANCH   1  16
TORSDOF 7
ENDMDL
MODEL 9
REMARK VINA RESULT:      -7.4      5.678      8.449
REMARK  Name = 
REMARK  9 active torsions:
REMARK  status: ('A' for Active; 'I' for Inactive)
REMARK    1  A    between atoms: C_1  and  C_2
REMARK    2  A    between atoms: C_5  and  N_6
REMARK    3  A    between atoms: C_7  and  C_9
REMARK    4  A    between atoms: C_9  and  S_10
REMARK    5  A    between atoms: S_10  and  C_11
REMARK    6  A    between atoms: C_14  and  O_15
REMARK    7  A    between atoms: C_17  and  O_18
REMARK    8  A    between atoms: C_21  and  C_22
REMARK    9  A    between atoms: C_25  and  C_26
REMARK                            x       y       z     vdW  Elec       q    Type
REMARK                         _______ _______ _______ _____ _____    ______ ____
ROOT
ATOM      1  C   UNL     1       2.583   6.406  19.074  0.00  0.00    +0.000 A 
ATOM      2  S   UNL     1       1.734   5.754  20.411  0.00  0.00    +0.000 S 
ATOM      3  C   UNL     1       2.642   4.318  20.394  0.00  0.00    +0.000 A 
ATOM      4  C   UNL     1       2.521   3.215  21.239  0.00  0.00    +0.000 A 
ATOM      5  C   UNL     1       3.370   2.145  21.049  0.00  0.00    +0.000 A 
ATOM      6  C   UNL     1       4.295   2.235  20.028  0.00  0.00    +0.000 A 
ATOM      7  N   UNL     1       4.447   3.275  19.192  0.00  0.00    +0.000 NA
ATOM      8  C   UNL     1       3.604   4.327  19.387  0.00  0.00    +0.000 A 
ATOM      9  C   UNL     1       3.571   5.540  18.627  0.00  0.00    +0.000 A 
ENDROOT
BRANCH   4  10
ATOM     10  O   UNL     1       1.591   3.154  22.247  0.00  0.00    +0.000 OA
ATOM     11  H   UNL     1       1.420   4.067  22.546  0.00  0.00    +0.000 HD
ENDBRANCH   4  10
BRANCH   6  12
ATOM     12  O   UNL     1       5.162   1.205  19.798  0.00  0.00    +0.000 OA
ATOM     13  H   UNL     1       5.336   1.163  18.846  0.00  0.00    +0.000 HD
ENDBRANCH   6  12
BRANCH   9  14
ATOM     14  C   UNL     1       4.466   5.814  17.534  0.00  0.00    +0.000 C 
ATOM     15  N   UNL     1       5.137   6.027  16.623  0.00  0.00    +0.000 NA
ENDBRANCH   9  14
BRANCH   1  16
ATOM     16  S   UNL     1       2.151   8.040  18.644  0.00  0.00    +0.000 S 
BRANCH  16  17
ATOM     17  C   UNL     1       1.692   8.917  20.162  0.00  0.00    +0.000 C 
BRANCH  17  19
ATOM     18  N   UNL     1      -0.015   9.782  18.603  0.00  0.00    +0.000 N 
ATOM     19  C   UNL     1       0.291   9.485  19.930  0.00  0.00    +0.000 C 
ATOM     20  O   UNL     1      -0.461   9.636  20.889  0.00  0.00    +0.000 OA
ATOM     21  H   UNL     1       0.693   9.600  17.897  0.00  0.00    +0.000 HD
BRANCH  18  26
ATOM     22  C   UNL     1      -5.080  11.905  16.930  0.00  0.00    +0.000 C 
ATOM     23  C   UNL     1      -3.738  11.350  17.308  0.00  0.00    +0.000 A 
ATOM     24  C   UNL     1      -3.209  11.713  18.540  0.00  0.00    +0.000 A 
ATOM     25  C   UNL     1      -1.980  11.219  18.952  0.00  0.00    +0.000 A 
ATOM     26  C   UNL     1      -1.245  10.333  18.166  0.00  0.00    +0.000 A 
ATOM     27  C   UNL     1      -1.757   9.976  16.915  0.00  0.00    +0.000 A 
ATOM     28  C   UNL     1      -3.001  10.485  16.474  0.00  0.00    +0.000 A 
ATOM     29  C   UNL     1      -3.531  10.108  15.119  0.00  0.00    +0.000 C 
ENDBRANCH  18  26
ENDBRANCH  17  19
ENDBRANCH  16  17
ENDBRANCH   1  16
TORSDOF 7
ENDMDL
