MODEL 1
REMARK VINA RESULT:      -8.0      0.000      0.000
REMARK  Name = 
REMARK  5 active torsions:
REMARK  status: ('A' for Active; 'I' for Inactive)
REMARK    1  A    between atoms: C_1  and  C_2
REMARK    2  A    between atoms: C_5  and  C_6
REMARK    3  A    between atoms: N_8  and  C_9
REMARK    4  A    between atoms: C_9  and  C_10
REMARK    5  A    between atoms: C_20  and  C_21
REMARK                            x       y       z     vdW  Elec       q    Type
REMARK                         _______ _______ _______ _____ _____    ______ ____
ROOT
ATOM      1  C   UNL     1       1.410   9.490  18.542  0.00  0.00    +0.000 C 
ATOM      2  O   UNL     1       1.955   9.758  17.480  0.00  0.00    +0.000 OA
ATOM      3  N   UNL     1       1.695   8.332  19.245  0.00  0.00    +0.000 N 
ATOM      4  H   UNL     1       1.317   8.178  20.167  0.00  0.00    +0.000 HD
ENDROOT
BRANCH   1   9
ATOM      5  C   UNL     1      -2.275  13.369  20.845  0.00  0.00    +0.000 C 
ATOM      6  C   UNL     1      -1.333  12.347  20.286  0.00  0.00    +0.000 A 
ATOM      7  C   UNL     1      -0.075  12.132  20.849  0.00  0.00    +0.000 A 
ATOM      8  C   UNL     1       0.802  11.197  20.288  0.00  0.00    +0.000 A 
ATOM      9  C   UNL     1       0.429  10.440  19.161  0.00  0.00    +0.000 A 
ATOM     10  C   UNL     1      -0.852  10.631  18.600  0.00  0.00    +0.000 A 
ATOM     11  C   UNL     1      -1.369   9.897  17.391  0.00  0.00    +0.000 C 
ATOM     12  C   UNL     1      -1.707  11.596  19.168  0.00  0.00    +0.000 A 
ENDBRANCH   1   9
BRANCH   3  13
ATOM     13  C   UNL     1       2.672   7.384  18.739  0.00  0.00    +0.000 C 
BRANCH  13  14
ATOM     14  C   UNL     1       2.847   6.070  19.557  0.00  0.00    +0.000 C 
ATOM     15  N   UNL     1       4.291   5.704  19.582  0.00  0.00    +0.000 NA
ATOM     16  C   UNL     1       4.752   5.217  18.255  0.00  0.00    +0.000 C 
ATOM     17  C   UNL     1       3.684   4.618  17.308  0.00  0.00    +0.000 C 
ATOM     18  C   UNL     1       2.563   4.027  18.116  0.00  0.00    +0.000 A 
ATOM     19  C   UNL     1       2.095   2.728  17.899  0.00  0.00    +0.000 A 
ATOM     20  C   UNL     1       1.180   2.168  18.787  0.00  0.00    +0.000 A 
ATOM     21  C   UNL     1       0.691   2.923  19.854  0.00  0.00    +0.000 A 
ATOM     22  C   UNL     1       1.124   4.241  20.048  0.00  0.00    +0.000 A 
ATOM     23  C   UNL     1       2.081   4.801  19.191  0.00  0.00    +0.000 A 
ATOM     24  H   UNL     1       4.363   4.914  20.230  0.00  0.00    +0.000 HD
ENDBRANCH  13  14
ENDBRANCH   3  13
TORSDOF 3
ENDMDL
MODEL 2
REMARK VINA RESULT:      -7.9      0.739      1.695
REMARK  Name = 
REMARK  5 active torsions:
REMARK  status: ('A' for Active; 'I' for Inactive)
REMARK    1  A    between atoms: C_1  and  C_2
REMARK    2  A    between atoms: C_5  and  C_6
REMARK    3  A    between atoms: N_8  and  C_9
REMARK    4  A    between atoms: C_9  and  C_10
REMARK    5  A    between atoms: C_20  and  C_21
REMARK                            x       y       z     vdW  Elec       q    Type
REMARK                         _______ _______ _______ _____ _____    ______ ____
ROOT
ATOM      1  C   UNL     1       1.393   9.355  18.104  0.00  0.00    +0.000 C 
ATOM      2  O   UNL     1       2.279   9.852  17.423  0.00  0.00    +0.000 OA
ATOM      3  N   UNL     1       1.553   8.142  18.752  0.00  0.00    +0.000 N 
ATOM      4  H   UNL     1       0.855   7.799  19.393  0.00  0.00    +0.000 HD
ENDROOT
BRANCH   1   9
ATOM      5  C   UNL     1      -3.757  11.925  19.000  0.00  0.00    +0.000 C 
ATOM      6  C   UNL     1      -2.427  11.287  18.735  0.00  0.00    +0.000 A 
ATOM      7  C   UNL     1      -2.244  10.401  17.674  0.00  0.00    +0.000 A 
ATOM      8  C   UNL     1      -1.002   9.790  17.467  0.00  0.00    +0.000 A 
ATOM      9  C   UNL     1       0.091  10.070  18.309  0.00  0.00    +0.000 A 
ATOM     10  C   UNL     1      -0.077  10.985  19.370  0.00  0.00    +0.000 A 
ATOM     11  C   UNL     1       1.004  11.362  20.348  0.00  0.00    +0.000 C 
ATOM     12  C   UNL     1      -1.344  11.568  19.572  0.00  0.00    +0.000 A 
ENDBRANCH   1   9
BRANCH   3  13
ATOM     13  C   UNL     1       2.802   7.409  18.646  0.00  0.00    +0.000 C 
BRANCH  13  14
ATOM     14  C   UNL     1       2.919   6.117  19.508  0.00  0.00    +0.000 C 
ATOM     15  N   UNL     1       4.353   5.718  19.591  0.00  0.00    +0.000 NA
ATOM     16  C   UNL     1       4.844   5.181  18.294  0.00  0.00    +0.000 C 
ATOM     17  C   UNL     1       3.794   4.579  17.330  0.00  0.00    +0.000 C 
ATOM     18  C   UNL     1       2.633   4.039  18.117  0.00  0.00    +0.000 A 
ATOM     19  C   UNL     1       2.141   2.745  17.923  0.00  0.00    +0.000 A 
ATOM     20  C   UNL     1       1.185   2.233  18.795  0.00  0.00    +0.000 A 
ATOM     21  C   UNL     1       0.680   3.030  19.824  0.00  0.00    +0.000 A 
ATOM     22  C   UNL     1       1.138   4.343  19.994  0.00  0.00    +0.000 A 
ATOM     23  C   UNL     1       2.136   4.856  19.153  0.00  0.00    +0.000 A 
ATOM     24  H   UNL     1       4.385   4.946  20.262  0.00  0.00    +0.000 HD
ENDBRANCH  13  14
ENDBRANCH   3  13
TORSDOF 3
ENDMDL
MODEL 3
REMARK VINA RESULT:      -7.9      0.896      1.130
REMARK  Name = 
REMARK  5 active torsions:
REMARK  status: ('A' for Active; 'I' for Inactive)
REMARK    1  A    between atoms: C_1  and  C_2
REMARK    2  A    between atoms: C_5  and  C_6
REMARK    3  A    between atoms: N_8  and  C_9
REMARK    4  A    between atoms: C_9  and  C_10
REMARK    5  A    between atoms: C_20  and  C_21
REMARK                            x       y       z     vdW  Elec       q    Type
REMARK                         _______ _______ _______ _____ _____    ______ ____
ROOT
ATOM      1  C   UNL     1       1.495   9.186  18.575  0.00  0.00    +0.000 C 
ATOM      2  O   UNL     1       1.895   9.588  17.492  0.00  0.00    +0.000 OA
ATOM      3  N   UNL     1       1.932   7.994  19.127  0.00  0.00    +0.000 N 
ATOM      4  H   UNL     1       1.673   7.730  20.065  0.00  0.00    +0.000 HD
ENDROOT
BRANCH   1   9
ATOM      5  C   UNL     1      -2.104  12.557  21.677  0.00  0.00    +0.000 C 
ATOM      6  C   UNL     1      -1.185  11.658  20.906  0.00  0.00    +0.000 A 
ATOM      7  C   UNL     1       0.047  11.261  21.423  0.00  0.00    +0.000 A 
ATOM      8  C   UNL     1       0.903  10.449  20.669  0.00  0.00    +0.000 A 
ATOM      9  C   UNL     1       0.533  10.001  19.387  0.00  0.00    +0.000 A 
ATOM     10  C   UNL     1      -0.723  10.377  18.865  0.00  0.00    +0.000 A 
ATOM     11  C   UNL     1      -1.233   9.978  17.506  0.00  0.00    +0.000 C 
ATOM     12  C   UNL     1      -1.557  11.215  19.633  0.00  0.00    +0.000 A 
ENDBRANCH   1   9
BRANCH   3  13
ATOM     13  C   UNL     1       2.901   7.170  18.428  0.00  0.00    +0.000 C 
BRANCH  13  14
ATOM     14  C   UNL     1       3.423   5.918  19.194  0.00  0.00    +0.000 C 
ATOM     15  N   UNL     1       4.388   5.186  18.326  0.00  0.00    +0.000 NA
ATOM     16  C   UNL     1       3.697   4.502  17.201  0.00  0.00    +0.000 C 
ATOM     17  C   UNL     1       2.205   4.140  17.397  0.00  0.00    +0.000 C 
ATOM     18  C   UNL     1       1.923   3.926  18.858  0.00  0.00    +0.000 A 
ATOM     19  C   UNL     1       1.268   2.784  19.328  0.00  0.00    +0.000 A 
ATOM     20  C   UNL     1       1.189   2.550  20.698  0.00  0.00    +0.000 A 
ATOM     21  C   UNL     1       1.713   3.480  21.597  0.00  0.00    +0.000 A 
ATOM     22  C   UNL     1       2.330   4.648  21.130  0.00  0.00    +0.000 A 
ATOM     23  C   UNL     1       2.460   4.873  19.753  0.00  0.00    +0.000 A 
ATOM     24  H   UNL     1       4.789   4.453  18.917  0.00  0.00    +0.000 HD
ENDBRANCH  13  14
ENDBRANCH   3  13
TORSDOF 3
ENDMDL
MODEL 4
REMARK VINA RESULT:      -7.6      1.751      7.913
REMARK  Name = 
REMARK  5 active torsions:
REMARK  status: ('A' for Active; 'I' for Inactive)
REMARK    1  A    between atoms: C_1  and  C_2
REMARK    2  A    between atoms: C_5  and  C_6
REMARK    3  A    between atoms: N_8  and  C_9
REMARK    4  A    between atoms: C_9  and  C_10
REMARK    5  A    between atoms: C_20  and  C_21
REMARK                            x       y       z     vdW  Elec       q    Type
REMARK                         _______ _______ _______ _____ _____    ______ ____
ROOT
ATOM      1  C   UNL     1       2.717   7.060  18.628  0.00  0.00    +0.000 C 
ATOM      2  O   UNL     1       2.550   6.769  19.804  0.00  0.00    +0.000 OA
ATOM      3  N   UNL     1       2.179   8.205  18.068  0.00  0.00    +0.000 N 
ATOM      4  H   UNL     1       2.413   8.484  17.128  0.00  0.00    +0.000 HD
ENDROOT
BRANCH   1   9
ATOM      5  C   UNL     1       6.175   3.700  15.357  0.00  0.00    +0.000 C 
ATOM      6  C   UNL     1       5.272   4.585  16.164  0.00  0.00    +0.000 A 
ATOM      7  C   UNL     1       5.556   5.937  16.349  0.00  0.00    +0.000 A 
ATOM      8  C   UNL     1       4.717   6.735  17.136  0.00  0.00    +0.000 A 
ATOM      9  C   UNL     1       3.564   6.199  17.738  0.00  0.00    +0.000 A 
ATOM     10  C   UNL     1       3.254   4.837  17.536  0.00  0.00    +0.000 A 
ATOM     11  C   UNL     1       2.061   4.138  18.131  0.00  0.00    +0.000 C 
ATOM     12  C   UNL     1       4.127   4.048  16.760  0.00  0.00    +0.000 A 
ENDBRANCH   1   9
BRANCH   3  13
ATOM     13  C   UNL     1       1.389   9.118  18.874  0.00  0.00    +0.000 C 
BRANCH  13  14
ATOM     14  C   UNL     1       0.605  10.220  18.100  0.00  0.00    +0.000 C 
ATOM     15  N   UNL     1       1.398  11.482  18.118  0.00  0.00    +0.000 NA
ATOM     16  C   UNL     1       1.402  12.102  19.470  0.00  0.00    +0.000 C 
ATOM     17  C   UNL     1       0.222  11.764  20.411  0.00  0.00    +0.000 C 
ATOM     18  C   UNL     1      -1.002  11.448  19.598  0.00  0.00    +0.000 A 
ATOM     19  C   UNL     1      -2.236  12.057  19.845  0.00  0.00    +0.000 A 
ATOM     20  C   UNL     1      -3.289  11.865  18.955  0.00  0.00    +0.000 A 
ATOM     21  C   UNL     1      -3.129  11.022  17.854  0.00  0.00    +0.000 A 
ATOM     22  C   UNL     1      -1.907  10.374  17.630  0.00  0.00    +0.000 A 
ATOM     23  C   UNL     1      -0.823  10.596  18.489  0.00  0.00    +0.000 A 
ATOM     24  H   UNL     1       0.901  12.127  17.498  0.00  0.00    +0.000 HD
ENDBRANCH  13  14
ENDBRANCH   3  13
TORSDOF 3
ENDMDL
MODEL 5
REMARK VINA RESULT:      -7.6      1.358      1.774
REMARK  Name = 
REMARK  5 active torsions:
REMARK  status: ('A' for Active; 'I' for Inactive)
REMARK    1  A    between atoms: C_1  and  C_2
REMARK    2  A    between atoms: C_5  and  C_6
REMARK    3  A    between atoms: N_8  and  C_9
REMARK    4  A    between atoms: C_9  and  C_10
REMARK    5  A    between atoms: C_20  and  C_21
REMARK                            x       y       z     vdW  Elec       q    Type
REMARK                         _______ _______ _______ _____ _____    ______ ____
ROOT
ATOM      1  C   UNL     1       0.948   9.468  19.639  0.00  0.00    +0.000 C 
ATOM      2  O   UNL     1       0.691   9.558  18.446  0.00  0.00    +0.000 OA
ATOM      3  N   UNL     1       1.759   8.466  20.145  0.00  0.00    +0.000 N 
ATOM      4  H   UNL     1       2.045   8.468  21.111  0.00  0.00    +0.000 HD
ENDROOT
BRANCH   1   9
ATOM      5  C   UNL     1      -1.265  13.452  23.267  0.00  0.00    +0.000 C 
ATOM      6  C   UNL     1      -0.657  12.437  22.346  0.00  0.00    +0.000 A 
ATOM      7  C   UNL     1       0.071  12.820  21.221  0.00  0.00    +0.000 A 
ATOM      8  C   UNL     1       0.600  11.854  20.357  0.00  0.00    +0.000 A 
ATOM      9  C   UNL     1       0.427  10.481  20.613  0.00  0.00    +0.000 A 
ATOM     10  C   UNL     1      -0.287  10.083  21.764  0.00  0.00    +0.000 A 
ATOM     11  C   UNL     1      -0.553   8.651  22.147  0.00  0.00    +0.000 C 
ATOM     12  C   UNL     1      -0.830  11.074  22.605  0.00  0.00    +0.000 A 
ENDBRANCH   1   9
BRANCH   3  13
ATOM     13  C   UNL     1       2.345   7.475  19.261  0.00  0.00    +0.000 C 
BRANCH  13  14
ATOM     14  C   UNL     1       2.649   6.083  19.890  0.00  0.00    +0.000 C 
ATOM     15  N   UNL     1       4.111   5.811  19.779  0.00  0.00    +0.000 NA
ATOM     16  C   UNL     1       4.505   5.525  18.374  0.00  0.00    +0.000 C 
ATOM     17  C   UNL     1       3.411   4.982  17.424  0.00  0.00    +0.000 C 
ATOM     18  C   UNL     1       2.383   4.223  18.216  0.00  0.00    +0.000 A 
ATOM     19  C   UNL     1       1.975   2.934  17.861  0.00  0.00    +0.000 A 
ATOM     20  C   UNL     1       1.156   2.209  18.723  0.00  0.00    +0.000 A 
ATOM     21  C   UNL     1       0.700   2.790  19.907  0.00  0.00    +0.000 A 
ATOM     22  C   UNL     1       1.070   4.099  20.243  0.00  0.00    +0.000 A 
ATOM     23  C   UNL     1       1.933   4.823  19.410  0.00  0.00    +0.000 A 
ATOM     24  H   UNL     1       4.271   4.952  20.313  0.00  0.00    +0.000 HD
ENDBRANCH  13  14
ENDBRANCH   3  13
TORSDOF 3
ENDMDL
MODEL 6
REMARK VINA RESULT:      -7.6      1.446      1.866
REMARK  Name = 
REMARK  5 active torsions:
REMARK  status: ('A' for Active; 'I' for Inactive)
REMARK    1  A    between atoms: C_1  and  C_2
REMARK    2  A    between atoms: C_5  and  C_6
REMARK    3  A    between atoms: N_8  and  C_9
REMARK    4  A    between atoms: C_9  and  C_10
REMARK    5  A    between atoms: C_20  and  C_21
REMARK                            x       y       z     vdW  Elec       q    Type
REMARK                         _______ _______ _______ _____ _____    ______ ____
ROOT
ATOM      1  C   UNL     1       1.092   9.313  19.214  0.00  0.00    +0.000 C 
ATOM      2  O   UNL     1       0.815   9.427  18.028  0.00  0.00    +0.000 OA
ATOM      3  N   UNL     1       1.914   8.303  19.685  0.00  0.00    +0.000 N 
ATOM      4  H   UNL     1       2.217   8.286  20.647  0.00  0.00    +0.000 HD
ENDROOT
BRANCH   1   9
ATOM      5  C   UNL     1      -1.063  13.223  22.956  0.00  0.00    +0.000 C 
ATOM      6  C   UNL     1      -0.470  12.225  22.007  0.00  0.00    +0.000 A 
ATOM      7  C   UNL     1       0.284  12.628  20.906  0.00  0.00    +0.000 A 
ATOM      8  C   UNL     1       0.799  11.680  20.014  0.00  0.00    +0.000 A 
ATOM      9  C   UNL     1       0.585  10.304  20.218  0.00  0.00    +0.000 A 
ATOM     10  C   UNL     1      -0.156   9.884  21.343  0.00  0.00    +0.000 A 
ATOM     11  C   UNL     1      -0.467   8.448  21.670  0.00  0.00    +0.000 C 
ATOM     12  C   UNL     1      -0.684  10.859  22.213  0.00  0.00    +0.000 A 
ENDBRANCH   1   9
BRANCH   3  13
ATOM     13  C   UNL     1       2.487   7.332  18.771  0.00  0.00    +0.000 C 
BRANCH  13  14
ATOM     14  C   UNL     1       3.167   6.090  19.420  0.00  0.00    +0.000 C 
ATOM     15  N   UNL     1       4.185   5.547  18.476  0.00  0.00    +0.000 NA
ATOM     16  C   UNL     1       3.545   4.881  17.311  0.00  0.00    +0.000 C 
ATOM     17  C   UNL     1       2.109   4.336  17.503  0.00  0.00    +0.000 C 
ATOM     18  C   UNL     1       1.893   3.973  18.946  0.00  0.00    +0.000 A 
ATOM     19  C   UNL     1       1.383   2.730  19.330  0.00  0.00    +0.000 A 
ATOM     20  C   UNL     1       1.369   2.378  20.677  0.00  0.00    +0.000 A 
ATOM     21  C   UNL     1       1.809   3.286  21.641  0.00  0.00    +0.000 A 
ATOM     22  C   UNL     1       2.278   4.551  21.262  0.00  0.00    +0.000 A 
ATOM     23  C   UNL     1       2.344   4.901  19.907  0.00  0.00    +0.000 A 
ATOM     24  H   UNL     1       4.681   4.819  18.998  0.00  0.00    +0.000 HD
ENDBRANCH  13  14
ENDBRANCH   3  13
TORSDOF 3
ENDMDL
MODEL 7
REMARK VINA RESULT:      -7.6      2.082      3.330
REMARK  Name = 
REMARK  5 active torsions:
REMARK  status: ('A' for Active; 'I' for Inactive)
REMARK    1  A    between atoms: C_1  and  C_2
REMARK    2  A    between atoms: C_5  and  C_6
REMARK    3  A    between atoms: N_8  and  C_9
REMARK    4  A    between atoms: C_9  and  C_10
REMARK    5  A    between atoms: C_20  and  C_21
REMARK                            x       y       z     vdW  Elec       q    Type
REMARK                         _______ _______ _______ _____ _____    ______ ____
ROOT
ATOM      1  C   UNL     1       1.807   7.942  19.953  0.00  0.00    +0.000 C 
ATOM      2  O   UNL     1       2.388   8.348  18.957  0.00  0.00    +0.000 OA
ATOM      3  N   UNL     1       1.970   6.653  20.429  0.00  0.00    +0.000 N 
ATOM      4  H   UNL     1       1.567   6.368  21.308  0.00  0.00    +0.000 HD
ENDROOT
BRANCH   1   9
ATOM      5  C   UNL     1      -1.462  11.611  23.082  0.00  0.00    +0.000 C 
ATOM      6  C   UNL     1      -0.647  10.636  22.287  0.00  0.00    +0.000 A 
ATOM      7  C   UNL     1       0.117   9.650  22.910  0.00  0.00    +0.000 A 
ATOM      8  C   UNL     1       0.898   8.773  22.148  0.00  0.00    +0.000 A 
ATOM      9  C   UNL     1       0.913   8.852  20.742  0.00  0.00    +0.000 A 
ATOM     10  C   UNL     1       0.122   9.829  20.102  0.00  0.00    +0.000 A 
ATOM     11  C   UNL     1       0.057  10.028  18.611  0.00  0.00    +0.000 C 
ATOM     12  C   UNL     1      -0.636  10.717  20.892  0.00  0.00    +0.000 A 
ENDBRANCH   1   9
BRANCH   3  13
ATOM     13  C   UNL     1       2.857   5.724  19.751  0.00  0.00    +0.000 C 
BRANCH  13  14
ATOM     14  C   UNL     1       2.782   5.709  18.195  0.00  0.00    +0.000 C 
ATOM     15  N   UNL     1       1.752   4.719  17.770  0.00  0.00    +0.000 NA
ATOM     16  C   UNL     1       2.213   3.323  17.997  0.00  0.00    +0.000 C 
ATOM     17  C   UNL     1       3.740   3.077  18.038  0.00  0.00    +0.000 C 
ATOM     18  C   UNL     1       4.443   4.104  17.196  0.00  0.00    +0.000 A 
ATOM     19  C   UNL     1       5.384   3.751  16.224  0.00  0.00    +0.000 A 
ATOM     20  C   UNL     1       5.873   4.722  15.354  0.00  0.00    +0.000 A 
ATOM     21  C   UNL     1       5.468   6.051  15.491  0.00  0.00    +0.000 A 
ATOM     22  C   UNL     1       4.560   6.415  16.493  0.00  0.00    +0.000 A 
ATOM     23  C   UNL     1       4.022   5.441  17.346  0.00  0.00    +0.000 A 
ATOM     24  H   UNL     1       1.657   4.839  16.758  0.00  0.00    +0.000 HD
ENDBRANCH  13  14
ENDBRANCH   3  13
TORSDOF 3
ENDMDL
MODEL 8
REMARK VINA RESULT:      -7.5      1.451      1.852
REMARK  Name = 
REMARK  5 active torsions:
REMARK  status: ('A' for Active; 'I' for Inactive)
REMARK    1  A    between atoms: C_1  and  C_2
REMARK    2  A    between atoms: C_5  and  C_6
REMARK    3  A    between atoms: N_8  and  C_9
REMARK    4  A    between atoms: C_9  and  C_10
REMARK    5  A    between atoms: C_20  and  C_21
REMARK                            x       y       z     vdW  Elec       q    Type
REMARK                         _______ _______ _______ _____ _____    ______ ____
ROOT
ATOM      1  C   UNL     1       1.375   9.009  18.907  0.00  0.00    +0.000 C 
ATOM      2  O   UNL     1       1.276   9.193  17.702  0.00  0.00    +0.000 OA
ATOM      3  N   UNL     1       2.142   7.985  19.436  0.00  0.00    +0.000 N 
ATOM      4  H   UNL     1       2.297   7.913  20.429  0.00  0.00    +0.000 HD
ENDROOT
BRANCH   1   9
ATOM      5  C   UNL     1      -1.086  12.510  22.859  0.00  0.00    +0.000 C 
ATOM      6  C   UNL     1      -0.491  11.601  21.827  0.00  0.00    +0.000 A 
ATOM      7  C   UNL     1      -0.673  10.221  21.882  0.00  0.00    +0.000 A 
ATOM      8  C   UNL     1      -0.078   9.389  20.926  0.00  0.00    +0.000 A 
ATOM      9  C   UNL     1       0.697   9.926  19.881  0.00  0.00    +0.000 A 
ATOM     10  C   UNL     1       0.866  11.325  19.801  0.00  0.00    +0.000 A 
ATOM     11  C   UNL     1       1.677  12.025  18.744  0.00  0.00    +0.000 C 
ATOM     12  C   UNL     1       0.277  12.139  20.789  0.00  0.00    +0.000 A 
ENDBRANCH   1   9
BRANCH   3  13
ATOM     13  C   UNL     1       2.872   7.084  18.562  0.00  0.00    +0.000 C 
BRANCH  13  14
ATOM     14  C   UNL     1       3.429   5.787  19.220  0.00  0.00    +0.000 C 
ATOM     15  N   UNL     1       4.291   5.076  18.233  0.00  0.00    +0.000 NA
ATOM     16  C   UNL     1       3.481   4.460  17.148  0.00  0.00    +0.000 C 
ATOM     17  C   UNL     1       2.005   4.122  17.468  0.00  0.00    +0.000 C 
ATOM     18  C   UNL     1       1.854   3.845  18.937  0.00  0.00    +0.000 A 
ATOM     19  C   UNL     1       1.215   2.697  19.415  0.00  0.00    +0.000 A 
ATOM     20  C   UNL     1       1.258   2.401  20.775  0.00  0.00    +0.000 A 
ATOM     21  C   UNL     1       1.887   3.277  21.662  0.00  0.00    +0.000 A 
ATOM     22  C   UNL     1       2.488   4.451  21.191  0.00  0.00    +0.000 A 
ATOM     23  C   UNL     1       2.496   4.738  19.819  0.00  0.00    +0.000 A 
ATOM     24  H   UNL     1       4.725   4.307  18.751  0.00  0.00    +0.000 HD
ENDBRANCH  13  14
ENDBRANCH   3  13
TORSDOF 3
ENDMDL
MODEL 9
REMARK VINA RESULT:      -7.4      1.977      7.523
REMARK  Name = 
REMARK  5 active torsions:
REMARK  status: ('A' for Active; 'I' for Inactive)
REMARK    1  A    between atoms: C_1  and  C_2
REMARK    2  A    between atoms: C_5  and  C_6
REMARK    3  A    between atoms: N_8  and  C_9
REMARK    4  A    between atoms: C_9  and  C_10
REMARK    5  A    between atoms: C_20  and  C_21
REMARK                            x       y       z     vdW  Elec       q    Type
REMARK                         _______ _______ _______ _____ _____    ______ ____
ROOT
ATOM      1  C   UNL     1       2.708   7.721  18.402  0.00  0.00    +0.000 C 
ATOM      2  O   UNL     1       2.526   7.622  19.607  0.00  0.00    +0.000 OA
ATOM      3  N   UNL     1       2.279   8.820  17.679  0.00  0.00    +0.000 N 
ATOM      4  H   UNL     1       2.530   8.934  16.709  0.00  0.00    +0.000 HD
ENDROOT
BRANCH   1   9
ATOM      5  C   UNL     1       5.801   3.617  15.656  0.00  0.00    +0.000 C 
ATOM      6  C   UNL     1       4.990   4.686  16.326  0.00  0.00    +0.000 A 
ATOM      7  C   UNL     1       5.326   6.034  16.207  0.00  0.00    +0.000 A 
ATOM      8  C   UNL     1       4.575   7.012  16.870  0.00  0.00    +0.000 A 
ATOM      9  C   UNL     1       3.457   6.660  17.651  0.00  0.00    +0.000 A 
ATOM     10  C   UNL     1       3.094   5.301  17.756  0.00  0.00    +0.000 A 
ATOM     11  C   UNL     1       1.932   4.791  18.566  0.00  0.00    +0.000 C 
ATOM     12  C   UNL     1       3.881   4.333  17.099  0.00  0.00    +0.000 A 
ENDBRANCH   1   9
BRANCH   3  13
ATOM     13  C   UNL     1       1.590   9.914  18.340  0.00  0.00    +0.000 C 
BRANCH  13  14
ATOM     14  C   UNL     1       0.268   9.550  19.079  0.00  0.00    +0.000 C 
ATOM     15  N   UNL     1      -0.879  10.159  18.348  0.00  0.00    +0.000 NA
ATOM     16  C   UNL     1      -0.912  11.636  18.520  0.00  0.00    +0.000 C 
ATOM     17  C   UNL     1      -0.234  12.219  19.783  0.00  0.00    +0.000 C 
ATOM     18  C   UNL     1      -0.273  11.208  20.893  0.00  0.00    +0.000 A 
ATOM     19  C   UNL     1      -0.740  11.526  22.172  0.00  0.00    +0.000 A 
ATOM     20  C   UNL     1      -0.922  10.514  23.111  0.00  0.00    +0.000 A 
ATOM     21  C   UNL     1      -0.584   9.198  22.793  0.00  0.00    +0.000 A 
ATOM     22  C   UNL     1      -0.073   8.883  21.527  0.00  0.00    +0.000 A 
ATOM     23  C   UNL     1       0.070   9.883  20.556  0.00  0.00    +0.000 A 
ATOM     24  H   UNL     1      -1.720   9.789  18.799  0.00  0.00    +0.000 HD
ENDBRANCH  13  14
ENDBRANCH   3  13
TORSDOF 3
ENDMDL
