MODEL 1
REMARK VINA RESULT:      -4.3      0.000      0.000
REMARK  Name = 
REMARK  1 active torsions:
REMARK  status: ('A' for Active; 'I' for Inactive)
REMARK    1  A    between atoms: O_1  and  C_2
REMARK                            x       y       z     vdW  Elec       q    Type
REMARK                         _______ _______ _______ _____ _____    ______ ____
ROOT
ATOM      1  C   UNL     1       3.910   2.208  19.712  0.00  0.00    +0.000 C 
ATOM      2  C   UNL     1       3.186   2.841  20.913  0.00  0.00    +0.000 C 
ATOM      3  N   UNL     1       1.770   2.507  21.085  0.00  0.00    +0.000 NA
ATOM      4  C   UNL     1       0.945   3.156  20.058  0.00  0.00    +0.000 C 
ATOM      5  C   UNL     1       0.834   2.408  18.711  0.00  0.00    +0.000 C 
ATOM      6  N   UNL     1       2.026   1.771  18.143  0.00  0.00    +0.000 NA
ATOM      7  C   UNL     1       3.261   2.518  18.354  0.00  0.00    +0.000 C 
ATOM      8  H   UNL     1       1.475   2.855  21.996  0.00  0.00    +0.000 HD
ATOM      9  H   UNL     1       1.876   1.619  17.147  0.00  0.00    +0.000 HD
ENDROOT
BRANCH   1  10
ATOM     10  O   UNL     1       5.263   2.695  19.687  0.00  0.00    +0.000 OA
ATOM     11  H   UNL     1       5.229   3.625  19.968  0.00  0.00    +0.000 HD
ENDBRANCH   1  10
TORSDOF 1
ENDMDL
MODEL 2
REMARK VINA RESULT:      -4.3      0.832      2.225
REMARK  Name = 
REMARK  1 active torsions:
REMARK  status: ('A' for Active; 'I' for Inactive)
REMARK    1  A    between atoms: O_1  and  C_2
REMARK                            x       y       z     vdW  Elec       q    Type
REMARK                         _______ _______ _______ _____ _____    ______ ____
ROOT
ATOM      1  C   UNL     1       4.103   2.380  19.590  0.00  0.00    +0.000 C 
ATOM      2  C   UNL     1       3.417   1.545  18.495  0.00  0.00    +0.000 C 
ATOM      3  N   UNL     1       2.243   2.135  17.849  0.00  0.00    +0.000 NA
ATOM      4  C   UNL     1       1.091   2.155  18.760  0.00  0.00    +0.000 C 
ATOM      5  C   UNL     1       1.016   3.359  19.725  0.00  0.00    +0.000 C 
ATOM      6  N   UNL     1       2.242   3.840  20.369  0.00  0.00    +0.000 NA
ATOM      7  C   UNL     1       3.174   2.783  20.745  0.00  0.00    +0.000 C 
ATOM      8  H   UNL     1       2.002   1.554  17.046  0.00  0.00    +0.000 HD
ATOM      9  H   UNL     1       1.990   4.391  21.188  0.00  0.00    +0.000 HD
ENDROOT
BRANCH   1  10
ATOM     10  O   UNL     1       5.192   1.614  20.132  0.00  0.00    +0.000 OA
ATOM     11  H   UNL     1       5.933   1.703  19.509  0.00  0.00    +0.000 HD
ENDBRANCH   1  10
TORSDOF 1
ENDMDL
MODEL 3
REMARK VINA RESULT:      -4.3      4.668      5.311
REMARK  Name = 
REMARK  1 active torsions:
REMARK  status: ('A' for Active; 'I' for Inactive)
REMARK    1  A    between atoms: O_1  and  C_2
REMARK                            x       y       z     vdW  Elec       q    Type
REMARK                         _______ _______ _______ _____ _____    ______ ____
ROOT
ATOM      1  C   UNL     1       6.656   4.978  16.075  0.00  0.00    +0.000 C 
ATOM      2  C   UNL     1       7.421   4.619  17.359  0.00  0.00    +0.000 C 
ATOM      3  N   UNL     1       6.625   4.155  18.498  0.00  0.00    +0.000 NA
ATOM      4  C   UNL     1       5.855   5.256  19.090  0.00  0.00    +0.000 C 
ATOM      5  C   UNL     1       4.497   5.565  18.420  0.00  0.00    +0.000 C 
ATOM      6  N   UNL     1       4.396   5.540  16.958  0.00  0.00    +0.000 NA
ATOM      7  C   UNL     1       5.575   6.053  16.268  0.00  0.00    +0.000 C 
ATOM      8  H   UNL     1       7.268   3.801  19.205  0.00  0.00    +0.000 HD
ATOM      9  H   UNL     1       3.570   6.066  16.675  0.00  0.00    +0.000 HD
ENDROOT
BRANCH   1  10
ATOM     10  O   UNL     1       7.599   5.457  15.100  0.00  0.00    +0.000 OA
ATOM     11  H   UNL     1       7.133   5.473  14.247  0.00  0.00    +0.000 HD
ENDBRANCH   1  10
TORSDOF 1
ENDMDL
MODEL 4
REMARK VINA RESULT:      -4.2      4.357      4.998
REMARK  Name = 
REMARK  1 active torsions:
REMARK  status: ('A' for Active; 'I' for Inactive)
REMARK    1  A    between atoms: O_1  and  C_2
REMARK                            x       y       z     vdW  Elec       q    Type
REMARK                         _______ _______ _______ _____ _____    ______ ____
ROOT
ATOM      1  C   UNL     1       6.960   4.521  16.103  0.00  0.00    +0.000 C 
ATOM      2  C   UNL     1       7.430   5.086  17.453  0.00  0.00    +0.000 C 
ATOM      3  N   UNL     1       6.950   4.407  18.660  0.00  0.00    +0.000 NA
ATOM      4  C   UNL     1       5.522   4.667  18.881  0.00  0.00    +0.000 C 
ATOM      5  C   UNL     1       4.543   3.746  18.119  0.00  0.00    +0.000 C 
ATOM      6  N   UNL     1       4.833   3.386  16.728  0.00  0.00    +0.000 NA
ATOM      7  C   UNL     1       5.433   4.461  15.945  0.00  0.00    +0.000 C 
ATOM      8  H   UNL     1       7.468   4.780  19.455  0.00  0.00    +0.000 HD
ATOM      9  H   UNL     1       3.973   3.069  16.283  0.00  0.00    +0.000 HD
ENDROOT
BRANCH   1  10
ATOM     10  O   UNL     1       7.490   5.348  15.053  0.00  0.00    +0.000 OA
ATOM     11  H   UNL     1       7.661   4.761  14.296  0.00  0.00    +0.000 HD
ENDBRANCH   1  10
TORSDOF 1
ENDMDL
MODEL 5
REMARK VINA RESULT:      -4.1      2.645      3.692
REMARK  Name = 
REMARK  1 active torsions:
REMARK  status: ('A' for Active; 'I' for Inactive)
REMARK    1  A    between atoms: O_1  and  C_2
REMARK                            x       y       z     vdW  Elec       q    Type
REMARK                         _______ _______ _______ _____ _____    ______ ____
ROOT
ATOM      1  C   UNL     1       3.122   2.174  18.305  0.00  0.00    +0.000 C 
ATOM      2  C   UNL     1       2.682   3.391  17.472  0.00  0.00    +0.000 C 
ATOM      3  N   UNL     1       3.728   4.337  17.078  0.00  0.00    +0.000 NA
ATOM      4  C   UNL     1       4.203   5.113  18.231  0.00  0.00    +0.000 C 
ATOM      5  C   UNL     1       5.300   4.443  19.089  0.00  0.00    +0.000 C 
ATOM      6  N   UNL     1       5.204   3.010  19.385  0.00  0.00    +0.000 NA
ATOM      7  C   UNL     1       3.843   2.536  19.612  0.00  0.00    +0.000 C 
ATOM      8  H   UNL     1       3.325   4.987  16.404  0.00  0.00    +0.000 HD
ATOM      9  H   UNL     1       5.786   2.801  20.194  0.00  0.00    +0.000 HD
ENDROOT
BRANCH   1  10
ATOM     10  O   UNL     1       1.955   1.401  18.632  0.00  0.00    +0.000 OA
ATOM     11  H   UNL     1       2.270   0.519  18.894  0.00  0.00    +0.000 HD
ENDBRANCH   1  10
TORSDOF 1
ENDMDL
MODEL 6
REMARK VINA RESULT:      -4.1      1.943      2.267
REMARK  Name = 
REMARK  1 active torsions:
REMARK  status: ('A' for Active; 'I' for Inactive)
REMARK    1  A    between atoms: O_1  and  C_2
REMARK                            x       y       z     vdW  Elec       q    Type
REMARK                         _______ _______ _______ _____ _____    ______ ____
ROOT
ATOM      1  C   UNL     1       4.189   2.245  19.717  0.00  0.00    +0.000 C 
ATOM      2  C   UNL     1       4.698   3.661  19.400  0.00  0.00    +0.000 C 
ATOM      3  N   UNL     1       3.735   4.595  18.811  0.00  0.00    +0.000 NA
ATOM      4  C   UNL     1       3.430   4.235  17.420  0.00  0.00    +0.000 C 
ATOM      5  C   UNL     1       2.330   3.167  17.227  0.00  0.00    +0.000 C 
ATOM      6  N   UNL     1       2.291   2.007  18.122  0.00  0.00    +0.000 NA
ATOM      7  C   UNL     1       3.604   1.502  18.505  0.00  0.00    +0.000 C 
ATOM      8  H   UNL     1       4.158   5.523  18.812  0.00  0.00    +0.000 HD
ATOM      9  H   UNL     1       1.748   1.267  17.680  0.00  0.00    +0.000 HD
ENDROOT
BRANCH   1  10
ATOM     10  O   UNL     1       5.285   1.472  20.234  0.00  0.00    +0.000 OA
ATOM     11  H   UNL     1       5.900   1.331  19.495  0.00  0.00    +0.000 HD
ENDBRANCH   1  10
TORSDOF 1
ENDMDL
MODEL 7
REMARK VINA RESULT:      -4.1      4.561      5.399
REMARK  Name = 
REMARK  1 active torsions:
REMARK  status: ('A' for Active; 'I' for Inactive)
REMARK    1  A    between atoms: O_1  and  C_2
REMARK                            x       y       z     vdW  Elec       q    Type
REMARK                         _______ _______ _______ _____ _____    ______ ____
ROOT
ATOM      1  C   UNL     1       7.150   5.634  18.991  0.00  0.00    +0.000 C 
ATOM      2  C   UNL     1       7.834   4.719  17.963  0.00  0.00    +0.000 C 
ATOM      3  N   UNL     1       7.335   4.779  16.587  0.00  0.00    +0.000 NA
ATOM      4  C   UNL     1       6.010   4.157  16.476  0.00  0.00    +0.000 C 
ATOM      5  C   UNL     1       4.808   5.064  16.823  0.00  0.00    +0.000 C 
ATOM      6  N   UNL     1       4.903   5.971  17.972  0.00  0.00    +0.000 NA
ATOM      7  C   UNL     1       5.633   5.421  19.109  0.00  0.00    +0.000 C 
ATOM      8  H   UNL     1       7.981   4.255  15.997  0.00  0.00    +0.000 HD
ATOM      9  H   UNL     1       3.962   6.240  18.258  0.00  0.00    +0.000 HD
ENDROOT
BRANCH   1  10
ATOM     10  O   UNL     1       7.740   5.393  20.280  0.00  0.00    +0.000 OA
ATOM     11  H   UNL     1       8.381   4.671  20.162  0.00  0.00    +0.000 HD
ENDBRANCH   1  10
TORSDOF 1
ENDMDL
MODEL 8
REMARK VINA RESULT:      -4.1      1.150      1.150
REMARK  Name = 
REMARK  1 active torsions:
REMARK  status: ('A' for Active; 'I' for Inactive)
REMARK    1  A    between atoms: O_1  and  C_2
REMARK                            x       y       z     vdW  Elec       q    Type
REMARK                         _______ _______ _______ _____ _____    ______ ____
ROOT
ATOM      1  C   UNL     1       4.259   2.993  19.329  0.00  0.00    +0.000 C 
ATOM      2  C   UNL     1       3.523   4.247  19.828  0.00  0.00    +0.000 C 
ATOM      3  N   UNL     1       2.146   4.067  20.294  0.00  0.00    +0.000 NA
ATOM      4  C   UNL     1       1.237   3.801  19.171  0.00  0.00    +0.000 C 
ATOM      5  C   UNL     1       1.147   2.329  18.711  0.00  0.00    +0.000 C 
ATOM      6  N   UNL     1       2.370   1.524  18.638  0.00  0.00    +0.000 NA
ATOM      7  C   UNL     1       3.544   2.260  18.183  0.00  0.00    +0.000 C 
ATOM      8  H   UNL     1       1.851   4.934  20.742  0.00  0.00    +0.000 HD
ATOM      9  H   UNL     1       2.202   0.724  18.030  0.00  0.00    +0.000 HD
ENDROOT
BRANCH   1  10
ATOM     10  O   UNL     1       5.565   3.382  18.871  0.00  0.00    +0.000 OA
ATOM     11  H   UNL     1       5.444   3.783  17.993  0.00  0.00    +0.000 HD
ENDBRANCH   1  10
TORSDOF 1
ENDMDL
MODEL 9
REMARK VINA RESULT:      -4.1      1.597      2.182
REMARK  Name = 
REMARK  1 active torsions:
REMARK  status: ('A' for Active; 'I' for Inactive)
REMARK    1  A    between atoms: O_1  and  C_2
REMARK                            x       y       z     vdW  Elec       q    Type
REMARK                         _______ _______ _______ _____ _____    ______ ____
ROOT
ATOM      1  C   UNL     1       4.328   3.181  18.573  0.00  0.00    +0.000 C 
ATOM      2  C   UNL     1       3.497   1.913  18.832  0.00  0.00    +0.000 C 
ATOM      3  N   UNL     1       2.262   1.760  18.060  0.00  0.00    +0.000 NA
ATOM      4  C   UNL     1       1.233   2.704  18.515  0.00  0.00    +0.000 C 
ATOM      5  C   UNL     1       1.299   4.120  17.902  0.00  0.00    +0.000 C 
ATOM      6  N   UNL     1       2.604   4.765  17.724  0.00  0.00    +0.000 NA
ATOM      7  C   UNL     1       3.557   4.491  18.794  0.00  0.00    +0.000 C 
ATOM      8  H   UNL     1       1.913   0.814  18.211  0.00  0.00    +0.000 HD
ATOM      9  H   UNL     1       2.465   5.770  17.628  0.00  0.00    +0.000 HD
ENDROOT
BRANCH   1  10
ATOM     10  O   UNL     1       5.463   3.171  19.455  0.00  0.00    +0.000 OA
ATOM     11  H   UNL     1       6.109   3.796  19.085  0.00  0.00    +0.000 HD
ENDBRANCH   1  10
TORSDOF 1
ENDMDL
