MODEL 1
REMARK VINA RESULT:      -8.7      0.000      0.000
REMARK  Name = 
REMARK  1 active torsions:
REMARK  status: ('A' for Active; 'I' for Inactive)
REMARK    1  A    between atoms: C_4  and  C_5
REMARK                            x       y       z     vdW  Elec       q    Type
REMARK                         _______ _______ _______ _____ _____    ______ ____
ROOT
ATOM      1  O   UNL     1       5.177   1.785  20.958  0.00  0.00    +0.000 OA
ATOM      2  C   UNL     1       4.630   2.484  20.114  0.00  0.00    +0.000 A 
ATOM      3  N   UNL     1       5.280   2.916  18.991  0.00  0.00    +0.000 N 
ATOM      4  C   UNL     1       4.734   3.775  18.067  0.00  0.00    +0.000 A 
ATOM      5  N   UNL     1       3.504   4.177  18.142  0.00  0.00    +0.000 NA
ATOM      6  C   UNL     1       2.732   3.760  19.240  0.00  0.00    +0.000 A 
ATOM      7  C   UNL     1       1.415   4.209  19.352  0.00  0.00    +0.000 A 
ATOM      8  C   UNL     1       0.628   3.837  20.449  0.00  0.00    +0.000 A 
ATOM      9  C   UNL     1       1.151   3.011  21.445  0.00  0.00    +0.000 A 
ATOM     10  C   UNL     1       2.463   2.555  21.347  0.00  0.00    +0.000 A 
ATOM     11  C   UNL     1       3.237   2.933  20.247  0.00  0.00    +0.000 A 
ATOM     12  H   UNL     1       6.252   2.640  18.935  0.00  0.00    +0.000 HD
ENDROOT
BRANCH   4  13
ATOM     13  C   UNL     1       5.609   4.223  16.947  0.00  0.00    +0.000 A 
ATOM     14  C   UNL     1       5.298   3.743  15.663  0.00  0.00    +0.000 A 
ATOM     15  C   UNL     1       6.046   4.148  14.559  0.00  0.00    +0.000 A 
ATOM     16 CL   UNL     1       5.660   3.556  12.992  0.00  0.00    +0.000 Cl
ATOM     17  C   UNL     1       7.107   5.037  14.714  0.00  0.00    +0.000 A 
ATOM     18  C   UNL     1       7.425   5.519  15.983  0.00  0.00    +0.000 A 
ATOM     19  C   UNL     1       6.682   5.119  17.100  0.00  0.00    +0.000 A 
ATOM     20 CL   UNL     1       7.147   5.822  18.610  0.00  0.00    +0.000 Cl
ENDBRANCH   4  13
TORSDOF 1
ENDMDL
MODEL 2
REMARK VINA RESULT:      -8.0      1.310      1.377
REMARK  Name = 
REMARK  1 active torsions:
REMARK  status: ('A' for Active; 'I' for Inactive)
REMARK    1  A    between atoms: C_4  and  C_5
REMARK                            x       y       z     vdW  Elec       q    Type
REMARK                         _______ _______ _______ _____ _____    ______ ____
ROOT
ATOM      1  O   UNL     1       3.533   1.014  18.756  0.00  0.00    +0.000 OA
ATOM      2  C   UNL     1       3.624   2.197  18.448  0.00  0.00    +0.000 A 
ATOM      3  N   UNL     1       4.408   2.622  17.411  0.00  0.00    +0.000 N 
ATOM      4  C   UNL     1       4.611   3.943  17.091  0.00  0.00    +0.000 A 
ATOM      5  N   UNL     1       3.990   4.904  17.701  0.00  0.00    +0.000 NA
ATOM      6  C   UNL     1       3.126   4.573  18.761  0.00  0.00    +0.000 A 
ATOM      7  C   UNL     1       2.473   5.597  19.448  0.00  0.00    +0.000 A 
ATOM      8  C   UNL     1       1.630   5.305  20.528  0.00  0.00    +0.000 A 
ATOM      9  C   UNL     1       1.433   3.983  20.930  0.00  0.00    +0.000 A 
ATOM     10  C   UNL     1       2.077   2.950  20.254  0.00  0.00    +0.000 A 
ATOM     11  C   UNL     1       2.915   3.256  19.178  0.00  0.00    +0.000 A 
ATOM     12  H   UNL     1       4.928   1.888  16.948  0.00  0.00    +0.000 HD
ENDROOT
BRANCH   4  13
ATOM     13  C   UNL     1       5.570   4.243  15.991  0.00  0.00    +0.000 A 
ATOM     14  C   UNL     1       5.268   3.719  14.721  0.00  0.00    +0.000 A 
ATOM     15  C   UNL     1       6.097   3.989  13.633  0.00  0.00    +0.000 A 
ATOM     16 CL   UNL     1       5.721   3.344  12.084  0.00  0.00    +0.000 Cl
ATOM     17  C   UNL     1       7.230   4.782  13.789  0.00  0.00    +0.000 A 
ATOM     18  C   UNL     1       7.539   5.306  15.044  0.00  0.00    +0.000 A 
ATOM     19  C   UNL     1       6.716   5.042  16.145  0.00  0.00    +0.000 A 
ATOM     20 CL   UNL     1       7.183   5.787  17.635  0.00  0.00    +0.000 Cl
ENDBRANCH   4  13
TORSDOF 1
ENDMDL
MODEL 3
REMARK VINA RESULT:      -8.0      1.613      2.222
REMARK  Name = 
REMARK  1 active torsions:
REMARK  status: ('A' for Active; 'I' for Inactive)
REMARK    1  A    between atoms: C_4  and  C_5
REMARK                            x       y       z     vdW  Elec       q    Type
REMARK                         _______ _______ _______ _____ _____    ______ ____
ROOT
ATOM      1  O   UNL     1       0.677   4.180  17.296  0.00  0.00    +0.000 OA
ATOM      2  C   UNL     1       1.800   4.028  17.763  0.00  0.00    +0.000 A 
ATOM      3  N   UNL     1       2.932   4.301  17.046  0.00  0.00    +0.000 N 
ATOM      4  C   UNL     1       4.207   4.057  17.498  0.00  0.00    +0.000 A 
ATOM      5  N   UNL     1       4.443   3.627  18.697  0.00  0.00    +0.000 NA
ATOM      6  C   UNL     1       3.348   3.350  19.534  0.00  0.00    +0.000 A 
ATOM      7  C   UNL     1       3.584   2.857  20.819  0.00  0.00    +0.000 A 
ATOM      8  C   UNL     1       2.515   2.542  21.667  0.00  0.00    +0.000 A 
ATOM      9  C   UNL     1       1.199   2.718  21.238  0.00  0.00    +0.000 A 
ATOM     10  C   UNL     1       0.947   3.210  19.960  0.00  0.00    +0.000 A 
ATOM     11  C   UNL     1       2.023   3.520  19.124  0.00  0.00    +0.000 A 
ATOM     12  H   UNL     1       2.765   4.604  16.095  0.00  0.00    +0.000 HD
ENDROOT
BRANCH   4  13
ATOM     13  C   UNL     1       5.330   4.324  16.555  0.00  0.00    +0.000 A 
ATOM     14  C   UNL     1       5.195   3.829  15.246  0.00  0.00    +0.000 A 
ATOM     15  C   UNL     1       6.186   4.072  14.296  0.00  0.00    +0.000 A 
ATOM     16 CL   UNL     1       6.014   3.463  12.698  0.00  0.00    +0.000 Cl
ATOM     17  C   UNL     1       7.319   4.810  14.631  0.00  0.00    +0.000 A 
ATOM     18  C   UNL     1       7.462   5.305  15.927  0.00  0.00    +0.000 A 
ATOM     19  C   UNL     1       6.475   5.068  16.890  0.00  0.00    +0.000 A 
ATOM     20 CL   UNL     1       6.750   5.773  18.445  0.00  0.00    +0.000 Cl
ENDBRANCH   4  13
TORSDOF 1
ENDMDL
MODEL 4
REMARK VINA RESULT:      -7.9      1.847      2.358
REMARK  Name = 
REMARK  1 active torsions:
REMARK  status: ('A' for Active; 'I' for Inactive)
REMARK    1  A    between atoms: C_4  and  C_5
REMARK                            x       y       z     vdW  Elec       q    Type
REMARK                         _______ _______ _______ _____ _____    ______ ____
ROOT
ATOM      1  O   UNL     1       2.241   7.079  18.582  0.00  0.00    +0.000 OA
ATOM      2  C   UNL     1       2.815   6.011  18.405  0.00  0.00    +0.000 A 
ATOM      3  N   UNL     1       3.815   5.864  17.484  0.00  0.00    +0.000 N 
ATOM      4  C   UNL     1       4.420   4.666  17.189  0.00  0.00    +0.000 A 
ATOM      5  N   UNL     1       4.149   3.577  17.839  0.00  0.00    +0.000 NA
ATOM      6  C   UNL     1       3.160   3.626  18.838  0.00  0.00    +0.000 A 
ATOM      7  C   UNL     1       2.835   2.457  19.527  0.00  0.00    +0.000 A 
ATOM      8  C   UNL     1       1.834   2.463  20.506  0.00  0.00    +0.000 A 
ATOM      9  C   UNL     1       1.148   3.642  20.806  0.00  0.00    +0.000 A 
ATOM     10  C   UNL     1       1.463   4.817  20.128  0.00  0.00    +0.000 A 
ATOM     11  C   UNL     1       2.464   4.796  19.153  0.00  0.00    +0.000 A 
ATOM     12  H   UNL     1       4.014   6.695  16.942  0.00  0.00    +0.000 HD
ENDROOT
BRANCH   4  13
ATOM     13  C   UNL     1       5.427   4.659  16.090  0.00  0.00    +0.000 A 
ATOM     14  C   UNL     1       5.037   4.078  14.871  0.00  0.00    +0.000 A 
ATOM     15  C   UNL     1       5.910   4.068  13.784  0.00  0.00    +0.000 A 
ATOM     16 CL   UNL     1       5.426   3.356  12.297  0.00  0.00    +0.000 Cl
ATOM     17  C   UNL     1       7.177   4.637  13.892  0.00  0.00    +0.000 A 
ATOM     18  C   UNL     1       7.574   5.215  15.098  0.00  0.00    +0.000 A 
ATOM     19  C   UNL     1       6.707   5.231  16.196  0.00  0.00    +0.000 A 
ATOM     20 CL   UNL     1       7.300   6.018  17.617  0.00  0.00    +0.000 Cl
ENDBRANCH   4  13
TORSDOF 1
ENDMDL
MODEL 5
REMARK VINA RESULT:      -7.4      2.971      6.370
REMARK  Name = 
REMARK  1 active torsions:
REMARK  status: ('A' for Active; 'I' for Inactive)
REMARK    1  A    between atoms: C_4  and  C_5
REMARK                            x       y       z     vdW  Elec       q    Type
REMARK                         _______ _______ _______ _____ _____    ______ ____
ROOT
ATOM      1  O   UNL     1       7.706   6.745  16.794  0.00  0.00    +0.000 OA
ATOM      2  C   UNL     1       6.690   6.081  16.624  0.00  0.00    +0.000 A 
ATOM      3  N   UNL     1       5.688   6.031  17.552  0.00  0.00    +0.000 N 
ATOM      4  C   UNL     1       4.577   5.228  17.444  0.00  0.00    +0.000 A 
ATOM      5  N   UNL     1       4.344   4.512  16.388  0.00  0.00    +0.000 NA
ATOM      6  C   UNL     1       5.296   4.522  15.353  0.00  0.00    +0.000 A 
ATOM      7  C   UNL     1       5.075   3.733  14.222  0.00  0.00    +0.000 A 
ATOM      8  C   UNL     1       6.016   3.696  13.186  0.00  0.00    +0.000 A 
ATOM      9  C   UNL     1       7.189   4.449  13.272  0.00  0.00    +0.000 A 
ATOM     10  C   UNL     1       7.423   5.241  14.393  0.00  0.00    +0.000 A 
ATOM     11  C   UNL     1       6.475   5.269  15.419  0.00  0.00    +0.000 A 
ATOM     12  H   UNL     1       5.870   6.556  18.398  0.00  0.00    +0.000 HD
ENDROOT
BRANCH   4  13
ATOM     13  C   UNL     1       3.623   5.219  18.589  0.00  0.00    +0.000 A 
ATOM     14  C   UNL     1       3.593   4.060  19.384  0.00  0.00    +0.000 A 
ATOM     15  C   UNL     1       2.755   3.992  20.496  0.00  0.00    +0.000 A 
ATOM     16 CL   UNL     1       2.724   2.571  21.464  0.00  0.00    +0.000 Cl
ATOM     17  C   UNL     1       1.941   5.070  20.834  0.00  0.00    +0.000 A 
ATOM     18  C   UNL     1       1.963   6.224  20.051  0.00  0.00    +0.000 A 
ATOM     19  C   UNL     1       2.799   6.305  18.932  0.00  0.00    +0.000 A 
ATOM     20 CL   UNL     1       2.768   7.805  18.071  0.00  0.00    +0.000 Cl
ENDBRANCH   4  13
TORSDOF 1
ENDMDL
MODEL 6
REMARK VINA RESULT:      -7.4      4.491      5.507
REMARK  Name = 
REMARK  1 active torsions:
REMARK  status: ('A' for Active; 'I' for Inactive)
REMARK    1  A    between atoms: C_4  and  C_5
REMARK                            x       y       z     vdW  Elec       q    Type
REMARK                         _______ _______ _______ _____ _____    ______ ____
ROOT
ATOM      1  O   UNL     1       1.861  10.191  17.353  0.00  0.00    +0.000 OA
ATOM      2  C   UNL     1       1.998   9.241  18.115  0.00  0.00    +0.000 A 
ATOM      3  N   UNL     1       2.733   8.137  17.780  0.00  0.00    +0.000 N 
ATOM      4  C   UNL     1       2.836   7.014  18.564  0.00  0.00    +0.000 A 
ATOM      5  N   UNL     1       2.309   6.947  19.747  0.00  0.00    +0.000 NA
ATOM      6  C   UNL     1       1.562   8.046  20.207  0.00  0.00    +0.000 A 
ATOM      7  C   UNL     1       0.962   7.979  21.465  0.00  0.00    +0.000 A 
ATOM      8  C   UNL     1       0.186   9.043  21.941  0.00  0.00    +0.000 A 
ATOM      9  C   UNL     1       0.003  10.187  21.160  0.00  0.00    +0.000 A 
ATOM     10  C   UNL     1       0.596  10.269  19.903  0.00  0.00    +0.000 A 
ATOM     11  C   UNL     1       1.368   9.199  19.441  0.00  0.00    +0.000 A 
ATOM     12  H   UNL     1       3.122   8.158  16.846  0.00  0.00    +0.000 HD
ENDROOT
BRANCH   4  13
ATOM     13  C   UNL     1       3.600   5.859  18.012  0.00  0.00    +0.000 A 
ATOM     14  C   UNL     1       5.000   5.986  17.964  0.00  0.00    +0.000 A 
ATOM     15  C   UNL     1       5.786   4.933  17.496  0.00  0.00    +0.000 A 
ATOM     16 CL   UNL     1       7.496   5.096  17.439  0.00  0.00    +0.000 Cl
ATOM     17  C   UNL     1       5.195   3.745  17.076  0.00  0.00    +0.000 A 
ATOM     18  C   UNL     1       3.808   3.609  17.119  0.00  0.00    +0.000 A 
ATOM     19  C   UNL     1       3.007   4.658  17.585  0.00  0.00    +0.000 A 
ATOM     20 CL   UNL     1       1.306   4.349  17.633  0.00  0.00    +0.000 Cl
ENDBRANCH   4  13
TORSDOF 1
ENDMDL
MODEL 7
REMARK VINA RESULT:      -7.3      1.172      2.416
REMARK  Name = 
REMARK  1 active torsions:
REMARK  status: ('A' for Active; 'I' for Inactive)
REMARK    1  A    between atoms: C_4  and  C_5
REMARK                            x       y       z     vdW  Elec       q    Type
REMARK                         _______ _______ _______ _____ _____    ______ ____
ROOT
ATOM      1  O   UNL     1       5.217   1.654  20.814  0.00  0.00    +0.000 OA
ATOM      2  C   UNL     1       4.708   2.554  20.155  0.00  0.00    +0.000 A 
ATOM      3  N   UNL     1       5.411   3.259  19.217  0.00  0.00    +0.000 N 
ATOM      4  C   UNL     1       4.907   4.333  18.525  0.00  0.00    +0.000 A 
ATOM      5  N   UNL     1       3.673   4.712  18.641  0.00  0.00    +0.000 NA
ATOM      6  C   UNL     1       2.849   4.028  19.553  0.00  0.00    +0.000 A 
ATOM      7  C   UNL     1       1.526   4.443  19.714  0.00  0.00    +0.000 A 
ATOM      8  C   UNL     1       0.687   3.804  20.635  0.00  0.00    +0.000 A 
ATOM      9  C   UNL     1       1.165   2.742  21.405  0.00  0.00    +0.000 A 
ATOM     10  C   UNL     1       2.483   2.317  21.256  0.00  0.00    +0.000 A 
ATOM     11  C   UNL     1       3.308   2.963  20.333  0.00  0.00    +0.000 A 
ATOM     12  H   UNL     1       6.386   2.999  19.139  0.00  0.00    +0.000 HD
ENDROOT
BRANCH   4  13
ATOM     13  C   UNL     1       5.834   5.052  17.605  0.00  0.00    +0.000 A 
ATOM     14  C   UNL     1       6.426   6.231  18.091  0.00  0.00    +0.000 A 
ATOM     15  C   UNL     1       7.335   6.939  17.305  0.00  0.00    +0.000 A 
ATOM     16 CL   UNL     1       8.054   8.380  17.905  0.00  0.00    +0.000 Cl
ATOM     17  C   UNL     1       7.670   6.484  16.032  0.00  0.00    +0.000 A 
ATOM     18  C   UNL     1       7.088   5.315  15.541  0.00  0.00    +0.000 A 
ATOM     19  C   UNL     1       6.174   4.597  16.320  0.00  0.00    +0.000 A 
ATOM     20 CL   UNL     1       5.559   3.142  15.615  0.00  0.00    +0.000 Cl
ENDBRANCH   4  13
TORSDOF 1
ENDMDL
MODEL 8
REMARK VINA RESULT:      -7.3      2.811      6.488
REMARK  Name = 
REMARK  1 active torsions:
REMARK  status: ('A' for Active; 'I' for Inactive)
REMARK    1  A    between atoms: C_4  and  C_5
REMARK                            x       y       z     vdW  Elec       q    Type
REMARK                         _______ _______ _______ _____ _____    ______ ____
ROOT
ATOM      1  O   UNL     1       7.665   6.599  16.701  0.00  0.00    +0.000 OA
ATOM      2  C   UNL     1       6.680   5.904  16.482  0.00  0.00    +0.000 A 
ATOM      3  N   UNL     1       5.675   5.754  17.397  0.00  0.00    +0.000 N 
ATOM      4  C   UNL     1       4.601   4.913  17.230  0.00  0.00    +0.000 A 
ATOM      5  N   UNL     1       4.406   4.252  16.132  0.00  0.00    +0.000 NA
ATOM      6  C   UNL     1       5.363   4.366  15.107  0.00  0.00    +0.000 A 
ATOM      7  C   UNL     1       5.184   3.637  13.930  0.00  0.00    +0.000 A 
ATOM      8  C   UNL     1       6.133   3.703  12.902  0.00  0.00    +0.000 A 
ATOM      9  C   UNL     1       7.272   4.499  13.043  0.00  0.00    +0.000 A 
ATOM     10  C   UNL     1       7.463   5.232  14.212  0.00  0.00    +0.000 A 
ATOM     11  C   UNL     1       6.508   5.157  15.229  0.00  0.00    +0.000 A 
ATOM     12  H   UNL     1       5.829   6.235  18.274  0.00  0.00    +0.000 HD
ENDROOT
BRANCH   4  13
ATOM     13  C   UNL     1       3.640   4.794  18.364  0.00  0.00    +0.000 A 
ATOM     14  C   UNL     1       3.166   5.993  18.925  0.00  0.00    +0.000 A 
ATOM     15  C   UNL     1       2.236   5.964  19.963  0.00  0.00    +0.000 A 
ATOM     16 CL   UNL     1       1.661   7.433  20.646  0.00  0.00    +0.000 Cl
ATOM     17  C   UNL     1       1.762   4.749  20.452  0.00  0.00    +0.000 A 
ATOM     18  C   UNL     1       2.226   3.555  19.902  0.00  0.00    +0.000 A 
ATOM     19  C   UNL     1       3.161   3.570  18.860  0.00  0.00    +0.000 A 
ATOM     20 CL   UNL     1       3.622   2.025  18.234  0.00  0.00    +0.000 Cl
ENDBRANCH   4  13
TORSDOF 1
ENDMDL
MODEL 9
REMARK VINA RESULT:      -7.2      4.203      6.292
REMARK  Name = 
REMARK  1 active torsions:
REMARK  status: ('A' for Active; 'I' for Inactive)
REMARK    1  A    between atoms: C_4  and  C_5
REMARK                            x       y       z     vdW  Elec       q    Type
REMARK                         _______ _______ _______ _____ _____    ______ ____
ROOT
ATOM      1  O   UNL     1       5.534   5.265  19.407  0.00  0.00    +0.000 OA
ATOM      2  C   UNL     1       4.310   5.299  19.416  0.00  0.00    +0.000 A 
ATOM      3  N   UNL     1       3.613   6.454  19.644  0.00  0.00    +0.000 N 
ATOM      4  C   UNL     1       2.245   6.519  19.755  0.00  0.00    +0.000 A 
ATOM      5  N   UNL     1       1.487   5.486  19.557  0.00  0.00    +0.000 NA
ATOM      6  C   UNL     1       2.101   4.252  19.277  0.00  0.00    +0.000 A 
ATOM      7  C   UNL     1       1.301   3.124  19.091  0.00  0.00    +0.000 A 
ATOM      8  C   UNL     1       1.880   1.874  18.840  0.00  0.00    +0.000 A 
ATOM      9  C   UNL     1       3.269   1.742  18.773  0.00  0.00    +0.000 A 
ATOM     10  C   UNL     1       4.080   2.859  18.955  0.00  0.00    +0.000 A 
ATOM     11  C   UNL     1       3.488   4.099  19.204  0.00  0.00    +0.000 A 
ATOM     12  H   UNL     1       4.191   7.262  19.836  0.00  0.00    +0.000 HD
ENDROOT
BRANCH   4  13
ATOM     13  C   UNL     1       1.647   7.840  20.099  0.00  0.00    +0.000 A 
ATOM     14  C   UNL     1       1.199   8.012  21.421  0.00  0.00    +0.000 A 
ATOM     15  C   UNL     1       0.663   9.233  21.829  0.00  0.00    +0.000 A 
ATOM     16 CL   UNL     1       0.116   9.435  23.446  0.00  0.00    +0.000 Cl
ATOM     17  C   UNL     1       0.571  10.297  20.935  0.00  0.00    +0.000 A 
ATOM     18  C   UNL     1       1.013  10.136  19.622  0.00  0.00    +0.000 A 
ATOM     19  C   UNL     1       1.551   8.916  19.200  0.00  0.00    +0.000 A 
ATOM     20 CL   UNL     1       2.105   8.860  17.562  0.00  0.00    +0.000 Cl
ENDBRANCH   4  13
TORSDOF 1
ENDMDL
