MODEL 1
REMARK VINA RESULT:      -9.7      0.000      0.000
REMARK  Name = 
REMARK  11 active torsions:
REMARK  status: ('A' for Active; 'I' for Inactive)
REMARK    1  A    between atoms: C_1  and  C_2
REMARK    2  A    between atoms: C_6  and  C_7
REMARK    3  A    between atoms: C_10  and  C_11
REMARK    4  A    between atoms: C_11  and  C_12
REMARK    5  A    between atoms: C_11  and  N_13
REMARK    6  A    between atoms: C_16  and  C_17
REMARK    7  A    between atoms: C_16  and  C_22
REMARK    8  A    between atoms: C_17  and  C_18
REMARK    9  A    between atoms: C_18  and  C_19
REMARK   10  A    between atoms: C_18  and  C_20
REMARK   11  A    between atoms: C_18  and  O_21
REMARK                            x       y       z     vdW  Elec       q    Type
REMARK                         _______ _______ _______ _____ _____    ______ ____
ROOT
ATOM      1  N   UNL     1       5.335   4.806  17.824  0.00  0.00    +0.000 N 
ATOM      2  C   UNL     1       4.286   5.122  16.872  0.00  0.00    +0.000 C 
ATOM      3  C   UNL     1       2.972   4.500  17.258  0.00  0.00    +0.000 C 
ATOM      4  C   UNL     1       2.633   4.928  18.693  0.00  0.00    +0.000 C 
ATOM      5  O   UNL     1       3.724   4.464  19.527  0.00  0.00    +0.000 OA
ATOM      6  C   UNL     1       5.042   4.517  19.156  0.00  0.00    +0.000 C 
ATOM      7  O   UNL     1       5.907   4.290  19.999  0.00  0.00    +0.000 OA
ENDROOT
BRANCH   4   8
ATOM      8  C   UNL     1       2.455   6.452  18.786  0.00  0.00    +0.000 A 
ATOM      9  C   UNL     1       2.028   7.052  19.987  0.00  0.00    +0.000 A 
ATOM     10  C   UNL     1       1.785   8.427  20.065  0.00  0.00    +0.000 A 
ATOM     11  C   UNL     1       1.947   9.230  18.942  0.00  0.00    +0.000 A 
ATOM     12  C   UNL     1       2.359   8.662  17.741  0.00  0.00    +0.000 A 
ATOM     13  C   UNL     1       2.621   7.291  17.667  0.00  0.00    +0.000 A 
ENDBRANCH   4   8
BRANCH   1  14
ATOM     14  C   UNL     1       6.752   4.996  17.428  0.00  0.00    +0.000 C 
ATOM     15  C   UNL     1       6.982   4.699  15.939  0.00  0.00    +0.000 C 
BRANCH  14  19
ATOM     16  C   UNL     1       8.434   8.881  18.477  0.00  0.00    +0.000 A 
ATOM     17  C   UNL     1       7.532   8.757  17.416  0.00  0.00    +0.000 A 
ATOM     18  C   UNL     1       6.994   7.504  17.088  0.00  0.00    +0.000 A 
ATOM     19  C   UNL     1       7.320   6.358  17.833  0.00  0.00    +0.000 A 
ATOM     20  C   UNL     1       8.150   6.522  18.951  0.00  0.00    +0.000 A 
ATOM     21  C   UNL     1       8.721   7.761  19.258  0.00  0.00    +0.000 A 
BRANCH  16  27
ATOM     22  C   UNL     1      11.181  15.591  17.913  0.00  0.00    +0.000 C 
ATOM     23  C   UNL     1      10.669  14.245  18.244  0.00  0.00    +0.000 A 
ATOM     24  C   UNL     1      10.196  13.258  17.404  0.00  0.00    +0.000 A 
ATOM     25  N   UNL     1       9.847  12.213  18.215  0.00  0.00    +0.000 N 
ATOM     26  N   UNL     1       9.314  11.028  17.798  0.00  0.00    +0.000 NA
ATOM     27  C   UNL     1       9.051  10.208  18.775  0.00  0.00    +0.000 A 
ATOM     28  C   UNL     1       9.345  10.483  20.218  0.00  0.00    +0.000 A 
ATOM     29  C   UNL     1       9.856  11.678  20.538  0.00  0.00    +0.000 A 
ATOM     30  C   UNL     1      10.126  12.606  19.511  0.00  0.00    +0.000 A 
ATOM     31  N   UNL     1      10.622  13.825  19.555  0.00  0.00    +0.000 NA
ENDBRANCH  16  27
ENDBRANCH  14  19
ENDBRANCH   1  14
BRANCH   4  32
ATOM     32  C   UNL     1       1.348   4.128  19.069  0.00  0.00    +0.000 C 
BRANCH  32  33
ATOM     33  C   UNL     1       1.391   2.784  19.829  0.00  0.00    +0.000 C 
ATOM     34  C   UNL     1       2.352   1.757  19.236  0.00  0.00    +0.000 C 
ATOM     35  C   UNL     1       1.617   2.924  21.334  0.00  0.00    +0.000 C 
BRANCH  33  36
ATOM     36  O   UNL     1       0.058   2.235  19.711  0.00  0.00    +0.000 OA
ATOM     37  H   UNL     1      -0.242   2.363  18.795  0.00  0.00    +0.000 HD
ENDBRANCH  33  36
ENDBRANCH  32  33
ENDBRANCH   4  32
TORSDOF 7
ENDMDL
MODEL 2
REMARK VINA RESULT:      -9.3      0.808      1.102
REMARK  Name = 
REMARK  11 active torsions:
REMARK  status: ('A' for Active; 'I' for Inactive)
REMARK    1  A    between atoms: C_1  and  C_2
REMARK    2  A    between atoms: C_6  and  C_7
REMARK    3  A    between atoms: C_10  and  C_11
REMARK    4  A    between atoms: C_11  and  C_12
REMARK    5  A    between atoms: C_11  and  N_13
REMARK    6  A    between atoms: C_16  and  C_17
REMARK    7  A    between atoms: C_16  and  C_22
REMARK    8  A    between atoms: C_17  and  C_18
REMARK    9  A    between atoms: C_18  and  C_19
REMARK   10  A    between atoms: C_18  and  C_20
REMARK   11  A    between atoms: C_18  and  O_21
REMARK                            x       y       z     vdW  Elec       q    Type
REMARK                         _______ _______ _______ _____ _____    ______ ____
ROOT
ATOM      1  N   UNL     1       5.414   4.806  17.901  0.00  0.00    +0.000 N 
ATOM      2  C   UNL     1       4.437   5.157  16.887  0.00  0.00    +0.000 C 
ATOM      3  C   UNL     1       3.099   4.526  17.154  0.00  0.00    +0.000 C 
ATOM      4  C   UNL     1       2.656   4.906  18.575  0.00  0.00    +0.000 C 
ATOM      5  O   UNL     1       3.683   4.410  19.470  0.00  0.00    +0.000 OA
ATOM      6  C   UNL     1       5.025   4.472  19.197  0.00  0.00    +0.000 C 
ATOM      7  O   UNL     1       5.826   4.214  20.093  0.00  0.00    +0.000 OA
ENDROOT
BRANCH   4   8
ATOM      8  C   UNL     1       2.471   6.426  18.708  0.00  0.00    +0.000 A 
ATOM      9  C   UNL     1       2.062   6.995  19.929  0.00  0.00    +0.000 A 
ATOM     10  C   UNL     1       1.814   8.366  20.044  0.00  0.00    +0.000 A 
ATOM     11  C   UNL     1       1.953   9.197  18.937  0.00  0.00    +0.000 A 
ATOM     12  C   UNL     1       2.346   8.660  17.716  0.00  0.00    +0.000 A 
ATOM     13  C   UNL     1       2.614   7.292  17.606  0.00  0.00    +0.000 A 
ENDBRANCH   4   8
BRANCH   1  14
ATOM     14  C   UNL     1       6.856   5.005  17.616  0.00  0.00    +0.000 C 
ATOM     15  C   UNL     1       7.246   4.501  16.219  0.00  0.00    +0.000 C 
BRANCH  14  19
ATOM     16  C   UNL     1       8.261   9.094  18.193  0.00  0.00    +0.000 A 
ATOM     17  C   UNL     1       7.260   8.809  17.261  0.00  0.00    +0.000 A 
ATOM     18  C   UNL     1       6.812   7.492  17.084  0.00  0.00    +0.000 A 
ATOM     19  C   UNL     1       7.331   6.440  17.858  0.00  0.00    +0.000 A 
ATOM     20  C   UNL     1       8.265   6.763  18.853  0.00  0.00    +0.000 A 
ATOM     21  C   UNL     1       8.744   8.067  19.006  0.00  0.00    +0.000 A 
BRANCH  16  27
ATOM     22  C   UNL     1      12.219  14.942  19.932  0.00  0.00    +0.000 C 
ATOM     23  C   UNL     1      11.282  13.896  19.470  0.00  0.00    +0.000 A 
ATOM     24  C   UNL     1      11.262  12.549  19.766  0.00  0.00    +0.000 A 
ATOM     25  N   UNL     1      10.196  12.033  19.082  0.00  0.00    +0.000 N 
ATOM     26  N   UNL     1       9.815  10.722  19.076  0.00  0.00    +0.000 NA
ATOM     27  C   UNL     1       8.776  10.489  18.325  0.00  0.00    +0.000 A 
ATOM     28  C   UNL     1       8.017  11.540  17.575  0.00  0.00    +0.000 A 
ATOM     29  C   UNL     1       8.470  12.800  17.627  0.00  0.00    +0.000 A 
ATOM     30  C   UNL     1       9.611  13.087  18.404  0.00  0.00    +0.000 A 
ATOM     31  N   UNL     1      10.247  14.219  18.622  0.00  0.00    +0.000 NA
ENDBRANCH  16  27
ENDBRANCH  14  19
ENDBRANCH   1  14
BRANCH   4  32
ATOM     32  C   UNL     1       1.347   4.096  18.829  0.00  0.00    +0.000 C 
BRANCH  32  33
ATOM     33  C   UNL     1       1.279   2.897  19.799  0.00  0.00    +0.000 C 
ATOM     34  C   UNL     1       2.124   1.698  19.379  0.00  0.00    +0.000 C 
ATOM     35  C   UNL     1       1.550   3.260  21.259  0.00  0.00    +0.000 C 
BRANCH  33  36
ATOM     36  O   UNL     1      -0.103   2.468  19.782  0.00  0.00    +0.000 OA
ATOM     37  H   UNL     1      -0.179   1.672  20.336  0.00  0.00    +0.000 HD
ENDBRANCH  33  36
ENDBRANCH  32  33
ENDBRANCH   4  32
TORSDOF 7
ENDMDL
MODEL 3
REMARK VINA RESULT:      -9.0      0.661      1.166
REMARK  Name = 
REMARK  11 active torsions:
REMARK  status: ('A' for Active; 'I' for Inactive)
REMARK    1  A    between atoms: C_1  and  C_2
REMARK    2  A    between atoms: C_6  and  C_7
REMARK    3  A    between atoms: C_10  and  C_11
REMARK    4  A    between atoms: C_11  and  C_12
REMARK    5  A    between atoms: C_11  and  N_13
REMARK    6  A    between atoms: C_16  and  C_17
REMARK    7  A    between atoms: C_16  and  C_22
REMARK    8  A    between atoms: C_17  and  C_18
REMARK    9  A    between atoms: C_18  and  C_19
REMARK   10  A    between atoms: C_18  and  C_20
REMARK   11  A    between atoms: C_18  and  O_21
REMARK                            x       y       z     vdW  Elec       q    Type
REMARK                         _______ _______ _______ _____ _____    ______ ____
ROOT
ATOM      1  N   UNL     1       5.277   5.069  17.884  0.00  0.00    +0.000 N 
ATOM      2  C   UNL     1       4.106   5.140  17.031  0.00  0.00    +0.000 C 
ATOM      3  C   UNL     1       2.910   4.482  17.663  0.00  0.00    +0.000 C 
ATOM      4  C   UNL     1       2.687   5.105  19.049  0.00  0.00    +0.000 C 
ATOM      5  O   UNL     1       3.902   4.871  19.803  0.00  0.00    +0.000 OA
ATOM      6  C   UNL     1       5.160   4.973  19.270  0.00  0.00    +0.000 C 
ATOM      7  O   UNL     1       6.130   4.957  20.026  0.00  0.00    +0.000 OA
ENDROOT
BRANCH   4   8
ATOM      8  C   UNL     1       2.367   6.604  18.934  0.00  0.00    +0.000 A 
ATOM      9  C   UNL     1       2.649   7.309  17.748  0.00  0.00    +0.000 A 
ATOM     10  C   UNL     1       2.437   8.688  17.655  0.00  0.00    +0.000 A 
ATOM     11  C   UNL     1       1.954   9.396  18.751  0.00  0.00    +0.000 A 
ATOM     12  C   UNL     1       1.675   8.727  19.937  0.00  0.00    +0.000 A 
ATOM     13  C   UNL     1       1.868   7.344  20.024  0.00  0.00    +0.000 A 
ENDBRANCH   4   8
BRANCH   1  14
ATOM     14  C   UNL     1       6.618   5.309  17.295  0.00  0.00    +0.000 C 
ATOM     15  C   UNL     1       6.614   5.157  15.767  0.00  0.00    +0.000 C 
BRANCH  14  19
ATOM     16  C   UNL     1       8.463   9.093  18.438  0.00  0.00    +0.000 A 
ATOM     17  C   UNL     1       7.432   9.058  17.494  0.00  0.00    +0.000 A 
ATOM     18  C   UNL     1       6.842   7.837  17.135  0.00  0.00    +0.000 A 
ATOM     19  C   UNL     1       7.247   6.633  17.735  0.00  0.00    +0.000 A 
ATOM     20  C   UNL     1       8.215   6.703  18.748  0.00  0.00    +0.000 A 
ATOM     21  C   UNL     1       8.834   7.911  19.080  0.00  0.00    +0.000 A 
BRANCH  16  27
ATOM     22  C   UNL     1      11.643  15.617  17.987  0.00  0.00    +0.000 C 
ATOM     23  C   UNL     1      11.024  14.312  18.298  0.00  0.00    +0.000 A 
ATOM     24  C   UNL     1      10.572  13.331  17.440  0.00  0.00    +0.000 A 
ATOM     25  N   UNL     1      10.089  12.330  18.237  0.00  0.00    +0.000 N 
ATOM     26  N   UNL     1       9.526  11.167  17.797  0.00  0.00    +0.000 NA
ATOM     27  C   UNL     1       9.128  10.389  18.763  0.00  0.00    +0.000 A 
ATOM     28  C   UNL     1       9.304  10.685  20.221  0.00  0.00    +0.000 A 
ATOM     29  C   UNL     1       9.854  11.858  20.561  0.00  0.00    +0.000 A 
ATOM     30  C   UNL     1      10.271  12.741  19.544  0.00  0.00    +0.000 A 
ATOM     31  N   UNL     1      10.832  13.931  19.608  0.00  0.00    +0.000 NA
ENDBRANCH  16  27
ENDBRANCH  14  19
ENDBRANCH   1  14
BRANCH   4  32
ATOM     32  C   UNL     1       1.537   4.271  19.694  0.00  0.00    +0.000 C 
BRANCH  32  33
ATOM     33  C   UNL     1       1.696   2.785  20.081  0.00  0.00    +0.000 C 
ATOM     34  C   UNL     1       1.566   2.507  21.576  0.00  0.00    +0.000 C 
ATOM     35  C   UNL     1       0.809   1.833  19.279  0.00  0.00    +0.000 C 
BRANCH  33  36
ATOM     36  O   UNL     1       3.046   2.432  19.701  0.00  0.00    +0.000 OA
ATOM     37  H   UNL     1       3.618   2.541  20.480  0.00  0.00    +0.000 HD
ENDBRANCH  33  36
ENDBRANCH  32  33
ENDBRANCH   4  32
TORSDOF 7
ENDMDL
MODEL 4
REMARK VINA RESULT:      -8.8      1.177      1.864
REMARK  Name = 
REMARK  11 active torsions:
REMARK  status: ('A' for Active; 'I' for Inactive)
REMARK    1  A    between atoms: C_1  and  C_2
REMARK    2  A    between atoms: C_6  and  C_7
REMARK    3  A    between atoms: C_10  and  C_11
REMARK    4  A    between atoms: C_11  and  C_12
REMARK    5  A    between atoms: C_11  and  N_13
REMARK    6  A    between atoms: C_16  and  C_17
REMARK    7  A    between atoms: C_16  and  C_22
REMARK    8  A    between atoms: C_17  and  C_18
REMARK    9  A    between atoms: C_18  and  C_19
REMARK   10  A    between atoms: C_18  and  C_20
REMARK   11  A    between atoms: C_18  and  O_21
REMARK                            x       y       z     vdW  Elec       q    Type
REMARK                         _______ _______ _______ _____ _____    ______ ____
ROOT
ATOM      1  N   UNL     1       5.429   5.204  17.927  0.00  0.00    +0.000 N 
ATOM      2  C   UNL     1       4.279   5.322  17.050  0.00  0.00    +0.000 C 
ATOM      3  C   UNL     1       3.050   4.697  17.651  0.00  0.00    +0.000 C 
ATOM      4  C   UNL     1       2.817   5.314  19.038  0.00  0.00    +0.000 C 
ATOM      5  O   UNL     1       4.008   5.034  19.815  0.00  0.00    +0.000 OA
ATOM      6  C   UNL     1       5.280   5.099  19.309  0.00  0.00    +0.000 C 
ATOM      7  O   UNL     1       6.232   5.044  20.084  0.00  0.00    +0.000 OA
ENDROOT
BRANCH   4   8
ATOM      8  C   UNL     1       2.549   6.824  18.932  0.00  0.00    +0.000 A 
ATOM      9  C   UNL     1       1.962   7.525  20.003  0.00  0.00    +0.000 A 
ATOM     10  C   UNL     1       1.639   8.881  19.893  0.00  0.00    +0.000 A 
ATOM     11  C   UNL     1       1.881   9.563  18.705  0.00  0.00    +0.000 A 
ATOM     12  C   UNL     1       2.451   8.893  17.629  0.00  0.00    +0.000 A 
ATOM     13  C   UNL     1       2.793   7.542  17.745  0.00  0.00    +0.000 A 
ENDBRANCH   4   8
BRANCH   1  14
ATOM     14  C   UNL     1       6.789   5.405  17.367  0.00  0.00    +0.000 C 
ATOM     15  C   UNL     1       6.842   5.125  15.859  0.00  0.00    +0.000 C 
BRANCH  14  19
ATOM     16  C   UNL     1       8.459   9.280  18.472  0.00  0.00    +0.000 A 
ATOM     17  C   UNL     1       8.870   8.115  19.125  0.00  0.00    +0.000 A 
ATOM     18  C   UNL     1       8.330   6.872  18.761  0.00  0.00    +0.000 A 
ATOM     19  C   UNL     1       7.394   6.767  17.717  0.00  0.00    +0.000 A 
ATOM     20  C   UNL     1       7.069   7.936  17.013  0.00  0.00    +0.000 A 
ATOM     21  C   UNL     1       7.573   9.181  17.398  0.00  0.00    +0.000 A 
BRANCH  16  27
ATOM     22  C   UNL     1      10.245  15.132  22.404  0.00  0.00    +0.000 C 
ATOM     23  C   UNL     1       9.982  14.047  21.436  0.00  0.00    +0.000 A 
ATOM     24  C   UNL     1       9.255  12.886  21.600  0.00  0.00    +0.000 A 
ATOM     25  N   UNL     1       9.325  12.229  20.402  0.00  0.00    +0.000 N 
ATOM     26  N   UNL     1       8.756  11.019  20.125  0.00  0.00    +0.000 NA
ATOM     27  C   UNL     1       8.991  10.604  18.913  0.00  0.00    +0.000 A 
ATOM     28  C   UNL     1       9.756  11.376  17.883  0.00  0.00    +0.000 A 
ATOM     29  C   UNL     1      10.292  12.549  18.247  0.00  0.00    +0.000 A 
ATOM     30  C   UNL     1      10.086  13.019  19.560  0.00  0.00    +0.000 A 
ATOM     31  N   UNL     1      10.493  14.119  20.159  0.00  0.00    +0.000 NA
ENDBRANCH  16  27
ENDBRANCH  14  19
ENDBRANCH   1  14
BRANCH   4  32
ATOM     32  C   UNL     1       1.628   4.513  19.651  0.00  0.00    +0.000 C 
BRANCH  32  33
ATOM     33  C   UNL     1       1.695   2.996  19.929  0.00  0.00    +0.000 C 
ATOM     34  C   UNL     1       1.505   2.615  21.394  0.00  0.00    +0.000 C 
ATOM     35  C   UNL     1       0.783   2.156  19.034  0.00  0.00    +0.000 C 
BRANCH  33  36
ATOM     36  O   UNL     1       3.035   2.597  19.558  0.00  0.00    +0.000 OA
ATOM     37  H   UNL     1       3.642   3.320  19.792  0.00  0.00    +0.000 HD
ENDBRANCH  33  36
ENDBRANCH  32  33
ENDBRANCH   4  32
TORSDOF 7
ENDMDL
MODEL 5
REMARK VINA RESULT:      -8.6      1.046      1.392
REMARK  Name = 
REMARK  11 active torsions:
REMARK  status: ('A' for Active; 'I' for Inactive)
REMARK    1  A    between atoms: C_1  and  C_2
REMARK    2  A    between atoms: C_6  and  C_7
REMARK    3  A    between atoms: C_10  and  C_11
REMARK    4  A    between atoms: C_11  and  C_12
REMARK    5  A    between atoms: C_11  and  N_13
REMARK    6  A    between atoms: C_16  and  C_17
REMARK    7  A    between atoms: C_16  and  C_22
REMARK    8  A    between atoms: C_17  and  C_18
REMARK    9  A    between atoms: C_18  and  C_19
REMARK   10  A    between atoms: C_18  and  C_20
REMARK   11  A    between atoms: C_18  and  O_21
REMARK                            x       y       z     vdW  Elec       q    Type
REMARK                         _______ _______ _______ _____ _____    ______ ____
ROOT
ATOM      1  N   UNL     1       5.560   5.251  17.828  0.00  0.00    +0.000 N 
ATOM      2  C   UNL     1       4.370   5.288  17.000  0.00  0.00    +0.000 C 
ATOM      3  C   UNL     1       3.211   4.585  17.651  0.00  0.00    +0.000 C 
ATOM      4  C   UNL     1       2.995   5.189  19.046  0.00  0.00    +0.000 C 
ATOM      5  O   UNL     1       4.232   4.992  19.774  0.00  0.00    +0.000 OA
ATOM      6  C   UNL     1       5.475   5.141  19.215  0.00  0.00    +0.000 C 
ATOM      7  O   UNL     1       6.460   5.152  19.951  0.00  0.00    +0.000 OA
ENDROOT
BRANCH   4   8
ATOM      8  C   UNL     1       2.621   6.678  18.950  0.00  0.00    +0.000 A 
ATOM      9  C   UNL     1       2.013   7.335  20.037  0.00  0.00    +0.000 A 
ATOM     10  C   UNL     1       1.597   8.667  19.938  0.00  0.00    +0.000 A 
ATOM     11  C   UNL     1       1.763   9.365  18.747  0.00  0.00    +0.000 A 
ATOM     12  C   UNL     1       2.352   8.736  17.655  0.00  0.00    +0.000 A 
ATOM     13  C   UNL     1       2.787   7.412  17.760  0.00  0.00    +0.000 A 
ENDBRANCH   4   8
BRANCH   1  14
ATOM     14  C   UNL     1       6.879   5.541  17.213  0.00  0.00    +0.000 C 
ATOM     15  C   UNL     1       6.863   5.346  15.690  0.00  0.00    +0.000 C 
BRANCH  14  19
ATOM     16  C   UNL     1       8.442   9.422  18.447  0.00  0.00    +0.000 A 
ATOM     17  C   UNL     1       8.900   8.245  19.047  0.00  0.00    +0.000 A 
ATOM     18  C   UNL     1       8.393   7.001  18.642  0.00  0.00    +0.000 A 
ATOM     19  C   UNL     1       7.446   6.906  17.607  0.00  0.00    +0.000 A 
ATOM     20  C   UNL     1       7.074   8.091  16.955  0.00  0.00    +0.000 A 
ATOM     21  C   UNL     1       7.544   9.336  17.382  0.00  0.00    +0.000 A 
BRANCH  16  27
ATOM     22  C   UNL     1      10.214  16.456  18.962  0.00  0.00    +0.000 C 
ATOM     23  C   UNL     1       9.936  15.008  19.063  0.00  0.00    +0.000 A 
ATOM     24  C   UNL     1       9.442  14.144  18.108  0.00  0.00    +0.000 A 
ATOM     25  N   UNL     1       9.373  12.919  18.713  0.00  0.00    +0.000 N 
ATOM     26  N   UNL     1       8.920  11.770  18.131  0.00  0.00    +0.000 NA
ATOM     27  C   UNL     1       8.939  10.744  18.933  0.00  0.00    +0.000 A 
ATOM     28  C   UNL     1       9.453  10.772  20.339  0.00  0.00    +0.000 A 
ATOM     29  C   UNL     1       9.866  11.947  20.833  0.00  0.00    +0.000 A 
ATOM     30  C   UNL     1       9.832  13.088  20.006  0.00  0.00    +0.000 A 
ATOM     31  N   UNL     1      10.177  14.337  20.242  0.00  0.00    +0.000 NA
ENDBRANCH  16  27
ENDBRANCH  14  19
ENDBRANCH   1  14
BRANCH   4  32
ATOM     32  C   UNL     1       1.888   4.312  19.708  0.00  0.00    +0.000 C 
BRANCH  32  33
ATOM     33  C   UNL     1       2.158   3.400  20.924  0.00  0.00    +0.000 C 
ATOM     34  C   UNL     1       0.926   2.667  21.446  0.00  0.00    +0.000 C 
ATOM     35  C   UNL     1       3.319   2.426  20.728  0.00  0.00    +0.000 C 
BRANCH  33  36
ATOM     36  O   UNL     1       2.601   4.287  21.977  0.00  0.00    +0.000 OA
ATOM     37  H   UNL     1       1.884   4.363  22.630  0.00  0.00    +0.000 HD
ENDBRANCH  33  36
ENDBRANCH  32  33
ENDBRANCH   4  32
TORSDOF 7
ENDMDL
MODEL 6
REMARK VINA RESULT:      -8.5      0.704      1.352
REMARK  Name = 
REMARK  11 active torsions:
REMARK  status: ('A' for Active; 'I' for Inactive)
REMARK    1  A    between atoms: C_1  and  C_2
REMARK    2  A    between atoms: C_6  and  C_7
REMARK    3  A    between atoms: C_10  and  C_11
REMARK    4  A    between atoms: C_11  and  C_12
REMARK    5  A    between atoms: C_11  and  N_13
REMARK    6  A    between atoms: C_16  and  C_17
REMARK    7  A    between atoms: C_16  and  C_22
REMARK    8  A    between atoms: C_17  and  C_18
REMARK    9  A    between atoms: C_18  and  C_19
REMARK   10  A    between atoms: C_18  and  C_20
REMARK   11  A    between atoms: C_18  and  O_21
REMARK                            x       y       z     vdW  Elec       q    Type
REMARK                         _______ _______ _______ _____ _____    ______ ____
ROOT
ATOM      1  N   UNL     1       5.139   5.249  17.892  0.00  0.00    +0.000 N 
ATOM      2  C   UNL     1       3.915   5.277  17.113  0.00  0.00    +0.000 C 
ATOM      3  C   UNL     1       2.762   4.663  17.857  0.00  0.00    +0.000 C 
ATOM      4  C   UNL     1       2.628   5.366  19.216  0.00  0.00    +0.000 C 
ATOM      5  O   UNL     1       3.889   5.170  19.903  0.00  0.00    +0.000 OA
ATOM      6  C   UNL     1       5.111   5.235  19.285  0.00  0.00    +0.000 C 
ATOM      7  O   UNL     1       6.127   5.257  19.977  0.00  0.00    +0.000 OA
ENDROOT
BRANCH   4   8
ATOM      8  C   UNL     1       2.304   6.858  19.036  0.00  0.00    +0.000 A 
ATOM      9  C   UNL     1       2.584   7.510  17.820  0.00  0.00    +0.000 A 
ATOM     10  C   UNL     1       2.368   8.883  17.666  0.00  0.00    +0.000 A 
ATOM     11  C   UNL     1       1.882   9.638  18.729  0.00  0.00    +0.000 A 
ATOM     12  C   UNL     1       1.606   9.020  19.944  0.00  0.00    +0.000 A 
ATOM     13  C   UNL     1       1.803   7.643  20.092  0.00  0.00    +0.000 A 
ENDBRANCH   4   8
BRANCH   1  14
ATOM     14  C   UNL     1       6.438   5.448  17.204  0.00  0.00    +0.000 C 
ATOM     15  C   UNL     1       6.323   5.267  15.684  0.00  0.00    +0.000 C 
BRANCH  14  19
ATOM     16  C   UNL     1       8.351   9.193  18.364  0.00  0.00    +0.000 A 
ATOM     17  C   UNL     1       8.781   7.976  18.901  0.00  0.00    +0.000 A 
ATOM     18  C   UNL     1       8.162   6.777  18.520  0.00  0.00    +0.000 A 
ATOM     19  C   UNL     1       7.125   6.766  17.571  0.00  0.00    +0.000 A 
ATOM     20  C   UNL     1       6.775   7.986  16.975  0.00  0.00    +0.000 A 
ATOM     21  C   UNL     1       7.360   9.189  17.381  0.00  0.00    +0.000 A 
BRANCH  16  27
ATOM     22  C   UNL     1      11.056  15.937  18.667  0.00  0.00    +0.000 C 
ATOM     23  C   UNL     1      10.559  14.553  18.821  0.00  0.00    +0.000 A 
ATOM     24  C   UNL     1      10.065  13.690  17.865  0.00  0.00    +0.000 A 
ATOM     25  N   UNL     1       9.744  12.539  18.531  0.00  0.00    +0.000 N 
ATOM     26  N   UNL     1       9.202  11.420  17.968  0.00  0.00    +0.000 NA
ATOM     27  C   UNL     1       8.972  10.469  18.827  0.00  0.00    +0.000 A 
ATOM     28  C   UNL     1       9.308  10.542  20.285  0.00  0.00    +0.000 A 
ATOM     29  C   UNL     1       9.824  11.685  20.755  0.00  0.00    +0.000 A 
ATOM     30  C   UNL     1      10.060  12.749  19.861  0.00  0.00    +0.000 A 
ATOM     31  N   UNL     1      10.552  13.954  20.061  0.00  0.00    +0.000 NA
ENDBRANCH  16  27
ENDBRANCH  14  19
ENDBRANCH   1  14
BRANCH   4  32
ATOM     32  C   UNL     1       1.522   4.577  19.981  0.00  0.00    +0.000 C 
BRANCH  32  33
ATOM     33  C   UNL     1       1.504   3.036  20.074  0.00  0.00    +0.000 C 
ATOM     34  C   UNL     1       0.780   2.344  18.923  0.00  0.00    +0.000 C 
ATOM     35  C   UNL     1       2.880   2.408  20.297  0.00  0.00    +0.000 C 
BRANCH  33  36
ATOM     36  O   UNL     1       0.767   2.733  21.281  0.00  0.00    +0.000 OA
ATOM     37  H   UNL     1      -0.040   2.250  21.030  0.00  0.00    +0.000 HD
ENDBRANCH  33  36
ENDBRANCH  32  33
ENDBRANCH   4  32
TORSDOF 7
ENDMDL
MODEL 7
REMARK VINA RESULT:      -7.8      1.325      2.115
REMARK  Name = 
REMARK  11 active torsions:
REMARK  status: ('A' for Active; 'I' for Inactive)
REMARK    1  A    between atoms: C_1  and  C_2
REMARK    2  A    between atoms: C_6  and  C_7
REMARK    3  A    between atoms: C_10  and  C_11
REMARK    4  A    between atoms: C_11  and  C_12
REMARK    5  A    between atoms: C_11  and  N_13
REMARK    6  A    between atoms: C_16  and  C_17
REMARK    7  A    between atoms: C_16  and  C_22
REMARK    8  A    between atoms: C_17  and  C_18
REMARK    9  A    between atoms: C_18  and  C_19
REMARK   10  A    between atoms: C_18  and  C_20
REMARK   11  A    between atoms: C_18  and  O_21
REMARK                            x       y       z     vdW  Elec       q    Type
REMARK                         _______ _______ _______ _____ _____    ______ ____
ROOT
ATOM      1  N   UNL     1       5.734   5.152  17.896  0.00  0.00    +0.000 N 
ATOM      2  C   UNL     1       4.586   5.128  17.009  0.00  0.00    +0.000 C 
ATOM      3  C   UNL     1       3.424   4.390  17.615  0.00  0.00    +0.000 C 
ATOM      4  C   UNL     1       3.116   5.007  18.987  0.00  0.00    +0.000 C 
ATOM      5  O   UNL     1       4.323   4.871  19.778  0.00  0.00    +0.000 OA
ATOM      6  C   UNL     1       5.585   5.060  19.278  0.00  0.00    +0.000 C 
ATOM      7  O   UNL     1       6.531   5.122  20.061  0.00  0.00    +0.000 OA
ENDROOT
BRANCH   4   8
ATOM      8  C   UNL     1       2.690   6.477  18.847  0.00  0.00    +0.000 A 
ATOM      9  C   UNL     1       2.976   7.197  17.671  0.00  0.00    +0.000 A 
ATOM     10  C   UNL     1       2.665   8.556  17.559  0.00  0.00    +0.000 A 
ATOM     11  C   UNL     1       2.077   9.230  18.624  0.00  0.00    +0.000 A 
ATOM     12  C   UNL     1       1.793   8.545  19.801  0.00  0.00    +0.000 A 
ATOM     13  C   UNL     1       2.085   7.181  19.906  0.00  0.00    +0.000 A 
ENDBRANCH   4   8
BRANCH   1  14
ATOM     14  C   UNL     1       7.069   5.485  17.340  0.00  0.00    +0.000 C 
ATOM     15  C   UNL     1       7.161   5.190  15.836  0.00  0.00    +0.000 C 
BRANCH  14  19
ATOM     16  C   UNL     1       8.328   9.524  18.400  0.00  0.00    +0.000 A 
ATOM     17  C   UNL     1       8.898   8.412  19.027  0.00  0.00    +0.000 A 
ATOM     18  C   UNL     1       8.489   7.117  18.678  0.00  0.00    +0.000 A 
ATOM     19  C   UNL     1       7.529   6.906  17.673  0.00  0.00    +0.000 A 
ATOM     20  C   UNL     1       7.042   8.031  16.991  0.00  0.00    +0.000 A 
ATOM     21  C   UNL     1       7.415   9.325  17.363  0.00  0.00    +0.000 A 
BRANCH  16  27
ATOM     22  C   UNL     1      10.362  15.310  22.308  0.00  0.00    +0.000 C 
ATOM     23  C   UNL     1       9.950  14.272  21.340  0.00  0.00    +0.000 A 
ATOM     24  C   UNL     1       9.592  12.960  21.564  0.00  0.00    +0.000 A 
ATOM     25  N   UNL     1       9.302  12.435  20.335  0.00  0.00    +0.000 N 
ATOM     26  N   UNL     1       8.917  11.149  20.090  0.00  0.00    +0.000 NA
ATOM     27  C   UNL     1       8.723  10.900  18.827  0.00  0.00    +0.000 A 
ATOM     28  C   UNL     1       8.844  11.914  17.732  0.00  0.00    +0.000 A 
ATOM     29  C   UNL     1       9.241  13.150  18.061  0.00  0.00    +0.000 A 
ATOM     30  C   UNL     1       9.492  13.451  19.416  0.00  0.00    +0.000 A 
ATOM     31  N   UNL     1       9.881  14.567  19.996  0.00  0.00    +0.000 NA
ENDBRANCH  16  27
ENDBRANCH  14  19
ENDBRANCH   1  14
BRANCH   4  32
ATOM     32  C   UNL     1       2.012   4.097  19.610  0.00  0.00    +0.000 C 
BRANCH  32  33
ATOM     33  C   UNL     1       2.209   3.330  20.935  0.00  0.00    +0.000 C 
ATOM     34  C   UNL     1       0.946   2.661  21.469  0.00  0.00    +0.000 C 
ATOM     35  C   UNL     1       3.374   2.339  20.916  0.00  0.00    +0.000 C 
BRANCH  33  36
ATOM     36  O   UNL     1       2.600   4.331  21.903  0.00  0.00    +0.000 OA
ATOM     37  H   UNL     1       1.812   4.856  22.130  0.00  0.00    +0.000 HD
ENDBRANCH  33  36
ENDBRANCH  32  33
ENDBRANCH   4  32
TORSDOF 7
ENDMDL
MODEL 8
REMARK VINA RESULT:      -7.8      5.853     10.041
REMARK  Name = 
REMARK  11 active torsions:
REMARK  status: ('A' for Active; 'I' for Inactive)
REMARK    1  A    between atoms: C_1  and  C_2
REMARK    2  A    between atoms: C_6  and  C_7
REMARK    3  A    between atoms: C_10  and  C_11
REMARK    4  A    between atoms: C_11  and  C_12
REMARK    5  A    between atoms: C_11  and  N_13
REMARK    6  A    between atoms: C_16  and  C_17
REMARK    7  A    between atoms: C_16  and  C_22
REMARK    8  A    between atoms: C_17  and  C_18
REMARK    9  A    between atoms: C_18  and  C_19
REMARK   10  A    between atoms: C_18  and  C_20
REMARK   11  A    between atoms: C_18  and  O_21
REMARK                            x       y       z     vdW  Elec       q    Type
REMARK                         _______ _______ _______ _____ _____    ______ ____
ROOT
ATOM      1  N   UNL     1      -0.752  12.970  20.245  0.00  0.00    +0.000 N 
ATOM      2  C   UNL     1      -0.873  13.979  19.210  0.00  0.00    +0.000 C 
ATOM      3  C   UNL     1      -0.662  15.367  19.751  0.00  0.00    +0.000 C 
ATOM      4  C   UNL     1       0.691  15.406  20.478  0.00  0.00    +0.000 C 
ATOM      5  O   UNL     1       0.619  14.413  21.531  0.00  0.00    +0.000 OA
ATOM      6  C   UNL     1       0.027  13.186  21.381  0.00  0.00    +0.000 C 
ATOM      7  O   UNL     1       0.189  12.336  22.255  0.00  0.00    +0.000 OA
ENDROOT
BRANCH   4   8
ATOM      8  C   UNL     1       1.847  15.121  19.505  0.00  0.00    +0.000 A 
ATOM      9  C   UNL     1       2.685  14.006  19.695  0.00  0.00    +0.000 A 
ATOM     10  C   UNL     1       3.788  13.777  18.866  0.00  0.00    +0.000 A 
ATOM     11  C   UNL     1       4.087  14.667  17.839  0.00  0.00    +0.000 A 
ATOM     12  C   UNL     1       3.281  15.782  17.636  0.00  0.00    +0.000 A 
ATOM     13  C   UNL     1       2.167  16.000  18.452  0.00  0.00    +0.000 A 
ENDBRANCH   4   8
BRANCH   1  14
ATOM     14  C   UNL     1      -1.296  11.612  19.998  0.00  0.00    +0.000 C 
ATOM     15  C   UNL     1      -2.412  11.617  18.944  0.00  0.00    +0.000 C 
BRANCH  14  19
ATOM     16  C   UNL     1       1.706   8.606  19.006  0.00  0.00    +0.000 A 
ATOM     17  C   UNL     1       1.388   9.622  18.101  0.00  0.00    +0.000 A 
ATOM     18  C   UNL     1       0.423  10.586  18.429  0.00  0.00    +0.000 A 
ATOM     19  C   UNL     1      -0.217  10.574  19.681  0.00  0.00    +0.000 A 
ATOM     20  C   UNL     1       0.188   9.603  20.609  0.00  0.00    +0.000 A 
ATOM     21  C   UNL     1       1.118   8.616  20.272  0.00  0.00    +0.000 A 
BRANCH  16  27
ATOM     22  C   UNL     1       6.890   4.785  15.628  0.00  0.00    +0.000 C 
ATOM     23  C   UNL     1       5.825   5.390  16.456  0.00  0.00    +0.000 A 
ATOM     24  C   UNL     1       5.128   6.564  16.262  0.00  0.00    +0.000 A 
ATOM     25  N   UNL     1       4.261   6.662  17.315  0.00  0.00    +0.000 N 
ATOM     26  N   UNL     1       3.385   7.687  17.530  0.00  0.00    +0.000 NA
ATOM     27  C   UNL     1       2.685   7.547  18.620  0.00  0.00    +0.000 A 
ATOM     28  C   UNL     1       2.766   6.366  19.537  0.00  0.00    +0.000 A 
ATOM     29  C   UNL     1       3.664   5.412  19.255  0.00  0.00    +0.000 A 
ATOM     30  C   UNL     1       4.463   5.542  18.100  0.00  0.00    +0.000 A 
ATOM     31  N   UNL     1       5.400   4.761  17.605  0.00  0.00    +0.000 NA
ENDBRANCH  16  27
ENDBRANCH  14  19
ENDBRANCH   1  14
BRANCH   4  32
ATOM     32  C   UNL     1       0.764  16.818  21.135  0.00  0.00    +0.000 C 
BRANCH  32  33
ATOM     33  C   UNL     1       0.279  17.099  22.573  0.00  0.00    +0.000 C 
ATOM     34  C   UNL     1       0.502  18.533  23.045  0.00  0.00    +0.000 C 
ATOM     35  C   UNL     1      -1.162  16.664  22.842  0.00  0.00    +0.000 C 
BRANCH  33  36
ATOM     36  O   UNL     1       1.080  16.245  23.422  0.00  0.00    +0.000 OA
ATOM     37  H   UNL     1       0.559  15.450  23.630  0.00  0.00    +0.000 HD
ENDBRANCH  33  36
ENDBRANCH  32  33
ENDBRANCH   4  32
TORSDOF 7
ENDMDL
MODEL 9
REMARK VINA RESULT:      -7.8      5.651      9.942
REMARK  Name = 
REMARK  11 active torsions:
REMARK  status: ('A' for Active; 'I' for Inactive)
REMARK    1  A    between atoms: C_1  and  C_2
REMARK    2  A    between atoms: C_6  and  C_7
REMARK    3  A    between atoms: C_10  and  C_11
REMARK    4  A    between atoms: C_11  and  C_12
REMARK    5  A    between atoms: C_11  and  N_13
REMARK    6  A    between atoms: C_16  and  C_17
REMARK    7  A    between atoms: C_16  and  C_22
REMARK    8  A    between atoms: C_17  and  C_18
REMARK    9  A    between atoms: C_18  and  C_19
REMARK   10  A    between atoms: C_18  and  C_20
REMARK   11  A    between atoms: C_18  and  O_21
REMARK                            x       y       z     vdW  Elec       q    Type
REMARK                         _______ _______ _______ _____ _____    ______ ____
ROOT
ATOM      1  N   UNL     1      -0.489  12.959  20.395  0.00  0.00    +0.000 N 
ATOM      2  C   UNL     1      -0.771  14.229  19.752  0.00  0.00    +0.000 C 
ATOM      3  C   UNL     1      -0.348  15.395  20.602  0.00  0.00    +0.000 C 
ATOM      4  C   UNL     1       1.133  15.220  20.969  0.00  0.00    +0.000 C 
ATOM      5  O   UNL     1       1.233  13.961  21.680  0.00  0.00    +0.000 OA
ATOM      6  C   UNL     1       0.540  12.832  21.328  0.00  0.00    +0.000 C 
ATOM      7  O   UNL     1       0.836  11.763  21.858  0.00  0.00    +0.000 OA
ENDROOT
BRANCH   4   8
ATOM      8  C   UNL     1       2.018  15.236  19.712  0.00  0.00    +0.000 A 
ATOM      9  C   UNL     1       2.980  14.230  19.500  0.00  0.00    +0.000 A 
ATOM     10  C   UNL     1       3.845  14.273  18.402  0.00  0.00    +0.000 A 
ATOM     11  C   UNL     1       3.780  15.331  17.501  0.00  0.00    +0.000 A 
ATOM     12  C   UNL     1       2.845  16.343  17.692  0.00  0.00    +0.000 A 
ATOM     13  C   UNL     1       1.966  16.289  18.779  0.00  0.00    +0.000 A 
ENDBRANCH   4   8
BRANCH   1  14
ATOM     14  C   UNL     1      -1.165  11.734  19.905  0.00  0.00    +0.000 C 
ATOM     15  C   UNL     1      -2.172  12.036  18.785  0.00  0.00    +0.000 C 
BRANCH  14  19
ATOM     16  C   UNL     1       1.672   8.581  18.886  0.00  0.00    +0.000 A 
ATOM     17  C   UNL     1       0.867   8.476  20.023  0.00  0.00    +0.000 A 
ATOM     18  C   UNL     1      -0.045   9.493  20.342  0.00  0.00    +0.000 A 
ATOM     19  C   UNL     1      -0.194  10.618  19.513  0.00  0.00    +0.000 A 
ATOM     20  C   UNL     1       0.554  10.657  18.327  0.00  0.00    +0.000 A 
ATOM     21  C   UNL     1       1.493   9.667  18.026  0.00  0.00    +0.000 A 
BRANCH  16  27
ATOM     22  C   UNL     1       7.030   4.681  15.892  0.00  0.00    +0.000 C 
ATOM     23  C   UNL     1       5.931   5.312  16.652  0.00  0.00    +0.000 A 
ATOM     24  C   UNL     1       5.211   6.453  16.365  0.00  0.00    +0.000 A 
ATOM     25  N   UNL     1       4.315   6.597  17.388  0.00  0.00    +0.000 N 
ATOM     26  N   UNL     1       3.410   7.611  17.514  0.00  0.00    +0.000 NA
ATOM     27  C   UNL     1       2.686   7.525  18.593  0.00  0.00    +0.000 A 
ATOM     28  C   UNL     1       2.772   6.408  19.588  0.00  0.00    +0.000 A 
ATOM     29  C   UNL     1       3.699   5.462  19.391  0.00  0.00    +0.000 A 
ATOM     30  C   UNL     1       4.524   5.537  18.250  0.00  0.00    +0.000 A 
ATOM     31  N   UNL     1       5.491   4.748  17.829  0.00  0.00    +0.000 NA
ENDBRANCH  16  27
ENDBRANCH  14  19
ENDBRANCH   1  14
BRANCH   4  32
ATOM     32  C   UNL     1       1.450  16.376  21.967  0.00  0.00    +0.000 C 
BRANCH  32  33
ATOM     33  C   UNL     1       2.820  16.530  22.662  0.00  0.00    +0.000 C 
ATOM     34  C   UNL     1       3.908  17.137  21.782  0.00  0.00    +0.000 C 
ATOM     35  C   UNL     1       2.758  17.248  24.011  0.00  0.00    +0.000 C 
BRANCH  33  36
ATOM     36  O   UNL     1       3.238  15.184  22.986  0.00  0.00    +0.000 OA
ATOM     37  H   UNL     1       2.546  14.775  23.534  0.00  0.00    +0.000 HD
ENDBRANCH  33  36
ENDBRANCH  32  33
ENDBRANCH   4  32
TORSDOF 7
ENDMDL
