MODEL 1
REMARK VINA RESULT:      -8.8      0.000      0.000
REMARK  Name = 
REMARK  13 active torsions:
REMARK  status: ('A' for Active; 'I' for Inactive)
REMARK    1  A    between atoms: C_1  and  C_2
REMARK    2  A    between atoms: C_2  and  O_3
REMARK    3  A    between atoms: O_3  and  C_4
REMARK    4  A    between atoms: C_4  and  C_6
REMARK    5  A    between atoms: C_7  and  C_8
REMARK    6  A    between atoms: C_10  and  C_11
REMARK    7  A    between atoms: C_13  and  O_14
REMARK    8  A    between atoms: C_13  and  O_15
REMARK    9  A    between atoms: O_15  and  C_16
REMARK   10  A    between atoms: C_16  and  C_17
REMARK   11  A    between atoms: C_18  and  C_19
REMARK   12  A    between atoms: C_23  and  C_24
REMARK   13  A    between atoms: C_24  and  N_25
REMARK                            x       y       z     vdW  Elec       q    Type
REMARK                         _______ _______ _______ _____ _____    ______ ____
ROOT
ATOM      1  C   UNL     1       5.503   5.669  17.631  0.00  0.00    +0.000 C 
ATOM      2  C   UNL     1       6.278   5.021  18.529  0.00  0.00    +0.000 C 
ATOM      3  C   UNL     1       7.719   5.364  18.833  0.00  0.00    +0.000 C 
ATOM      4  N   UNL     1       5.821   3.979  19.288  0.00  0.00    +0.000 NA
ATOM      5  C   UNL     1       4.619   3.502  19.123  0.00  0.00    +0.000 C 
ATOM      6  C   UNL     1       4.304   2.296  19.992  0.00  0.00    +0.000 C 
ATOM      7  C   UNL     1       3.586   4.072  18.180  0.00  0.00    +0.000 C 
ATOM      8  C   UNL     1       2.336   3.556  18.052  0.00  0.00    +0.000 C 
ATOM      9  C   UNL     1       4.034   5.348  17.471  0.00  0.00    +0.000 C 
ENDROOT
BRANCH   9  10
ATOM     10  C   UNL     1       3.181   6.526  17.966  0.00  0.00    +0.000 A 
ATOM     11  C   UNL     1       3.034   7.694  17.211  0.00  0.00    +0.000 A 
ATOM     12  C   UNL     1       2.319   8.772  17.738  0.00  0.00    +0.000 A 
ATOM     13  C   UNL     1       1.786   8.697  19.030  0.00  0.00    +0.000 A 
ATOM     14  C   UNL     1       1.930   7.544  19.807  0.00  0.00    +0.000 A 
ATOM     15  C   UNL     1       2.586   6.447  19.240  0.00  0.00    +0.000 A 
BRANCH  14  16
ATOM     16  C   UNL     1       1.417   7.498  21.227  0.00  0.00    +0.000 C 
BRANCH  16  17
ATOM     17  N   UNL     1       0.689   8.702  21.617  0.00  0.00    +0.000 N 
ATOM     18  C   UNL     1      -0.299   9.332  20.905  0.00  0.00    +0.000 A 
ATOM     19  C   UNL     1      -0.527  10.514  21.573  0.00  0.00    +0.000 A 
ATOM     20  N   UNL     1       0.260  10.594  22.693  0.00  0.00    +0.000 NA
ATOM     21  C   UNL     1       0.979   9.496  22.693  0.00  0.00    +0.000 A 
ENDBRANCH  16  17
ENDBRANCH  14  16
ENDBRANCH   9  10
BRANCH   1  22
ATOM     22  C   UNL     1       6.101   6.689  16.735  0.00  0.00    +0.000 C 
ATOM     23  O   UNL     1       6.667   7.706  17.126  0.00  0.00    +0.000 OA
BRANCH  22  24
ATOM     24  O   UNL     1       6.013   6.336  15.433  0.00  0.00    +0.000 OA
BRANCH  24  26
ATOM     25  C   UNL     1       5.982   4.155  14.377  0.00  0.00    +0.000 C 
ATOM     26  C   UNL     1       6.827   5.219  15.049  0.00  0.00    +0.000 C 
ENDBRANCH  24  26
ENDBRANCH  22  24
ENDBRANCH   1  22
BRANCH   8  27
ATOM     27  O   UNL     1       1.387   4.084  17.198  0.00  0.00    +0.000 OA
ATOM     28  H   UNL     1       1.588   5.005  16.988  0.00  0.00    +0.000 HD
ENDBRANCH   8  27
BRANCH   8  29
ATOM     29  O   UNL     1       1.950   2.462  18.788  0.00  0.00    +0.000 OA
BRANCH  29  30
ATOM     30  C   UNL     1       0.698   2.595  19.464  0.00  0.00    +0.000 C 
ATOM     31  C   UNL     1       0.957   3.398  20.725  0.00  0.00    +0.000 C 
ENDBRANCH  29  30
ENDBRANCH   8  29
TORSDOF 9
ENDMDL
MODEL 2
REMARK VINA RESULT:      -8.6      1.397      1.888
REMARK  Name = 
REMARK  13 active torsions:
REMARK  status: ('A' for Active; 'I' for Inactive)
REMARK    1  A    between atoms: C_1  and  C_2
REMARK    2  A    between atoms: C_2  and  O_3
REMARK    3  A    between atoms: O_3  and  C_4
REMARK    4  A    between atoms: C_4  and  C_6
REMARK    5  A    between atoms: C_7  and  C_8
REMARK    6  A    between atoms: C_10  and  C_11
REMARK    7  A    between atoms: C_13  and  O_14
REMARK    8  A    between atoms: C_13  and  O_15
REMARK    9  A    between atoms: O_15  and  C_16
REMARK   10  A    between atoms: C_16  and  C_17
REMARK   11  A    between atoms: C_18  and  C_19
REMARK   12  A    between atoms: C_23  and  C_24
REMARK   13  A    between atoms: C_24  and  N_25
REMARK                            x       y       z     vdW  Elec       q    Type
REMARK                         _______ _______ _______ _____ _____    ______ ____
ROOT
ATOM      1  C   UNL     1       5.313   5.608  17.663  0.00  0.00    +0.000 C 
ATOM      2  C   UNL     1       6.136   4.758  18.317  0.00  0.00    +0.000 C 
ATOM      3  C   UNL     1       7.620   4.973  18.514  0.00  0.00    +0.000 C 
ATOM      4  N   UNL     1       5.698   3.601  18.899  0.00  0.00    +0.000 NA
ATOM      5  C   UNL     1       4.457   3.216  18.783  0.00  0.00    +0.000 C 
ATOM      6  C   UNL     1       4.161   1.871  19.423  0.00  0.00    +0.000 C 
ATOM      7  C   UNL     1       3.368   4.009  18.100  0.00  0.00    +0.000 C 
ATOM      8  C   UNL     1       2.082   3.580  18.017  0.00  0.00    +0.000 C 
ATOM      9  C   UNL     1       3.818   5.385  17.614  0.00  0.00    +0.000 C 
ENDROOT
BRANCH   9  10
ATOM     10  C   UNL     1       3.098   6.469  18.430  0.00  0.00    +0.000 A 
ATOM     11  C   UNL     1       2.744   6.266  19.768  0.00  0.00    +0.000 A 
ATOM     12  C   UNL     1       2.016   7.246  20.446  0.00  0.00    +0.000 A 
ATOM     13  C   UNL     1       1.610   8.406  19.780  0.00  0.00    +0.000 A 
ATOM     14  C   UNL     1       1.942   8.626  18.440  0.00  0.00    +0.000 A 
ATOM     15  C   UNL     1       2.733   7.670  17.794  0.00  0.00    +0.000 A 
BRANCH  14  16
ATOM     16  C   UNL     1       1.438   9.847  17.707  0.00  0.00    +0.000 C 
BRANCH  16  17
ATOM     17  N   UNL     1       0.386  10.558  18.426  0.00  0.00    +0.000 N 
ATOM     18  C   UNL     1      -0.964  10.335  18.342  0.00  0.00    +0.000 A 
ATOM     19  C   UNL     1      -1.545  11.372  19.037  0.00  0.00    +0.000 A 
ATOM     20  N   UNL     1      -0.586  12.187  19.578  0.00  0.00    +0.000 NA
ATOM     21  C   UNL     1       0.562  11.676  19.196  0.00  0.00    +0.000 A 
ENDBRANCH  16  17
ENDBRANCH  14  16
ENDBRANCH   9  10
BRANCH   1  22
ATOM     22  C   UNL     1       5.876   6.766  16.926  0.00  0.00    +0.000 C 
ATOM     23  O   UNL     1       6.424   7.725  17.462  0.00  0.00    +0.000 OA
BRANCH  22  24
ATOM     24  O   UNL     1       5.778   6.612  15.587  0.00  0.00    +0.000 OA
BRANCH  24  26
ATOM     25  C   UNL     1       5.612   4.495  14.418  0.00  0.00    +0.000 C 
ATOM     26  C   UNL     1       6.536   5.522  15.043  0.00  0.00    +0.000 C 
ENDBRANCH  24  26
ENDBRANCH  22  24
ENDBRANCH   1  22
BRANCH   8  27
ATOM     27  O   UNL     1       1.083   4.311  17.401  0.00  0.00    +0.000 OA
ATOM     28  H   UNL     1       0.501   3.734  16.890  0.00  0.00    +0.000 HD
ENDBRANCH   8  27
BRANCH   8  29
ATOM     29  O   UNL     1       1.708   2.374  18.558  0.00  0.00    +0.000 OA
BRANCH  29  30
ATOM     30  C   UNL     1       0.563   2.421  19.412  0.00  0.00    +0.000 C 
ATOM     31  C   UNL     1       0.996   3.095  20.700  0.00  0.00    +0.000 C 
ENDBRANCH  29  30
ENDBRANCH   8  29
TORSDOF 9
ENDMDL
MODEL 3
REMARK VINA RESULT:      -8.5      1.686      2.493
REMARK  Name = 
REMARK  13 active torsions:
REMARK  status: ('A' for Active; 'I' for Inactive)
REMARK    1  A    between atoms: C_1  and  C_2
REMARK    2  A    between atoms: C_2  and  O_3
REMARK    3  A    between atoms: O_3  and  C_4
REMARK    4  A    between atoms: C_4  and  C_6
REMARK    5  A    between atoms: C_7  and  C_8
REMARK    6  A    between atoms: C_10  and  C_11
REMARK    7  A    between atoms: C_13  and  O_14
REMARK    8  A    between atoms: C_13  and  O_15
REMARK    9  A    between atoms: O_15  and  C_16
REMARK   10  A    between atoms: C_16  and  C_17
REMARK   11  A    between atoms: C_18  and  C_19
REMARK   12  A    between atoms: C_23  and  C_24
REMARK   13  A    between atoms: C_24  and  N_25
REMARK                            x       y       z     vdW  Elec       q    Type
REMARK                         _______ _______ _______ _____ _____    ______ ____
ROOT
ATOM      1  C   UNL     1       5.258   5.644  17.626  0.00  0.00    +0.000 C 
ATOM      2  C   UNL     1       6.077   4.773  18.255  0.00  0.00    +0.000 C 
ATOM      3  C   UNL     1       7.563   4.972  18.452  0.00  0.00    +0.000 C 
ATOM      4  N   UNL     1       5.633   3.604  18.809  0.00  0.00    +0.000 NA
ATOM      5  C   UNL     1       4.389   3.231  18.687  0.00  0.00    +0.000 C 
ATOM      6  C   UNL     1       4.085   1.872  19.294  0.00  0.00    +0.000 C 
ATOM      7  C   UNL     1       3.304   4.049  18.028  0.00  0.00    +0.000 C 
ATOM      8  C   UNL     1       2.014   3.632  17.939  0.00  0.00    +0.000 C 
ATOM      9  C   UNL     1       3.761   5.434  17.576  0.00  0.00    +0.000 C 
ENDROOT
BRANCH   9  10
ATOM     10  C   UNL     1       3.052   6.502  18.422  0.00  0.00    +0.000 A 
ATOM     11  C   UNL     1       2.696   6.265  19.754  0.00  0.00    +0.000 A 
ATOM     12  C   UNL     1       1.978   7.233  20.459  0.00  0.00    +0.000 A 
ATOM     13  C   UNL     1       1.584   8.416  19.826  0.00  0.00    +0.000 A 
ATOM     14  C   UNL     1       1.919   8.670  18.492  0.00  0.00    +0.000 A 
ATOM     15  C   UNL     1       2.700   7.724  17.820  0.00  0.00    +0.000 A 
BRANCH  14  16
ATOM     16  C   UNL     1       1.427   9.915  17.793  0.00  0.00    +0.000 C 
BRANCH  16  17
ATOM     17  N   UNL     1       0.128  10.373  18.276  0.00  0.00    +0.000 N 
ATOM     18  C   UNL     1      -1.104   9.980  17.820  0.00  0.00    +0.000 A 
ATOM     19  C   UNL     1      -2.002  10.825  18.433  0.00  0.00    +0.000 A 
ATOM     20  N   UNL     1      -1.353  11.683  19.282  0.00  0.00    +0.000 NA
ATOM     21  C   UNL     1      -0.079  11.391  19.167  0.00  0.00    +0.000 A 
ENDBRANCH  16  17
ENDBRANCH  14  16
ENDBRANCH   9  10
BRANCH   1  22
ATOM     22  C   UNL     1       5.827   6.817  16.916  0.00  0.00    +0.000 C 
ATOM     23  O   UNL     1       5.688   7.030  15.714  0.00  0.00    +0.000 OA
BRANCH  22  24
ATOM     24  O   UNL     1       6.459   7.664  17.758  0.00  0.00    +0.000 OA
BRANCH  24  26
ATOM     25  C   UNL     1       8.260   9.241  18.136  0.00  0.00    +0.000 C 
ATOM     26  C   UNL     1       7.799   8.010  17.380  0.00  0.00    +0.000 C 
ENDBRANCH  24  26
ENDBRANCH  22  24
ENDBRANCH   1  22
BRANCH   8  27
ATOM     27  O   UNL     1       1.018   4.385  17.347  0.00  0.00    +0.000 OA
ATOM     28  H   UNL     1       0.164   4.216  17.765  0.00  0.00    +0.000 HD
ENDBRANCH   8  27
BRANCH   8  29
ATOM     29  O   UNL     1       1.633   2.415  18.452  0.00  0.00    +0.000 OA
BRANCH  29  30
ATOM     30  C   UNL     1       0.517   2.454  19.343  0.00  0.00    +0.000 C 
ATOM     31  C   UNL     1       0.997   3.105  20.627  0.00  0.00    +0.000 C 
ENDBRANCH  29  30
ENDBRANCH   8  29
TORSDOF 9
ENDMDL
MODEL 4
REMARK VINA RESULT:      -8.2      1.705      2.542
REMARK  Name = 
REMARK  13 active torsions:
REMARK  status: ('A' for Active; 'I' for Inactive)
REMARK    1  A    between atoms: C_1  and  C_2
REMARK    2  A    between atoms: C_2  and  O_3
REMARK    3  A    between atoms: O_3  and  C_4
REMARK    4  A    between atoms: C_4  and  C_6
REMARK    5  A    between atoms: C_7  and  C_8
REMARK    6  A    between atoms: C_10  and  C_11
REMARK    7  A    between atoms: C_13  and  O_14
REMARK    8  A    between atoms: C_13  and  O_15
REMARK    9  A    between atoms: O_15  and  C_16
REMARK   10  A    between atoms: C_16  and  C_17
REMARK   11  A    between atoms: C_18  and  C_19
REMARK   12  A    between atoms: C_23  and  C_24
REMARK   13  A    between atoms: C_24  and  N_25
REMARK                            x       y       z     vdW  Elec       q    Type
REMARK                         _______ _______ _______ _____ _____    ______ ____
ROOT
ATOM      1  C   UNL     1       5.264   5.635  17.618  0.00  0.00    +0.000 C 
ATOM      2  C   UNL     1       6.073   4.756  18.249  0.00  0.00    +0.000 C 
ATOM      3  C   UNL     1       7.558   4.948  18.464  0.00  0.00    +0.000 C 
ATOM      4  N   UNL     1       5.618   3.585  18.789  0.00  0.00    +0.000 NA
ATOM      5  C   UNL     1       4.375   3.217  18.651  0.00  0.00    +0.000 C 
ATOM      6  C   UNL     1       4.059   1.854  19.243  0.00  0.00    +0.000 C 
ATOM      7  C   UNL     1       3.300   4.044  17.987  0.00  0.00    +0.000 C 
ATOM      8  C   UNL     1       2.010   3.632  17.880  0.00  0.00    +0.000 C 
ATOM      9  C   UNL     1       3.767   5.431  17.550  0.00  0.00    +0.000 C 
ENDROOT
BRANCH   9  10
ATOM     10  C   UNL     1       3.052   6.494  18.398  0.00  0.00    +0.000 A 
ATOM     11  C   UNL     1       2.874   6.336  19.776  0.00  0.00    +0.000 A 
ATOM     12  C   UNL     1       2.145   7.288  20.491  0.00  0.00    +0.000 A 
ATOM     13  C   UNL     1       1.563   8.373  19.827  0.00  0.00    +0.000 A 
ATOM     14  C   UNL     1       1.718   8.545  18.448  0.00  0.00    +0.000 A 
ATOM     15  C   UNL     1       2.511   7.623  17.756  0.00  0.00    +0.000 A 
BRANCH  14  16
ATOM     16  C   UNL     1       1.026   9.677  17.726  0.00  0.00    +0.000 C 
BRANCH  16  17
ATOM     17  N   UNL     1       1.126  10.954  18.426  0.00  0.00    +0.000 N 
ATOM     18  C   UNL     1       2.213  11.789  18.461  0.00  0.00    +0.000 A 
ATOM     19  C   UNL     1       1.900  12.748  19.398  0.00  0.00    +0.000 A 
ATOM     20  N   UNL     1       0.639  12.545  19.894  0.00  0.00    +0.000 NA
ATOM     21  C   UNL     1       0.199  11.463  19.294  0.00  0.00    +0.000 A 
ENDBRANCH  16  17
ENDBRANCH  14  16
ENDBRANCH   9  10
BRANCH   1  22
ATOM     22  C   UNL     1       5.844   6.811  16.924  0.00  0.00    +0.000 C 
ATOM     23  O   UNL     1       5.717   7.037  15.724  0.00  0.00    +0.000 OA
BRANCH  22  24
ATOM     24  O   UNL     1       6.474   7.647  17.780  0.00  0.00    +0.000 OA
BRANCH  24  26
ATOM     25  C   UNL     1       8.207   9.313  18.085  0.00  0.00    +0.000 C 
ATOM     26  C   UNL     1       7.803   8.026  17.393  0.00  0.00    +0.000 C 
ENDBRANCH  24  26
ENDBRANCH  22  24
ENDBRANCH   1  22
BRANCH   8  27
ATOM     27  O   UNL     1       1.023   4.393  17.282  0.00  0.00    +0.000 OA
ATOM     28  H   UNL     1       0.148   4.023  17.459  0.00  0.00    +0.000 HD
ENDBRANCH   8  27
BRANCH   8  29
ATOM     29  O   UNL     1       1.619   2.413  18.378  0.00  0.00    +0.000 OA
BRANCH  29  30
ATOM     30  C   UNL     1       0.507   2.451  19.275  0.00  0.00    +0.000 C 
ATOM     31  C   UNL     1       0.977   3.154  20.535  0.00  0.00    +0.000 C 
ENDBRANCH  29  30
ENDBRANCH   8  29
TORSDOF 9
ENDMDL
MODEL 5
REMARK VINA RESULT:      -8.2      0.818      1.554
REMARK  Name = 
REMARK  13 active torsions:
REMARK  status: ('A' for Active; 'I' for Inactive)
REMARK    1  A    between atoms: C_1  and  C_2
REMARK    2  A    between atoms: C_2  and  O_3
REMARK    3  A    between atoms: O_3  and  C_4
REMARK    4  A    between atoms: C_4  and  C_6
REMARK    5  A    between atoms: C_7  and  C_8
REMARK    6  A    between atoms: C_10  and  C_11
REMARK    7  A    between atoms: C_13  and  O_14
REMARK    8  A    between atoms: C_13  and  O_15
REMARK    9  A    between atoms: O_15  and  C_16
REMARK   10  A    between atoms: C_16  and  C_17
REMARK   11  A    between atoms: C_18  and  C_19
REMARK   12  A    between atoms: C_23  and  C_24
REMARK   13  A    between atoms: C_24  and  N_25
REMARK                            x       y       z     vdW  Elec       q    Type
REMARK                         _______ _______ _______ _____ _____    ______ ____
ROOT
ATOM      1  C   UNL     1       5.485   5.599  17.723  0.00  0.00    +0.000 C 
ATOM      2  C   UNL     1       6.217   4.906  18.623  0.00  0.00    +0.000 C 
ATOM      3  C   UNL     1       7.653   5.213  18.988  0.00  0.00    +0.000 C 
ATOM      4  N   UNL     1       5.717   3.847  19.329  0.00  0.00    +0.000 NA
ATOM      5  C   UNL     1       4.513   3.397  19.107  0.00  0.00    +0.000 C 
ATOM      6  C   UNL     1       4.148   2.169  19.921  0.00  0.00    +0.000 C 
ATOM      7  C   UNL     1       3.524   4.018  18.149  0.00  0.00    +0.000 C 
ATOM      8  C   UNL     1       2.271   3.529  17.960  0.00  0.00    +0.000 C 
ATOM      9  C   UNL     1       4.017   5.310  17.501  0.00  0.00    +0.000 C 
ENDROOT
BRANCH   9  10
ATOM     10  C   UNL     1       3.168   6.485  18.007  0.00  0.00    +0.000 A 
ATOM     11  C   UNL     1       3.018   7.658  17.260  0.00  0.00    +0.000 A 
ATOM     12  C   UNL     1       2.306   8.732  17.797  0.00  0.00    +0.000 A 
ATOM     13  C   UNL     1       1.779   8.650  19.090  0.00  0.00    +0.000 A 
ATOM     14  C   UNL     1       1.926   7.492  19.860  0.00  0.00    +0.000 A 
ATOM     15  C   UNL     1       2.579   6.398  19.283  0.00  0.00    +0.000 A 
BRANCH  14  16
ATOM     16  C   UNL     1       1.419   7.438  21.282  0.00  0.00    +0.000 C 
BRANCH  16  17
ATOM     17  N   UNL     1       0.720   8.652  21.692  0.00  0.00    +0.000 N 
ATOM     18  C   UNL     1      -0.400   9.192  21.114  0.00  0.00    +0.000 A 
ATOM     19  C   UNL     1      -0.557  10.422  21.712  0.00  0.00    +0.000 A 
ATOM     20  N   UNL     1       0.406  10.620  22.668  0.00  0.00    +0.000 NA
ATOM     21  C   UNL     1       1.158   9.544  22.633  0.00  0.00    +0.000 A 
ENDBRANCH  16  17
ENDBRANCH  14  16
ENDBRANCH   9  10
BRANCH   1  22
ATOM     22  C   UNL     1       6.131   6.638  16.883  0.00  0.00    +0.000 C 
ATOM     23  O   UNL     1       6.274   6.552  15.666  0.00  0.00    +0.000 OA
BRANCH  22  24
ATOM     24  O   UNL     1       6.485   7.725  17.603  0.00  0.00    +0.000 OA
BRANCH  24  26
ATOM     25  C   UNL     1       8.070   9.525  17.952  0.00  0.00    +0.000 C 
ATOM     26  C   UNL     1       7.871   8.086  17.519  0.00  0.00    +0.000 C 
ENDBRANCH  24  26
ENDBRANCH  22  24
ENDBRANCH   1  22
BRANCH   8  27
ATOM     27  O   UNL     1       1.361   4.103  17.093  0.00  0.00    +0.000 OA
ATOM     28  H   UNL     1       1.512   3.802  16.187  0.00  0.00    +0.000 HD
ENDBRANCH   8  27
BRANCH   8  29
ATOM     29  O   UNL     1       1.841   2.417  18.644  0.00  0.00    +0.000 OA
BRANCH  29  30
ATOM     30  C   UNL     1       0.603   2.573  19.339  0.00  0.00    +0.000 C 
ATOM     31  C   UNL     1       0.898   3.360  20.603  0.00  0.00    +0.000 C 
ENDBRANCH  29  30
ENDBRANCH   8  29
TORSDOF 9
ENDMDL
MODEL 6
REMARK VINA RESULT:      -7.5      4.327      8.964
REMARK  Name = 
REMARK  13 active torsions:
REMARK  status: ('A' for Active; 'I' for Inactive)
REMARK    1  A    between atoms: C_1  and  C_2
REMARK    2  A    between atoms: C_2  and  O_3
REMARK    3  A    between atoms: O_3  and  C_4
REMARK    4  A    between atoms: C_4  and  C_6
REMARK    5  A    between atoms: C_7  and  C_8
REMARK    6  A    between atoms: C_10  and  C_11
REMARK    7  A    between atoms: C_13  and  O_14
REMARK    8  A    between atoms: C_13  and  O_15
REMARK    9  A    between atoms: O_15  and  C_16
REMARK   10  A    between atoms: C_16  and  C_17
REMARK   11  A    between atoms: C_18  and  C_19
REMARK   12  A    between atoms: C_23  and  C_24
REMARK   13  A    between atoms: C_24  and  N_25
REMARK                            x       y       z     vdW  Elec       q    Type
REMARK                         _______ _______ _______ _____ _____    ______ ____
ROOT
ATOM      1  C   UNL     1      -1.420  11.477  18.311  0.00  0.00    +0.000 C 
ATOM      2  C   UNL     1      -2.050  12.362  19.115  0.00  0.00    +0.000 C 
ATOM      3  C   UNL     1      -3.536  12.368  19.397  0.00  0.00    +0.000 C 
ATOM      4  N   UNL     1      -1.390  13.352  19.789  0.00  0.00    +0.000 NA
ATOM      5  C   UNL     1      -0.110  13.542  19.624  0.00  0.00    +0.000 C 
ATOM      6  C   UNL     1       0.445  14.732  20.387  0.00  0.00    +0.000 C 
ATOM      7  C   UNL     1       0.789  12.673  18.777  0.00  0.00    +0.000 C 
ATOM      8  C   UNL     1       2.122  12.894  18.647  0.00  0.00    +0.000 C 
ATOM      9  C   UNL     1       0.086  11.458  18.175  0.00  0.00    +0.000 C 
ENDROOT
BRANCH   9  10
ATOM     10  C   UNL     1       0.655  10.180  18.809  0.00  0.00    +0.000 A 
ATOM     11  C   UNL     1       0.431   9.865  20.153  0.00  0.00    +0.000 A 
ATOM     12  C   UNL     1       1.037   8.736  20.708  0.00  0.00    +0.000 A 
ATOM     13  C   UNL     1       1.895   7.947  19.935  0.00  0.00    +0.000 A 
ATOM     14  C   UNL     1       2.143   8.249  18.592  0.00  0.00    +0.000 A 
ATOM     15  C   UNL     1       1.473   9.341  18.029  0.00  0.00    +0.000 A 
BRANCH  14  16
ATOM     16  C   UNL     1       3.128   7.436  17.785  0.00  0.00    +0.000 C 
BRANCH  16  17
ATOM     17  N   UNL     1       3.245   6.055  18.240  0.00  0.00    +0.000 N 
ATOM     18  C   UNL     1       4.291   5.504  18.936  0.00  0.00    +0.000 A 
ATOM     19  C   UNL     1       4.038   4.151  18.954  0.00  0.00    +0.000 A 
ATOM     20  N   UNL     1       2.849   3.874  18.333  0.00  0.00    +0.000 NA
ATOM     21  C   UNL     1       2.396   5.032  17.914  0.00  0.00    +0.000 A 
ENDBRANCH  16  17
ENDBRANCH  14  16
ENDBRANCH   9  10
BRANCH   1  22
ATOM     22  C   UNL     1      -2.211  10.525  17.492  0.00  0.00    +0.000 C 
ATOM     23  O   UNL     1      -2.696   9.481  17.922  0.00  0.00    +0.000 OA
BRANCH  22  24
ATOM     24  O   UNL     1      -2.398  10.972  16.231  0.00  0.00    +0.000 OA
BRANCH  24  26
ATOM     25  C   UNL     1      -3.342  10.054  14.196  0.00  0.00    +0.000 C 
ATOM     26  C   UNL     1      -3.615  10.540  15.605  0.00  0.00    +0.000 C 
ENDBRANCH  24  26
ENDBRANCH  22  24
ENDBRANCH   1  22
BRANCH   8  27
ATOM     27  O   UNL     1       2.948  12.092  17.881  0.00  0.00    +0.000 OA
ATOM     28  H   UNL     1       2.443  11.632  17.198  0.00  0.00    +0.000 HD
ENDBRANCH   8  27
BRANCH   8  29
ATOM     29  O   UNL     1       2.725  13.947  19.291  0.00  0.00    +0.000 OA
BRANCH  29  30
ATOM     30  C   UNL     1       3.833  14.528  18.600  0.00  0.00    +0.000 C 
ATOM     31  C   UNL     1       3.269  15.576  17.659  0.00  0.00    +0.000 C 
ENDBRANCH  29  30
ENDBRANCH   8  29
TORSDOF 9
ENDMDL
MODEL 7
REMARK VINA RESULT:      -7.3      2.231      7.062
REMARK  Name = 
REMARK  13 active torsions:
REMARK  status: ('A' for Active; 'I' for Inactive)
REMARK    1  A    between atoms: C_1  and  C_2
REMARK    2  A    between atoms: C_2  and  O_3
REMARK    3  A    between atoms: O_3  and  C_4
REMARK    4  A    between atoms: C_4  and  C_6
REMARK    5  A    between atoms: C_7  and  C_8
REMARK    6  A    between atoms: C_10  and  C_11
REMARK    7  A    between atoms: C_13  and  O_14
REMARK    8  A    between atoms: C_13  and  O_15
REMARK    9  A    between atoms: O_15  and  C_16
REMARK   10  A    between atoms: C_16  and  C_17
REMARK   11  A    between atoms: C_18  and  C_19
REMARK   12  A    between atoms: C_23  and  C_24
REMARK   13  A    between atoms: C_24  and  N_25
REMARK                            x       y       z     vdW  Elec       q    Type
REMARK                         _______ _______ _______ _____ _____    ______ ____
ROOT
ATOM      1  C   UNL     1       2.178   4.250  18.950  0.00  0.00    +0.000 C 
ATOM      2  C   UNL     1       1.628   4.318  20.183  0.00  0.00    +0.000 C 
ATOM      3  C   UNL     1       1.212   3.122  21.010  0.00  0.00    +0.000 C 
ATOM      4  N   UNL     1       1.405   5.501  20.832  0.00  0.00    +0.000 NA
ATOM      5  C   UNL     1       1.646   6.644  20.251  0.00  0.00    +0.000 C 
ATOM      6  C   UNL     1       1.268   7.856  21.085  0.00  0.00    +0.000 C 
ATOM      7  C   UNL     1       2.262   6.803  18.882  0.00  0.00    +0.000 C 
ATOM      8  C   UNL     1       2.513   8.014  18.320  0.00  0.00    +0.000 C 
ATOM      9  C   UNL     1       2.682   5.485  18.236  0.00  0.00    +0.000 C 
ENDROOT
BRANCH   9  10
ATOM     10  C   UNL     1       4.213   5.441  18.127  0.00  0.00    +0.000 A 
ATOM     11  C   UNL     1       5.025   5.291  19.256  0.00  0.00    +0.000 A 
ATOM     12  C   UNL     1       6.414   5.342  19.120  0.00  0.00    +0.000 A 
ATOM     13  C   UNL     1       6.989   5.579  17.868  0.00  0.00    +0.000 A 
ATOM     14  C   UNL     1       6.198   5.743  16.727  0.00  0.00    +0.000 A 
ATOM     15  C   UNL     1       4.811   5.619  16.865  0.00  0.00    +0.000 A 
BRANCH  14  16
ATOM     16  C   UNL     1       6.822   6.073  15.391  0.00  0.00    +0.000 C 
BRANCH  16  17
ATOM     17  N   UNL     1       6.663   5.012  14.402  0.00  0.00    +0.000 N 
ATOM     18  C   UNL     1       7.435   4.802  13.289  0.00  0.00    +0.000 A 
ATOM     19  C   UNL     1       6.779   3.825  12.574  0.00  0.00    +0.000 A 
ATOM     20  N   UNL     1       5.661   3.405  13.246  0.00  0.00    +0.000 NA
ATOM     21  C   UNL     1       5.615   4.134  14.336  0.00  0.00    +0.000 A 
ENDBRANCH  16  17
ENDBRANCH  14  16
ENDBRANCH   9  10
BRANCH   1  22
ATOM     22  C   UNL     1       2.253   2.949  18.241  0.00  0.00    +0.000 C 
ATOM     23  O   UNL     1       2.003   2.797  17.048  0.00  0.00    +0.000 OA
BRANCH  22  24
ATOM     24  O   UNL     1       2.696   1.957  19.045  0.00  0.00    +0.000 OA
BRANCH  24  26
ATOM     25  C   UNL     1       4.697   1.885  20.412  0.00  0.00    +0.000 C 
ATOM     26  C   UNL     1       4.115   1.741  19.019  0.00  0.00    +0.000 C 
ENDBRANCH  24  26
ENDBRANCH  22  24
ENDBRANCH   1  22
BRANCH   8  27
ATOM     27  O   UNL     1       3.088   8.160  17.071  0.00  0.00    +0.000 OA
ATOM     28  H   UNL     1       2.663   8.874  16.579  0.00  0.00    +0.000 HD
ENDBRANCH   8  27
BRANCH   8  29
ATOM     29  O   UNL     1       2.205   9.175  18.987  0.00  0.00    +0.000 OA
BRANCH  29  30
ATOM     30  C   UNL     1       1.410  10.106  18.251  0.00  0.00    +0.000 C 
ATOM     31  C   UNL     1       1.059  11.238  19.198  0.00  0.00    +0.000 C 
ENDBRANCH  29  30
ENDBRANCH   8  29
TORSDOF 9
ENDMDL
MODEL 8
REMARK VINA RESULT:      -7.3      2.304      7.162
REMARK  Name = 
REMARK  13 active torsions:
REMARK  status: ('A' for Active; 'I' for Inactive)
REMARK    1  A    between atoms: C_1  and  C_2
REMARK    2  A    between atoms: C_2  and  O_3
REMARK    3  A    between atoms: O_3  and  C_4
REMARK    4  A    between atoms: C_4  and  C_6
REMARK    5  A    between atoms: C_7  and  C_8
REMARK    6  A    between atoms: C_10  and  C_11
REMARK    7  A    between atoms: C_13  and  O_14
REMARK    8  A    between atoms: C_13  and  O_15
REMARK    9  A    between atoms: O_15  and  C_16
REMARK   10  A    between atoms: C_16  and  C_17
REMARK   11  A    between atoms: C_18  and  C_19
REMARK   12  A    between atoms: C_23  and  C_24
REMARK   13  A    between atoms: C_24  and  N_25
REMARK                            x       y       z     vdW  Elec       q    Type
REMARK                         _______ _______ _______ _____ _____    ______ ____
ROOT
ATOM      1  C   UNL     1       1.998   4.154  19.103  0.00  0.00    +0.000 C 
ATOM      2  C   UNL     1       1.618   4.375  20.381  0.00  0.00    +0.000 C 
ATOM      3  C   UNL     1       1.205   3.297  21.358  0.00  0.00    +0.000 C 
ATOM      4  N   UNL     1       1.586   5.622  20.940  0.00  0.00    +0.000 NA
ATOM      5  C   UNL     1       1.852   6.685  20.233  0.00  0.00    +0.000 C 
ATOM      6  C   UNL     1       1.693   7.992  20.991  0.00  0.00    +0.000 C 
ATOM      7  C   UNL     1       2.301   6.672  18.791  0.00  0.00    +0.000 C 
ATOM      8  C   UNL     1       2.586   7.803  18.095  0.00  0.00    +0.000 C 
ATOM      9  C   UNL     1       2.515   5.271  18.223  0.00  0.00    +0.000 C 
ENDROOT
BRANCH   9  10
ATOM     10  C   UNL     1       4.010   5.066  17.938  0.00  0.00    +0.000 A 
ATOM     11  C   UNL     1       4.996   5.721  18.682  0.00  0.00    +0.000 A 
ATOM     12  C   UNL     1       6.340   5.570  18.333  0.00  0.00    +0.000 A 
ATOM     13  C   UNL     1       6.695   4.798  17.221  0.00  0.00    +0.000 A 
ATOM     14  C   UNL     1       5.726   4.143  16.455  0.00  0.00    +0.000 A 
ATOM     15  C   UNL     1       4.390   4.245  16.859  0.00  0.00    +0.000 A 
BRANCH  14  16
ATOM     16  C   UNL     1       6.110   3.374  15.213  0.00  0.00    +0.000 C 
BRANCH  16  17
ATOM     17  N   UNL     1       6.704   4.212  14.176  0.00  0.00    +0.000 N 
ATOM     18  C   UNL     1       6.612   4.031  12.820  0.00  0.00    +0.000 A 
ATOM     19  C   UNL     1       7.491   4.941  12.276  0.00  0.00    +0.000 A 
ATOM     20  N   UNL     1       8.073   5.697  13.259  0.00  0.00    +0.000 NA
ATOM     21  C   UNL     1       7.585   5.238  14.387  0.00  0.00    +0.000 A 
ENDBRANCH  16  17
ENDBRANCH  14  16
ENDBRANCH   9  10
BRANCH   1  22
ATOM     22  C   UNL     1       1.865   2.799  18.512  0.00  0.00    +0.000 C 
ATOM     23  O   UNL     1       1.374   2.572  17.410  0.00  0.00    +0.000 OA
BRANCH  22  24
ATOM     24  O   UNL     1       2.411   1.846  19.299  0.00  0.00    +0.000 OA
BRANCH  24  26
ATOM     25  C   UNL     1       4.684   2.097  20.103  0.00  0.00    +0.000 C 
ATOM     26  C   UNL     1       3.784   1.538  19.018  0.00  0.00    +0.000 C 
ENDBRANCH  24  26
ENDBRANCH  22  24
ENDBRANCH   1  22
BRANCH   8  27
ATOM     27  O   UNL     1       3.008   7.791  16.778  0.00  0.00    +0.000 OA
ATOM     28  H   UNL     1       3.546   8.569  16.582  0.00  0.00    +0.000 HD
ENDBRANCH   8  27
BRANCH   8  29
ATOM     29  O   UNL     1       2.470   9.038  18.685  0.00  0.00    +0.000 OA
BRANCH  29  30
ATOM     30  C   UNL     1       1.798  10.025  17.901  0.00  0.00    +0.000 C 
ATOM     31  C   UNL     1       0.309   9.801  18.087  0.00  0.00    +0.000 C 
ENDBRANCH  29  30
ENDBRANCH   8  29
TORSDOF 9
ENDMDL
MODEL 9
REMARK VINA RESULT:      -6.7      7.117      9.734
REMARK  Name = 
REMARK  13 active torsions:
REMARK  status: ('A' for Active; 'I' for Inactive)
REMARK    1  A    between atoms: C_1  and  C_2
REMARK    2  A    between atoms: C_2  and  O_3
REMARK    3  A    between atoms: O_3  and  C_4
REMARK    4  A    between atoms: C_4  and  C_6
REMARK    5  A    between atoms: C_7  and  C_8
REMARK    6  A    between atoms: C_10  and  C_11
REMARK    7  A    between atoms: C_13  and  O_14
REMARK    8  A    between atoms: C_13  and  O_15
REMARK    9  A    between atoms: O_15  and  C_16
REMARK   10  A    between atoms: C_16  and  C_17
REMARK   11  A    between atoms: C_18  and  C_19
REMARK   12  A    between atoms: C_23  and  C_24
REMARK   13  A    between atoms: C_24  and  N_25
REMARK                            x       y       z     vdW  Elec       q    Type
REMARK                         _______ _______ _______ _____ _____    ______ ____
ROOT
ATOM      1  C   UNL     1      -1.961  12.105  21.368  0.00  0.00    +0.000 C 
ATOM      2  C   UNL     1      -3.205  12.617  21.504  0.00  0.00    +0.000 C 
ATOM      3  C   UNL     1      -3.745  13.250  22.767  0.00  0.00    +0.000 C 
ATOM      4  N   UNL     1      -4.115  12.635  20.484  0.00  0.00    +0.000 NA
ATOM      5  C   UNL     1      -3.850  12.079  19.334  0.00  0.00    +0.000 C 
ATOM      6  C   UNL     1      -5.001  12.121  18.343  0.00  0.00    +0.000 C 
ATOM      7  C   UNL     1      -2.527  11.453  18.963  0.00  0.00    +0.000 C 
ATOM      8  C   UNL     1      -2.285  10.901  17.746  0.00  0.00    +0.000 C 
ATOM      9  C   UNL     1      -1.451  11.600  20.037  0.00  0.00    +0.000 C 
ENDROOT
BRANCH   9  10
ATOM     10  C   UNL     1      -0.340  12.524  19.515  0.00  0.00    +0.000 A 
ATOM     11  C   UNL     1       0.984  12.088  19.401  0.00  0.00    +0.000 A 
ATOM     12  C   UNL     1       1.975  12.988  19.002  0.00  0.00    +0.000 A 
ATOM     13  C   UNL     1       1.651  14.326  18.754  0.00  0.00    +0.000 A 
ATOM     14  C   UNL     1       0.336  14.787  18.872  0.00  0.00    +0.000 A 
ATOM     15  C   UNL     1      -0.658  13.859  19.203  0.00  0.00    +0.000 A 
BRANCH  14  16
ATOM     16  C   UNL     1       0.007  16.248  18.675  0.00  0.00    +0.000 C 
BRANCH  16  17
ATOM     17  N   UNL     1      -0.496  16.893  19.884  0.00  0.00    +0.000 N 
ATOM     18  C   UNL     1       0.141  16.982  21.094  0.00  0.00    +0.000 A 
ATOM     19  C   UNL     1      -0.800  17.491  21.961  0.00  0.00    +0.000 A 
ATOM     20  N   UNL     1      -1.971  17.757  21.299  0.00  0.00    +0.000 NA
ATOM     21  C   UNL     1      -1.760  17.388  20.057  0.00  0.00    +0.000 A 
ENDBRANCH  16  17
ENDBRANCH  14  16
ENDBRANCH   9  10
BRANCH   1  22
ATOM     22  C   UNL     1      -1.077  11.979  22.553  0.00  0.00    +0.000 C 
ATOM     23  O   UNL     1      -0.285  12.844  22.918  0.00  0.00    +0.000 OA
BRANCH  22  24
ATOM     24  O   UNL     1      -1.292  10.829  23.228  0.00  0.00    +0.000 OA
BRANCH  24  26
ATOM     25  C   UNL     1      -0.494   8.799  22.172  0.00  0.00    +0.000 C 
ATOM     26  C   UNL     1      -0.210   9.887  23.187  0.00  0.00    +0.000 C 
ENDBRANCH  24  26
ENDBRANCH  22  24
ENDBRANCH   1  22
BRANCH   8  27
ATOM     27  O   UNL     1      -1.070  10.338  17.402  0.00  0.00    +0.000 OA
ATOM     28  H   UNL     1      -0.505  10.238  18.179  0.00  0.00    +0.000 HD
ENDBRANCH   8  27
BRANCH   8  29
ATOM     29  O   UNL     1      -3.260  10.882  16.778  0.00  0.00    +0.000 OA
BRANCH  29  30
ATOM     30  C   UNL     1      -2.784  10.980  15.435  0.00  0.00    +0.000 C 
ATOM     31  C   UNL     1      -3.574   9.984  14.608  0.00  0.00    +0.000 C 
ENDBRANCH  29  30
ENDBRANCH   8  29
TORSDOF 9
ENDMDL
