MODEL 1
REMARK VINA RESULT:      -8.1      0.000      0.000
REMARK  Name = 
REMARK  7 active torsions:
REMARK  status: ('A' for Active; 'I' for Inactive)
REMARK    1  A    between atoms: C_1  and  O_2
REMARK    2  A    between atoms: O_2  and  C_3
REMARK    3  A    between atoms: C_8  and  C_9
REMARK    4  A    between atoms: C_9  and  N_10
REMARK    5  A    between atoms: C_12  and  O_13
REMARK    6  A    between atoms: O_13  and  C_14
REMARK    7  A    between atoms: C_14  and  C_15
REMARK                            x       y       z     vdW  Elec       q    Type
REMARK                         _______ _______ _______ _____ _____    ______ ____
ROOT
ATOM      1  N   UNL     1       2.597   5.938  19.193  0.00  0.00    +0.000 NA
ATOM      2  C   UNL     1       4.041   5.713  19.351  0.00  0.00    +0.000 C 
ATOM      3  C   UNL     1       4.334   4.208  19.423  0.00  0.00    +0.000 C 
ATOM      4  C   UNL     1       2.970   3.534  19.303  0.00  0.00    +0.000 C 
ATOM      5  F   UNL     1       2.873   2.789  18.173  0.00  0.00    +0.000 F 
ATOM      6  C   UNL     1       1.919   4.637  19.289  0.00  0.00    +0.000 C 
ENDROOT
BRANCH   1   7
ATOM      7  C   UNL     1       2.017   6.890  20.161  0.00  0.00    +0.000 C 
BRANCH   7  13
ATOM      8  C   UNL     1       0.941   9.162  20.425  0.00  0.00    +0.000 A 
ATOM      9  C   UNL     1       0.682  10.453  19.960  0.00  0.00    +0.000 A 
ATOM     10  C   UNL     1       1.119  10.830  18.678  0.00  0.00    +0.000 A 
ATOM     11  C   UNL     1       1.788   9.919  17.854  0.00  0.00    +0.000 A 
ATOM     12  C   UNL     1       2.053   8.636  18.320  0.00  0.00    +0.000 A 
ATOM     13  C   UNL     1       1.672   8.261  19.620  0.00  0.00    +0.000 A 
BRANCH   8  15
ATOM     14  C   UNL     1       0.541   9.391  22.816  0.00  0.00    +0.000 C 
ATOM     15  O   UNL     1       0.540   8.638  21.621  0.00  0.00    +0.000 OA
ENDBRANCH   8  15
ENDBRANCH   7  13
ENDBRANCH   1   7
BRANCH   3  16
ATOM     16  O   UNL     1       5.260   3.736  18.426  0.00  0.00    +0.000 OA
BRANCH  16  17
ATOM     17  C   UNL     1       6.230   4.729  18.068  0.00  0.00    +0.000 C 
BRANCH  17  18
ATOM     18  C   UNL     1       6.465   4.694  16.589  0.00  0.00    +0.000 A 
ATOM     19  N   UNL     1       7.335   5.441  15.932  0.00  0.00    +0.000 NA
ATOM     20  C   UNL     1       7.230   5.057  14.628  0.00  0.00    +0.000 A 
ATOM     21  N   UNL     1       7.955   5.570  13.598  0.00  0.00    +0.000 NA
ATOM     22  C   UNL     1       7.684   5.022  12.396  0.00  0.00    +0.000 A 
ATOM     23  C   UNL     1       6.755   4.013  12.156  0.00  0.00    +0.000 A 
ATOM     24  C   UNL     1       6.013   3.494  13.219  0.00  0.00    +0.000 A 
ATOM     25  C   UNL     1       6.286   4.053  14.461  0.00  0.00    +0.000 A 
ATOM     26  N   UNL     1       5.802   3.842  15.732  0.00  0.00    +0.000 N 
ATOM     27  H   UNL     1       5.085   3.191  16.019  0.00  0.00    +0.000 HD
ENDBRANCH  17  18
ENDBRANCH  16  17
ENDBRANCH   3  16
TORSDOF 6
ENDMDL
MODEL 2
REMARK VINA RESULT:      -7.8      0.813      1.303
REMARK  Name = 
REMARK  7 active torsions:
REMARK  status: ('A' for Active; 'I' for Inactive)
REMARK    1  A    between atoms: C_1  and  O_2
REMARK    2  A    between atoms: O_2  and  C_3
REMARK    3  A    between atoms: C_8  and  C_9
REMARK    4  A    between atoms: C_9  and  N_10
REMARK    5  A    between atoms: C_12  and  O_13
REMARK    6  A    between atoms: O_13  and  C_14
REMARK    7  A    between atoms: C_14  and  C_15
REMARK                            x       y       z     vdW  Elec       q    Type
REMARK                         _______ _______ _______ _____ _____    ______ ____
ROOT
ATOM      1  N   UNL     1       3.027   5.589  19.087  0.00  0.00    +0.000 NA
ATOM      2  C   UNL     1       4.489   5.624  19.236  0.00  0.00    +0.000 C 
ATOM      3  C   UNL     1       5.036   4.197  19.387  0.00  0.00    +0.000 C 
ATOM      4  C   UNL     1       3.807   3.295  19.324  0.00  0.00    +0.000 C 
ATOM      5  F   UNL     1       3.834   2.481  18.238  0.00  0.00    +0.000 F 
ATOM      6  C   UNL     1       2.583   4.199  19.264  0.00  0.00    +0.000 C 
ENDROOT
BRANCH   1   7
ATOM      7  C   UNL     1       2.297   6.482  20.008  0.00  0.00    +0.000 C 
BRANCH   7  13
ATOM      8  C   UNL     1       1.236   8.759  20.286  0.00  0.00    +0.000 A 
ATOM      9  C   UNL     1       0.967  10.047  19.818  0.00  0.00    +0.000 A 
ATOM     10  C   UNL     1       1.364  10.412  18.520  0.00  0.00    +0.000 A 
ATOM     11  C   UNL     1       2.005   9.492  17.684  0.00  0.00    +0.000 A 
ATOM     12  C   UNL     1       2.281   8.212  18.152  0.00  0.00    +0.000 A 
ATOM     13  C   UNL     1       1.939   7.850  19.466  0.00  0.00    +0.000 A 
BRANCH   8  15
ATOM     14  C   UNL     1      -0.395   8.496  22.075  0.00  0.00    +0.000 C 
ATOM     15  O   UNL     1       0.871   8.247  21.498  0.00  0.00    +0.000 OA
ENDBRANCH   8  15
ENDBRANCH   7  13
ENDBRANCH   1   7
BRANCH   3  16
ATOM     16  O   UNL     1       6.024   3.834  18.405  0.00  0.00    +0.000 OA
BRANCH  16  17
ATOM     17  C   UNL     1       6.592   4.978  17.753  0.00  0.00    +0.000 C 
BRANCH  17  18
ATOM     18  C   UNL     1       6.676   4.728  16.279  0.00  0.00    +0.000 A 
ATOM     19  N   UNL     1       5.937   3.864  15.604  0.00  0.00    +0.000 NA
ATOM     20  C   UNL     1       6.328   3.990  14.304  0.00  0.00    +0.000 A 
ATOM     21  N   UNL     1       5.818   3.285  13.259  0.00  0.00    +0.000 NA
ATOM     22  C   UNL     1       6.357   3.593  12.061  0.00  0.00    +0.000 A 
ATOM     23  C   UNL     1       7.352   4.541  11.840  0.00  0.00    +0.000 A 
ATOM     24  C   UNL     1       7.872   5.258  12.919  0.00  0.00    +0.000 A 
ATOM     25  C   UNL     1       7.322   4.947  14.157  0.00  0.00    +0.000 A 
ATOM     26  N   UNL     1       7.535   5.401  15.438  0.00  0.00    +0.000 N 
ATOM     27  H   UNL     1       8.199   6.099  15.743  0.00  0.00    +0.000 HD
ENDBRANCH  17  18
ENDBRANCH  16  17
ENDBRANCH   3  16
TORSDOF 6
ENDMDL
MODEL 3
REMARK VINA RESULT:      -7.4      4.677      6.835
REMARK  Name = 
REMARK  7 active torsions:
REMARK  status: ('A' for Active; 'I' for Inactive)
REMARK    1  A    between atoms: C_1  and  O_2
REMARK    2  A    between atoms: O_2  and  C_3
REMARK    3  A    between atoms: C_8  and  C_9
REMARK    4  A    between atoms: C_9  and  N_10
REMARK    5  A    between atoms: C_12  and  O_13
REMARK    6  A    between atoms: O_13  and  C_14
REMARK    7  A    between atoms: C_14  and  C_15
REMARK                            x       y       z     vdW  Elec       q    Type
REMARK                         _______ _______ _______ _____ _____    ______ ____
ROOT
ATOM      1  N   UNL     1       5.429   5.029  18.260  0.00  0.00    +0.000 NA
ATOM      2  C   UNL     1       6.516   5.943  18.638  0.00  0.00    +0.000 C 
ATOM      3  C   UNL     1       7.633   5.896  17.586  0.00  0.00    +0.000 C 
ATOM      4  C   UNL     1       7.153   4.888  16.546  0.00  0.00    +0.000 C 
ATOM      5  F   UNL     1       6.946   5.469  15.338  0.00  0.00    +0.000 F 
ATOM      6  C   UNL     1       5.852   4.287  17.063  0.00  0.00    +0.000 C 
ENDROOT
BRANCH   1   7
ATOM      7  C   UNL     1       5.019   4.093  19.324  0.00  0.00    +0.000 C 
BRANCH   7  13
ATOM      8  C   UNL     1       2.811   2.940  19.756  0.00  0.00    +0.000 A 
ATOM      9  C   UNL     1       1.485   2.964  20.194  0.00  0.00    +0.000 A 
ATOM     10  C   UNL     1       0.896   4.187  20.560  0.00  0.00    +0.000 A 
ATOM     11  C   UNL     1       1.616   5.382  20.469  0.00  0.00    +0.000 A 
ATOM     12  C   UNL     1       2.939   5.358  20.041  0.00  0.00    +0.000 A 
ATOM     13  C   UNL     1       3.559   4.137  19.724  0.00  0.00    +0.000 A 
BRANCH   8  15
ATOM     14  C   UNL     1       3.497   1.432  17.971  0.00  0.00    +0.000 C 
ATOM     15  O   UNL     1       3.500   1.843  19.323  0.00  0.00    +0.000 OA
ENDBRANCH   8  15
ENDBRANCH   7  13
ENDBRANCH   1   7
BRANCH   3  16
ATOM     16  O   UNL     1       7.948   7.172  16.997  0.00  0.00    +0.000 OA
BRANCH  16  17
ATOM     17  C   UNL     1       7.171   8.239  17.558  0.00  0.00    +0.000 C 
BRANCH  17  18
ATOM     18  C   UNL     1       8.079   9.338  18.013  0.00  0.00    +0.000 A 
ATOM     19  N   UNL     1       8.207  10.519  17.431  0.00  0.00    +0.000 NA
ATOM     20  C   UNL     1       9.109  11.202  18.192  0.00  0.00    +0.000 A 
ATOM     21  N   UNL     1       9.533  12.472  17.955  0.00  0.00    +0.000 NA
ATOM     22  C   UNL     1      10.423  12.941  18.854  0.00  0.00    +0.000 A 
ATOM     23  C   UNL     1      10.909  12.240  19.955  0.00  0.00    +0.000 A 
ATOM     24  C   UNL     1      10.470  10.936  20.189  0.00  0.00    +0.000 A 
ATOM     25  C   UNL     1       9.553  10.445  19.267  0.00  0.00    +0.000 A 
ATOM     26  N   UNL     1       8.885   9.250  19.127  0.00  0.00    +0.000 N 
ATOM     27  H   UNL     1       8.954   8.432  19.716  0.00  0.00    +0.000 HD
ENDBRANCH  17  18
ENDBRANCH  16  17
ENDBRANCH   3  16
TORSDOF 6
ENDMDL
MODEL 4
REMARK VINA RESULT:      -7.4      4.569      6.576
REMARK  Name = 
REMARK  7 active torsions:
REMARK  status: ('A' for Active; 'I' for Inactive)
REMARK    1  A    between atoms: C_1  and  O_2
REMARK    2  A    between atoms: O_2  and  C_3
REMARK    3  A    between atoms: C_8  and  C_9
REMARK    4  A    between atoms: C_9  and  N_10
REMARK    5  A    between atoms: C_12  and  O_13
REMARK    6  A    between atoms: O_13  and  C_14
REMARK    7  A    between atoms: C_14  and  C_15
REMARK                            x       y       z     vdW  Elec       q    Type
REMARK                         _______ _______ _______ _____ _____    ______ ____
ROOT
ATOM      1  N   UNL     1       5.365   4.845  18.226  0.00  0.00    +0.000 NA
ATOM      2  C   UNL     1       6.509   5.679  18.618  0.00  0.00    +0.000 C 
ATOM      3  C   UNL     1       7.565   5.681  17.503  0.00  0.00    +0.000 C 
ATOM      4  C   UNL     1       6.987   4.788  16.410  0.00  0.00    +0.000 C 
ATOM      5  F   UNL     1       6.740   5.481  15.270  0.00  0.00    +0.000 F 
ATOM      6  C   UNL     1       5.690   4.196  16.947  0.00  0.00    +0.000 C 
ENDROOT
BRANCH   1   7
ATOM      7  C   UNL     1       4.972   3.835  19.228  0.00  0.00    +0.000 C 
BRANCH   7  13
ATOM      8  C   UNL     1       2.541   4.424  19.592  0.00  0.00    +0.000 A 
ATOM      9  C   UNL     1       1.184   4.097  19.543  0.00  0.00    +0.000 A 
ATOM     10  C   UNL     1       0.796   2.792  19.191  0.00  0.00    +0.000 A 
ATOM     11  C   UNL     1       1.754   1.812  18.913  0.00  0.00    +0.000 A 
ATOM     12  C   UNL     1       3.105   2.139  18.953  0.00  0.00    +0.000 A 
ATOM     13  C   UNL     1       3.507   3.453  19.249  0.00  0.00    +0.000 A 
BRANCH   8  15
ATOM     14  C   UNL     1       2.351   6.838  19.844  0.00  0.00    +0.000 C 
ATOM     15  O   UNL     1       3.070   5.627  19.962  0.00  0.00    +0.000 OA
ENDBRANCH   8  15
ENDBRANCH   7  13
ENDBRANCH   1   7
BRANCH   3  16
ATOM     16  O   UNL     1       7.903   6.991  17.009  0.00  0.00    +0.000 OA
BRANCH  16  17
ATOM     17  C   UNL     1       7.129   8.026  17.631  0.00  0.00    +0.000 C 
BRANCH  17  18
ATOM     18  C   UNL     1       8.027   9.158  18.024  0.00  0.00    +0.000 A 
ATOM     19  N   UNL     1       8.116  10.320  17.399  0.00  0.00    +0.000 NA
ATOM     20  C   UNL     1       9.023  11.046  18.112  0.00  0.00    +0.000 A 
ATOM     21  N   UNL     1       9.415  12.315  17.821  0.00  0.00    +0.000 NA
ATOM     22  C   UNL     1      10.317  12.832  18.680  0.00  0.00    +0.000 A 
ATOM     23  C   UNL     1      10.844  12.180  19.792  0.00  0.00    +0.000 A 
ATOM     24  C   UNL     1      10.438  10.877  20.082  0.00  0.00    +0.000 A 
ATOM     25  C   UNL     1       9.508  10.336  19.202  0.00  0.00    +0.000 A 
ATOM     26  N   UNL     1       8.862   9.124  19.120  0.00  0.00    +0.000 N 
ATOM     27  H   UNL     1       8.962   8.329  19.734  0.00  0.00    +0.000 HD
ENDBRANCH  17  18
ENDBRANCH  16  17
ENDBRANCH   3  16
TORSDOF 6
ENDMDL
MODEL 5
REMARK VINA RESULT:      -7.4      2.665      8.711
REMARK  Name = 
REMARK  7 active torsions:
REMARK  status: ('A' for Active; 'I' for Inactive)
REMARK    1  A    between atoms: C_1  and  O_2
REMARK    2  A    between atoms: O_2  and  C_3
REMARK    3  A    between atoms: C_8  and  C_9
REMARK    4  A    between atoms: C_9  and  N_10
REMARK    5  A    between atoms: C_12  and  O_13
REMARK    6  A    between atoms: O_13  and  C_14
REMARK    7  A    between atoms: C_14  and  C_15
REMARK                            x       y       z     vdW  Elec       q    Type
REMARK                         _______ _______ _______ _____ _____    ______ ____
ROOT
ATOM      1  N   UNL     1       4.313   4.715  19.507  0.00  0.00    +0.000 NA
ATOM      2  C   UNL     1       4.120   5.992  18.807  0.00  0.00    +0.000 C 
ATOM      3  C   UNL     1       2.665   6.459  18.957  0.00  0.00    +0.000 C 
ATOM      4  C   UNL     1       1.987   5.377  19.792  0.00  0.00    +0.000 C 
ATOM      5  F   UNL     1       1.568   5.852  20.991  0.00  0.00    +0.000 F 
ATOM      6  C   UNL     1       3.005   4.263  20.003  0.00  0.00    +0.000 C 
ENDROOT
BRANCH   1   7
ATOM      7  C   UNL     1       4.944   3.659  18.691  0.00  0.00    +0.000 C 
BRANCH   7  13
ATOM      8  C   UNL     1       6.884   4.559  17.343  0.00  0.00    +0.000 A 
ATOM      9  C   UNL     1       7.469   4.903  16.122  0.00  0.00    +0.000 A 
ATOM     10  C   UNL     1       6.706   4.831  14.943  0.00  0.00    +0.000 A 
ATOM     11  C   UNL     1       5.364   4.443  14.982  0.00  0.00    +0.000 A 
ATOM     12  C   UNL     1       4.784   4.092  16.197  0.00  0.00    +0.000 A 
ATOM     13  C   UNL     1       5.548   4.106  17.376  0.00  0.00    +0.000 A 
BRANCH   8  15
ATOM     14  C   UNL     1       7.858   5.849  19.164  0.00  0.00    +0.000 C 
ATOM     15  O   UNL     1       7.479   4.624  18.571  0.00  0.00    +0.000 OA
ENDBRANCH   8  15
ENDBRANCH   7  13
ENDBRANCH   1   7
BRANCH   3  16
ATOM     16  O   UNL     1       2.519   7.766  19.544  0.00  0.00    +0.000 OA
BRANCH  16  17
ATOM     17  C   UNL     1       1.576   8.581  18.836  0.00  0.00    +0.000 C 
BRANCH  17  18
ATOM     18  C   UNL     1       0.784   9.397  19.810  0.00  0.00    +0.000 A 
ATOM     19  N   UNL     1       0.157  10.528  19.533  0.00  0.00    +0.000 NA
ATOM     20  C   UNL     1      -0.449  10.901  20.696  0.00  0.00    +0.000 A 
ATOM     21  N   UNL     1      -1.212  12.014  20.862  0.00  0.00    +0.000 NA
ATOM     22  C   UNL     1      -1.716  12.166  22.103  0.00  0.00    +0.000 A 
ATOM     23  C   UNL     1      -1.515  11.297  23.172  0.00  0.00    +0.000 A 
ATOM     24  C   UNL     1      -0.728  10.157  22.994  0.00  0.00    +0.000 A 
ATOM     25  C   UNL     1      -0.204   9.993  21.717  0.00  0.00    +0.000 A 
ATOM     26  N   UNL     1       0.596   9.041  21.128  0.00  0.00    +0.000 N 
ATOM     27  H   UNL     1       0.995   8.219  21.557  0.00  0.00    +0.000 HD
ENDBRANCH  17  18
ENDBRANCH  16  17
ENDBRANCH   3  16
TORSDOF 6
ENDMDL
MODEL 6
REMARK VINA RESULT:      -7.3      2.871      8.477
REMARK  Name = 
REMARK  7 active torsions:
REMARK  status: ('A' for Active; 'I' for Inactive)
REMARK    1  A    between atoms: C_1  and  O_2
REMARK    2  A    between atoms: O_2  and  C_3
REMARK    3  A    between atoms: C_8  and  C_9
REMARK    4  A    between atoms: C_9  and  N_10
REMARK    5  A    between atoms: C_12  and  O_13
REMARK    6  A    between atoms: O_13  and  C_14
REMARK    7  A    between atoms: C_14  and  C_15
REMARK                            x       y       z     vdW  Elec       q    Type
REMARK                         _______ _______ _______ _____ _____    ______ ____
ROOT
ATOM      1  N   UNL     1       3.764   3.749  19.881  0.00  0.00    +0.000 NA
ATOM      2  C   UNL     1       3.517   5.176  19.632  0.00  0.00    +0.000 C 
ATOM      3  C   UNL     1       2.019   5.417  19.396  0.00  0.00    +0.000 C 
ATOM      4  C   UNL     1       1.375   4.040  19.514  0.00  0.00    +0.000 C 
ATOM      5  F   UNL     1       0.522   3.970  20.567  0.00  0.00    +0.000 F 
ATOM      6  C   UNL     1       2.498   3.026  19.689  0.00  0.00    +0.000 C 
ENDROOT
BRANCH   1   7
ATOM      7  C   UNL     1       4.825   3.157  19.043  0.00  0.00    +0.000 C 
BRANCH   7  13
ATOM      8  C   UNL     1       6.389   4.744  17.848  0.00  0.00    +0.000 A 
ATOM      9  C   UNL     1       6.801   5.418  16.697  0.00  0.00    +0.000 A 
ATOM     10  C   UNL     1       6.028   5.328  15.526  0.00  0.00    +0.000 A 
ATOM     11  C   UNL     1       4.839   4.591  15.508  0.00  0.00    +0.000 A 
ATOM     12  C   UNL     1       4.433   3.913  16.653  0.00  0.00    +0.000 A 
ATOM     13  C   UNL     1       5.223   3.948  17.814  0.00  0.00    +0.000 A 
BRANCH   8  15
ATOM     14  C   UNL     1       7.935   5.778  19.420  0.00  0.00    +0.000 C 
ATOM     15  O   UNL     1       7.004   4.775  19.067  0.00  0.00    +0.000 OA
ENDBRANCH   8  15
ENDBRANCH   7  13
ENDBRANCH   1   7
BRANCH   3  16
ATOM     16  O   UNL     1       1.424   6.372  20.295  0.00  0.00    +0.000 OA
BRANCH  16  17
ATOM     17  C   UNL     1       2.063   7.654  20.232  0.00  0.00    +0.000 C 
BRANCH  17  18
ATOM     18  C   UNL     1       1.149   8.700  20.790  0.00  0.00    +0.000 A 
ATOM     19  N   UNL     1       0.914   8.908  22.075  0.00  0.00    +0.000 NA
ATOM     20  C   UNL     1       0.053   9.965  22.120  0.00  0.00    +0.000 A 
ATOM     21  N   UNL     1      -0.449  10.520  23.254  0.00  0.00    +0.000 NA
ATOM     22  C   UNL     1      -1.275  11.566  23.047  0.00  0.00    +0.000 A 
ATOM     23  C   UNL     1      -1.625  12.087  21.804  0.00  0.00    +0.000 A 
ATOM     24  C   UNL     1      -1.107  11.509  20.644  0.00  0.00    +0.000 A 
ATOM     25  C   UNL     1      -0.255  10.430  20.849  0.00  0.00    +0.000 A 
ATOM     26  N   UNL     1       0.452   9.599  20.012  0.00  0.00    +0.000 N 
ATOM     27  H   UNL     1       0.475   9.614  19.002  0.00  0.00    +0.000 HD
ENDBRANCH  17  18
ENDBRANCH  16  17
ENDBRANCH   3  16
TORSDOF 6
ENDMDL
MODEL 7
REMARK VINA RESULT:      -7.3      4.660      6.991
REMARK  Name = 
REMARK  7 active torsions:
REMARK  status: ('A' for Active; 'I' for Inactive)
REMARK    1  A    between atoms: C_1  and  O_2
REMARK    2  A    between atoms: O_2  and  C_3
REMARK    3  A    between atoms: C_8  and  C_9
REMARK    4  A    between atoms: C_9  and  N_10
REMARK    5  A    between atoms: C_12  and  O_13
REMARK    6  A    between atoms: O_13  and  C_14
REMARK    7  A    between atoms: C_14  and  C_15
REMARK                            x       y       z     vdW  Elec       q    Type
REMARK                         _______ _______ _______ _____ _____    ______ ____
ROOT
ATOM      1  N   UNL     1       4.591   5.002  17.918  0.00  0.00    +0.000 NA
ATOM      2  C   UNL     1       5.932   5.468  18.296  0.00  0.00    +0.000 C 
ATOM      3  C   UNL     1       6.632   6.094  17.082  0.00  0.00    +0.000 C 
ATOM      4  C   UNL     1       5.627   5.972  15.940  0.00  0.00    +0.000 C 
ATOM      5  F   UNL     1       5.217   7.186  15.497  0.00  0.00    +0.000 F 
ATOM      6  C   UNL     1       4.436   5.183  16.467  0.00  0.00    +0.000 C 
ENDROOT
BRANCH   1   7
ATOM      7  C   UNL     1       4.301   3.604  18.293  0.00  0.00    +0.000 C 
BRANCH   7  13
ATOM      8  C   UNL     1       3.614   2.552  20.488  0.00  0.00    +0.000 A 
ATOM      9  C   UNL     1       2.723   2.425  21.555  0.00  0.00    +0.000 A 
ATOM     10  C   UNL     1       1.501   3.120  21.527  0.00  0.00    +0.000 A 
ATOM     11  C   UNL     1       1.158   3.919  20.432  0.00  0.00    +0.000 A 
ATOM     12  C   UNL     1       2.049   4.053  19.372  0.00  0.00    +0.000 A 
ATOM     13  C   UNL     1       3.297   3.408  19.410  0.00  0.00    +0.000 A 
BRANCH   8  15
ATOM     14  C   UNL     1       5.373   1.130  21.387  0.00  0.00    +0.000 C 
ATOM     15  O   UNL     1       4.809   1.906  20.350  0.00  0.00    +0.000 OA
ENDBRANCH   8  15
ENDBRANCH   7  13
ENDBRANCH   1   7
BRANCH   3  16
ATOM     16  O   UNL     1       7.062   7.454  17.281  0.00  0.00    +0.000 OA
BRANCH  16  17
ATOM     17  C   UNL     1       8.117   7.558  18.246  0.00  0.00    +0.000 C 
BRANCH  17  18
ATOM     18  C   UNL     1       8.517   8.993  18.402  0.00  0.00    +0.000 A 
ATOM     19  N   UNL     1       8.215   9.969  17.564  0.00  0.00    +0.000 NA
ATOM     20  C   UNL     1       8.753  11.096  18.112  0.00  0.00    +0.000 A 
ATOM     21  N   UNL     1       8.673  12.344  17.577  0.00  0.00    +0.000 NA
ATOM     22  C   UNL     1       9.274  13.305  18.308  0.00  0.00    +0.000 A 
ATOM     23  C   UNL     1       9.936  13.108  19.517  0.00  0.00    +0.000 A 
ATOM     24  C   UNL     1      10.015  11.824  20.058  0.00  0.00    +0.000 A 
ATOM     25  C   UNL     1       9.398  10.827  19.311  0.00  0.00    +0.000 A 
ATOM     26  N   UNL     1       9.242   9.470  19.472  0.00  0.00    +0.000 N 
ATOM     27  H   UNL     1       9.588   8.895  20.227  0.00  0.00    +0.000 HD
ENDBRANCH  17  18
ENDBRANCH  16  17
ENDBRANCH   3  16
TORSDOF 6
ENDMDL
MODEL 8
REMARK VINA RESULT:      -7.3      2.661      8.391
REMARK  Name = 
REMARK  7 active torsions:
REMARK  status: ('A' for Active; 'I' for Inactive)
REMARK    1  A    between atoms: C_1  and  O_2
REMARK    2  A    between atoms: O_2  and  C_3
REMARK    3  A    between atoms: C_8  and  C_9
REMARK    4  A    between atoms: C_9  and  N_10
REMARK    5  A    between atoms: C_12  and  O_13
REMARK    6  A    between atoms: O_13  and  C_14
REMARK    7  A    between atoms: C_14  and  C_15
REMARK                            x       y       z     vdW  Elec       q    Type
REMARK                         _______ _______ _______ _____ _____    ______ ____
ROOT
ATOM      1  N   UNL     1       4.311   4.786  19.557  0.00  0.00    +0.000 NA
ATOM      2  C   UNL     1       4.045   6.005  18.781  0.00  0.00    +0.000 C 
ATOM      3  C   UNL     1       2.549   6.348  18.839  0.00  0.00    +0.000 C 
ATOM      4  C   UNL     1       1.926   5.253  19.698  0.00  0.00    +0.000 C 
ATOM      5  F   UNL     1       1.407   5.748  20.850  0.00  0.00    +0.000 F 
ATOM      6  C   UNL     1       3.023   4.245  20.016  0.00  0.00    +0.000 C 
ENDROOT
BRANCH   1   7
ATOM      7  C   UNL     1       5.071   3.751  18.829  0.00  0.00    +0.000 C 
BRANCH   7  13
ATOM      8  C   UNL     1       6.907   4.602  17.313  0.00  0.00    +0.000 A 
ATOM      9  C   UNL     1       7.404   4.892  16.041  0.00  0.00    +0.000 A 
ATOM     10  C   UNL     1       6.565   4.761  14.920  0.00  0.00    +0.000 A 
ATOM     11  C   UNL     1       5.232   4.365  15.068  0.00  0.00    +0.000 A 
ATOM     12  C   UNL     1       4.739   4.067  16.334  0.00  0.00    +0.000 A 
ATOM     13  C   UNL     1       5.580   4.140  17.457  0.00  0.00    +0.000 A 
BRANCH   8  15
ATOM     14  C   UNL     1       7.887   5.986  19.059  0.00  0.00    +0.000 C 
ATOM     15  O   UNL     1       7.582   4.728  18.493  0.00  0.00    +0.000 OA
ENDBRANCH   8  15
ENDBRANCH   7  13
ENDBRANCH   1   7
BRANCH   3  16
ATOM     16  O   UNL     1       2.262   7.664  19.347  0.00  0.00    +0.000 OA
BRANCH  16  17
ATOM     17  C   UNL     1       2.020   8.614  18.301  0.00  0.00    +0.000 C 
BRANCH  17  18
ATOM     18  C   UNL     1       1.108   9.692  18.799  0.00  0.00    +0.000 A 
ATOM     19  N   UNL     1       0.624   9.781  20.026  0.00  0.00    +0.000 NA
ATOM     20  C   UNL     1      -0.125  10.920  20.039  0.00  0.00    +0.000 A 
ATOM     21  N   UNL     1      -0.805  11.401  21.113  0.00  0.00    +0.000 NA
ATOM     22  C   UNL     1      -1.467  12.554  20.886  0.00  0.00    +0.000 A 
ATOM     23  C   UNL     1      -1.493  13.249  19.680  0.00  0.00    +0.000 A 
ATOM     24  C   UNL     1      -0.793  12.747  18.581  0.00  0.00    +0.000 A 
ATOM     25  C   UNL     1      -0.109  11.559  18.806  0.00  0.00    +0.000 A 
ATOM     26  N   UNL     1       0.681  10.748  18.025  0.00  0.00    +0.000 N 
ATOM     27  H   UNL     1       0.921  10.874  17.052  0.00  0.00    +0.000 HD
ENDBRANCH  17  18
ENDBRANCH  16  17
ENDBRANCH   3  16
TORSDOF 6
ENDMDL
MODEL 9
REMARK VINA RESULT:      -7.3      2.895      8.165
REMARK  Name = 
REMARK  7 active torsions:
REMARK  status: ('A' for Active; 'I' for Inactive)
REMARK    1  A    between atoms: C_1  and  O_2
REMARK    2  A    between atoms: O_2  and  C_3
REMARK    3  A    between atoms: C_8  and  C_9
REMARK    4  A    between atoms: C_9  and  N_10
REMARK    5  A    between atoms: C_12  and  O_13
REMARK    6  A    between atoms: O_13  and  C_14
REMARK    7  A    between atoms: C_14  and  C_15
REMARK                            x       y       z     vdW  Elec       q    Type
REMARK                         _______ _______ _______ _____ _____    ______ ____
ROOT
ATOM      1  N   UNL     1       4.327   5.131  19.447  0.00  0.00    +0.000 NA
ATOM      2  C   UNL     1       4.019   6.238  18.531  0.00  0.00    +0.000 C 
ATOM      3  C   UNL     1       2.543   6.639  18.669  0.00  0.00    +0.000 C 
ATOM      4  C   UNL     1       1.976   5.697  19.727  0.00  0.00    +0.000 C 
ATOM      5  F   UNL     1       1.576   6.367  20.836  0.00  0.00    +0.000 F 
ATOM      6  C   UNL     1       3.074   4.706  20.088  0.00  0.00    +0.000 C 
ENDROOT
BRANCH   1   7
ATOM      7  C   UNL     1       4.994   3.979  18.811  0.00  0.00    +0.000 C 
BRANCH   7  13
ATOM      8  C   UNL     1       6.946   4.584  17.322  0.00  0.00    +0.000 A 
ATOM      9  C   UNL     1       7.515   4.742  16.057  0.00  0.00    +0.000 A 
ATOM     10  C   UNL     1       6.716   4.580  14.911  0.00  0.00    +0.000 A 
ATOM     11  C   UNL     1       5.353   4.286  15.026  0.00  0.00    +0.000 A 
ATOM     12  C   UNL     1       4.788   4.121  16.286  0.00  0.00    +0.000 A 
ATOM     13  C   UNL     1       5.585   4.225  17.438  0.00  0.00    +0.000 A 
BRANCH   8  15
ATOM     14  C   UNL     1       7.922   6.034  19.018  0.00  0.00    +0.000 C 
ATOM     15  O   UNL     1       7.579   4.757  18.520  0.00  0.00    +0.000 OA
ENDBRANCH   8  15
ENDBRANCH   7  13
ENDBRANCH   1   7
BRANCH   3  16
ATOM     16  O   UNL     1       2.333   8.022  19.008  0.00  0.00    +0.000 OA
BRANCH  16  17
ATOM     17  C   UNL     1       1.673   8.747  17.962  0.00  0.00    +0.000 C 
BRANCH  17  18
ATOM     18  C   UNL     1       1.579  10.195  18.334  0.00  0.00    +0.000 A 
ATOM     19  N   UNL     1       0.778  10.700  19.256  0.00  0.00    +0.000 NA
ATOM     20  C   UNL     1       1.046  12.037  19.277  0.00  0.00    +0.000 A 
ATOM     21  N   UNL     1       0.446  12.945  20.091  0.00  0.00    +0.000 NA
ATOM     22  C   UNL     1       0.886  14.211  19.937  0.00  0.00    +0.000 A 
ATOM     23  C   UNL     1       1.869  14.623  19.041  0.00  0.00    +0.000 A 
ATOM     24  C   UNL     1       2.478  13.684  18.207  0.00  0.00    +0.000 A 
ATOM     25  C   UNL     1       2.030  12.378  18.359  0.00  0.00    +0.000 A 
ATOM     26  N   UNL     1       2.351  11.182  17.760  0.00  0.00    +0.000 N 
ATOM     27  H   UNL     1       3.024  11.021  17.024  0.00  0.00    +0.000 HD
ENDBRANCH  17  18
ENDBRANCH  16  17
ENDBRANCH   3  16
TORSDOF 6
ENDMDL
