MODEL 1
REMARK VINA RESULT:      -6.4      0.000      0.000
REMARK  Name = 
REMARK  7 active torsions:
REMARK  status: ('A' for Active; 'I' for Inactive)
REMARK    1  A    between atoms: C_1  and  C_2
REMARK    2  A    between atoms: C_5  and  C_6
REMARK    3  A    between atoms: C_7  and  C_8
REMARK    4  A    between atoms: N_10  and  C_11
REMARK    5  A    between atoms: C_19  and  C_20
REMARK    6  A    between atoms: N_23  and  C_24
REMARK    7  A    between atoms: N_30  and  C_31
REMARK                            x       y       z     vdW  Elec       q    Type
REMARK                         _______ _______ _______ _____ _____    ______ ____
ROOT
ATOM      1  C   UNL     1       5.214  14.512  21.981  0.00  0.00    +0.000 A 
ATOM      2  N   UNL     1       4.447  14.507  23.133  0.00  0.00    +0.000 NA
ATOM      3  N   UNL     1       5.322  14.388  24.105  0.00  0.00    +0.000 N 
ATOM      4  C   UNL     1       5.210  14.251  25.521  0.00  0.00    +0.000 C 
ATOM      5  C   UNL     1       6.502  14.349  23.662  0.00  0.00    +0.000 A 
ATOM      6  N   UNL     1       7.492  14.293  24.379  0.00  0.00    +0.000 NA
ATOM      7  C   UNL     1       8.411  14.241  25.092  0.00  0.00    +0.000 A 
ATOM      8  N   UNL     1       8.897  14.335  23.895  0.00  0.00    +0.000 NA
ATOM      9  C   UNL     1       8.147  14.446  22.335  0.00  0.00    +0.000 A 
ATOM     10  N   UNL     1       8.976  14.092  21.261  0.00  0.00    +0.000 N 
ATOM     11  C   UNL     1      10.406  14.320  21.391  0.00  0.00    +0.000 C 
ATOM     12  C   UNL     1      10.597  12.869  20.901  0.00  0.00    +0.000 C 
ATOM     13  C   UNL     1       9.176  12.664  21.370  0.00  0.00    +0.000 C 
ATOM     14  C   UNL     1       6.679  14.468  22.348  0.00  0.00    +0.000 A 
ENDROOT
BRANCH   1  16
ATOM     15  C   UNL     1       4.697  15.068  19.430  0.00  0.00    +0.000 A 
ATOM     16  C   UNL     1       4.363  14.678  20.719  0.00  0.00    +0.000 A 
ATOM     17  C   UNL     1       2.967  14.357  20.592  0.00  0.00    +0.000 A 
ATOM     18  N   UNL     1       2.449  14.643  19.381  0.00  0.00    +0.000 NA
ATOM     19  N   UNL     1       3.520  15.093  18.682  0.00  0.00    +0.000 N 
ATOM     20  C   UNL     1       3.333  15.631  17.341  0.00  0.00    +0.000 C 
BRANCH  15  25
ATOM     21  C   UNL     1       9.957  16.483  17.585  0.00  0.00    +0.000 C 
ATOM     22  C   UNL     1       8.594  16.103  18.070  0.00  0.00    +0.000 A 
ATOM     23  C   UNL     1       8.072  14.837  17.832  0.00  0.00    +0.000 A 
ATOM     24  C   UNL     1       6.792  14.506  18.270  0.00  0.00    +0.000 A 
ATOM     25  C   UNL     1       6.007  15.440  18.941  0.00  0.00    +0.000 A 
ATOM     26  C   UNL     1       6.538  16.695  19.204  0.00  0.00    +0.000 A 
ATOM     27  C   UNL     1       7.818  17.027  18.765  0.00  0.00    +0.000 A 
ENDBRANCH  15  25
ENDBRANCH   1  16
BRANCH  12  28
ATOM     28  C   UNL     1      10.695  12.660  19.423  0.00  0.00    +0.000 A 
ATOM     29  C   UNL     1      10.106  11.582  18.755  0.00  0.00    +0.000 A 
ATOM     30  C   UNL     1      10.460  11.763  17.450  0.00  0.00    +0.000 A 
ATOM     31  N   UNL     1      11.247  12.877  17.412  0.00  0.00    +0.000 N 
ATOM     32  C   UNL     1      11.980  13.381  16.276  0.00  0.00    +0.000 C 
ATOM     33  N   UNL     1      11.378  13.473  18.614  0.00  0.00    +0.000 NA
ENDBRANCH  12  28
TORSDOF 3
ENDMDL
MODEL 2
REMARK VINA RESULT:      -6.2      1.657      5.182
REMARK  Name = 
REMARK  7 active torsions:
REMARK  status: ('A' for Active; 'I' for Inactive)
REMARK    1  A    between atoms: C_1  and  C_2
REMARK    2  A    between atoms: C_5  and  C_6
REMARK    3  A    between atoms: C_7  and  C_8
REMARK    4  A    between atoms: N_10  and  C_11
REMARK    5  A    between atoms: C_19  and  C_20
REMARK    6  A    between atoms: N_23  and  C_24
REMARK    7  A    between atoms: N_30  and  C_31
REMARK                            x       y       z     vdW  Elec       q    Type
REMARK                         _______ _______ _______ _____ _____    ______ ____
ROOT
ATOM      1  C   UNL     1       5.091  14.635  22.367  0.00  0.00    +0.000 A 
ATOM      2  N   UNL     1       3.727  14.740  22.579  0.00  0.00    +0.000 NA
ATOM      3  N   UNL     1       3.228  14.946  21.383  0.00  0.00    +0.000 N 
ATOM      4  C   UNL     1       1.912  15.207  20.895  0.00  0.00    +0.000 C 
ATOM      5  C   UNL     1       4.130  14.948  20.500  0.00  0.00    +0.000 A 
ATOM      6  N   UNL     1       3.903  15.069  19.304  0.00  0.00    +0.000 NA
ATOM      7  C   UNL     1       3.651  15.186  18.174  0.00  0.00    +0.000 A 
ATOM      8  N   UNL     1       4.930  14.989  18.231  0.00  0.00    +0.000 NA
ATOM      9  C   UNL     1       6.014  14.739  19.562  0.00  0.00    +0.000 A 
ATOM     10  N   UNL     1       7.362  14.998  19.275  0.00  0.00    +0.000 N 
ATOM     11  C   UNL     1       7.829  14.786  17.916  0.00  0.00    +0.000 C 
ATOM     12  C   UNL     1       8.467  16.188  18.006  0.00  0.00    +0.000 C 
ATOM     13  C   UNL     1       7.460  16.431  19.105  0.00  0.00    +0.000 C 
ATOM     14  C   UNL     1       5.381  14.714  20.888  0.00  0.00    +0.000 A 
ENDROOT
BRANCH   1  16
ATOM     15  C   UNL     1       7.139  13.872  23.886  0.00  0.00    +0.000 A 
ATOM     16  C   UNL     1       5.859  14.357  23.663  0.00  0.00    +0.000 A 
ATOM     17  C   UNL     1       5.402  14.645  24.995  0.00  0.00    +0.000 A 
ATOM     18  N   UNL     1       6.257  14.256  25.962  0.00  0.00    +0.000 NA
ATOM     19  N   UNL     1       7.314  13.769  25.266  0.00  0.00    +0.000 N 
ATOM     20  C   UNL     1       8.411  13.124  25.975  0.00  0.00    +0.000 C 
BRANCH  15  25
ATOM     21  C   UNL     1      11.080  12.266  20.017  0.00  0.00    +0.000 C 
ATOM     22  C   UNL     1      10.058  12.672  21.030  0.00  0.00    +0.000 A 
ATOM     23  C   UNL     1       9.106  11.772  21.494  0.00  0.00    +0.000 A 
ATOM     24  C   UNL     1       8.146  12.171  22.421  0.00  0.00    +0.000 A 
ATOM     25  C   UNL     1       8.113  13.483  22.889  0.00  0.00    +0.000 A 
ATOM     26  C   UNL     1       9.080  14.375  22.447  0.00  0.00    +0.000 A 
ATOM     27  C   UNL     1      10.040  13.975  21.520  0.00  0.00    +0.000 A 
ENDBRANCH  15  25
ENDBRANCH   1  16
BRANCH  12  28
ATOM     28  C   UNL     1       9.860  16.267  18.546  0.00  0.00    +0.000 A 
ATOM     29  C   UNL     1      10.916  15.481  18.074  0.00  0.00    +0.000 A 
ATOM     30  C   UNL     1      11.978  15.850  18.847  0.00  0.00    +0.000 A 
ATOM     31  N   UNL     1      11.510  16.774  19.735  0.00  0.00    +0.000 N 
ATOM     32  C   UNL     1      12.228  17.344  20.849  0.00  0.00    +0.000 C 
ATOM     33  N   UNL     1      10.210  17.078  19.546  0.00  0.00    +0.000 NA
ENDBRANCH  12  28
TORSDOF 3
ENDMDL
MODEL 3
REMARK VINA RESULT:      -6.2      6.865     12.100
REMARK  Name = 
REMARK  7 active torsions:
REMARK  status: ('A' for Active; 'I' for Inactive)
REMARK    1  A    between atoms: C_1  and  C_2
REMARK    2  A    between atoms: C_5  and  C_6
REMARK    3  A    between atoms: C_7  and  C_8
REMARK    4  A    between atoms: N_10  and  C_11
REMARK    5  A    between atoms: C_19  and  C_20
REMARK    6  A    between atoms: N_23  and  C_24
REMARK    7  A    between atoms: N_30  and  C_31
REMARK                            x       y       z     vdW  Elec       q    Type
REMARK                         _______ _______ _______ _____ _____    ______ ____
ROOT
ATOM      1  C   UNL     1      -1.842  12.211  18.600  0.00  0.00    +0.000 A 
ATOM      2  N   UNL     1      -1.789  11.168  17.691  0.00  0.00    +0.000 NA
ATOM      3  N   UNL     1      -3.010  10.688  17.677  0.00  0.00    +0.000 N 
ATOM      4  C   UNL     1      -3.626   9.580  17.022  0.00  0.00    +0.000 C 
ATOM      5  C   UNL     1      -3.771  11.338  18.445  0.00  0.00    +0.000 A 
ATOM      6  N   UNL     1      -4.968  11.110  18.562  0.00  0.00    +0.000 NA
ATOM      7  C   UNL     1      -6.103  10.867  18.647  0.00  0.00    +0.000 A 
ATOM      8  N   UNL     1      -5.909  11.910  19.389  0.00  0.00    +0.000 NA
ATOM      9  C   UNL     1      -4.488  12.834  19.758  0.00  0.00    +0.000 A 
ATOM     10  N   UNL     1      -4.580  13.609  20.923  0.00  0.00    +0.000 N 
ATOM     11  C   UNL     1      -5.887  14.110  21.314  0.00  0.00    +0.000 C 
ATOM     12  C   UNL     1      -5.578  13.570  22.727  0.00  0.00    +0.000 C 
ATOM     13  C   UNL     1      -4.591  12.669  22.023  0.00  0.00    +0.000 C 
ATOM     14  C   UNL     1      -3.259  12.383  19.091  0.00  0.00    +0.000 A 
ENDROOT
BRANCH   1  16
ATOM     15  C   UNL     1       0.792  12.445  18.907  0.00  0.00    +0.000 A 
ATOM     16  C   UNL     1      -0.497  12.931  18.735  0.00  0.00    +0.000 A 
ATOM     17  C   UNL     1      -0.280  14.347  18.616  0.00  0.00    +0.000 A 
ATOM     18  N   UNL     1       0.998  14.723  18.825  0.00  0.00    +0.000 NA
ATOM     19  N   UNL     1       1.642  13.546  19.017  0.00  0.00    +0.000 N 
ATOM     20  C   UNL     1       3.046  13.546  19.408  0.00  0.00    +0.000 C 
BRANCH  15  25
ATOM     21  C   UNL     1       2.306   6.908  19.256  0.00  0.00    +0.000 C 
ATOM     22  C   UNL     1       1.907   8.346  19.152  0.00  0.00    +0.000 A 
ATOM     23  C   UNL     1       2.190   9.092  18.014  0.00  0.00    +0.000 A 
ATOM     24  C   UNL     1       1.832  10.436  17.942  0.00  0.00    +0.000 A 
ATOM     25  C   UNL     1       1.198  11.061  19.013  0.00  0.00    +0.000 A 
ATOM     26  C   UNL     1       0.890  10.309  20.139  0.00  0.00    +0.000 A 
ATOM     27  C   UNL     1       1.248   8.965  20.211  0.00  0.00    +0.000 A 
ENDBRANCH  15  25
ENDBRANCH   1  16
BRANCH  12  28
ATOM     28  C   UNL     1      -4.867  14.492  23.665  0.00  0.00    +0.000 A 
ATOM     29  C   UNL     1      -5.292  15.796  23.936  0.00  0.00    +0.000 A 
ATOM     30  C   UNL     1      -4.358  16.278  24.807  0.00  0.00    +0.000 A 
ATOM     31  N   UNL     1      -3.435  15.287  24.974  0.00  0.00    +0.000 N 
ATOM     32  C   UNL     1      -2.185  15.381  25.688  0.00  0.00    +0.000 C 
ATOM     33  N   UNL     1      -3.746  14.157  24.308  0.00  0.00    +0.000 NA
ENDBRANCH  12  28
TORSDOF 3
ENDMDL
MODEL 4
REMARK VINA RESULT:      -6.1      7.239     11.837
REMARK  Name = 
REMARK  7 active torsions:
REMARK  status: ('A' for Active; 'I' for Inactive)
REMARK    1  A    between atoms: C_1  and  C_2
REMARK    2  A    between atoms: C_5  and  C_6
REMARK    3  A    between atoms: C_7  and  C_8
REMARK    4  A    between atoms: N_10  and  C_11
REMARK    5  A    between atoms: C_19  and  C_20
REMARK    6  A    between atoms: N_23  and  C_24
REMARK    7  A    between atoms: N_30  and  C_31
REMARK                            x       y       z     vdW  Elec       q    Type
REMARK                         _______ _______ _______ _____ _____    ______ ____
ROOT
ATOM      1  C   UNL     1      -1.242  12.890  23.020  0.00  0.00    +0.000 A 
ATOM      2  N   UNL     1      -0.345  13.855  23.444  0.00  0.00    +0.000 NA
ATOM      3  N   UNL     1      -1.103  14.837  23.871  0.00  0.00    +0.000 N 
ATOM      4  C   UNL     1      -0.832  16.147  24.370  0.00  0.00    +0.000 C 
ATOM      5  C   UNL     1      -2.328  14.552  23.773  0.00  0.00    +0.000 A 
ATOM      6  N   UNL     1      -3.226  15.290  24.156  0.00  0.00    +0.000 NA
ATOM      7  C   UNL     1      -4.055  16.015  24.532  0.00  0.00    +0.000 A 
ATOM      8  N   UNL     1      -4.673  14.949  24.136  0.00  0.00    +0.000 NA
ATOM      9  C   UNL     1      -4.109  13.458  23.452  0.00  0.00    +0.000 A 
ATOM     10  N   UNL     1      -5.083  12.730  22.752  0.00  0.00    +0.000 N 
ATOM     11  C   UNL     1      -6.468  12.851  23.174  0.00  0.00    +0.000 C 
ATOM     12  C   UNL     1      -6.812  13.092  21.690  0.00  0.00    +0.000 C 
ATOM     13  C   UNL     1      -5.362  13.494  21.556  0.00  0.00    +0.000 C 
ATOM     14  C   UNL     1      -2.652  13.346  23.311  0.00  0.00    +0.000 A 
ENDROOT
BRANCH   1  16
ATOM     15  C   UNL     1       0.375  11.443  21.480  0.00  0.00    +0.000 A 
ATOM     16  C   UNL     1      -0.539  11.631  22.506  0.00  0.00    +0.000 A 
ATOM     17  C   UNL     1      -0.628  10.316  23.083  0.00  0.00    +0.000 A 
ATOM     18  N   UNL     1       0.057   9.374  22.404  0.00  0.00    +0.000 NA
ATOM     19  N   UNL     1       0.656  10.078  21.413  0.00  0.00    +0.000 N 
ATOM     20  C   UNL     1       1.397   9.375  20.374  0.00  0.00    +0.000 C 
BRANCH  15  25
ATOM     21  C   UNL     1       2.477  15.540  18.033  0.00  0.00    +0.000 C 
ATOM     22  C   UNL     1       1.934  14.482  18.940  0.00  0.00    +0.000 A 
ATOM     23  C   UNL     1       2.686  13.986  20.000  0.00  0.00    +0.000 A 
ATOM     24  C   UNL     1       2.176  12.985  20.822  0.00  0.00    +0.000 A 
ATOM     25  C   UNL     1       0.911  12.451  20.590  0.00  0.00    +0.000 A 
ATOM     26  C   UNL     1       0.149  12.964  19.550  0.00  0.00    +0.000 A 
ATOM     27  C   UNL     1       0.659  13.965  18.727  0.00  0.00    +0.000 A 
ENDBRANCH  15  25
ENDBRANCH   1  16
BRANCH  12  28
ATOM     28  C   UNL     1      -7.100  11.885  20.855  0.00  0.00    +0.000 A 
ATOM     29  C   UNL     1      -7.286  11.931  19.470  0.00  0.00    +0.000 A 
ATOM     30  C   UNL     1      -7.545  10.637  19.124  0.00  0.00    +0.000 A 
ATOM     31  N   UNL     1      -7.540   9.916  20.283  0.00  0.00    +0.000 N 
ATOM     32  C   UNL     1      -7.910   8.531  20.442  0.00  0.00    +0.000 C 
ATOM     33  N   UNL     1      -7.231  10.659  21.365  0.00  0.00    +0.000 NA
ENDBRANCH  12  28
TORSDOF 3
ENDMDL
MODEL 5
REMARK VINA RESULT:      -6.1      8.042     11.630
REMARK  Name = 
REMARK  7 active torsions:
REMARK  status: ('A' for Active; 'I' for Inactive)
REMARK    1  A    between atoms: C_1  and  C_2
REMARK    2  A    between atoms: C_5  and  C_6
REMARK    3  A    between atoms: C_7  and  C_8
REMARK    4  A    between atoms: N_10  and  C_11
REMARK    5  A    between atoms: C_19  and  C_20
REMARK    6  A    between atoms: N_23  and  C_24
REMARK    7  A    between atoms: N_30  and  C_31
REMARK                            x       y       z     vdW  Elec       q    Type
REMARK                         _______ _______ _______ _____ _____    ______ ____
ROOT
ATOM      1  C   UNL     1      -4.072  11.892  18.211  0.00  0.00    +0.000 A 
ATOM      2  N   UNL     1      -4.229  11.054  17.122  0.00  0.00    +0.000 NA
ATOM      3  N   UNL     1      -3.067  10.457  17.001  0.00  0.00    +0.000 N 
ATOM      4  C   UNL     1      -2.526   9.534  16.056  0.00  0.00    +0.000 C 
ATOM      5  C   UNL     1      -2.263  10.826  17.900  0.00  0.00    +0.000 A 
ATOM      6  N   UNL     1      -1.134  10.369  18.026  0.00  0.00    +0.000 NA
ATOM      7  C   UNL     1      -0.068   9.913  18.116  0.00  0.00    +0.000 A 
ATOM      8  N   UNL     1      -0.194  10.716  19.124  0.00  0.00    +0.000 NA
ATOM      9  C   UNL     1      -1.492  11.743  19.643  0.00  0.00    +0.000 A 
ATOM     10  N   UNL     1      -1.109  12.777  20.510  0.00  0.00    +0.000 N 
ATOM     11  C   UNL     1       0.029  12.553  21.387  0.00  0.00    +0.000 C 
ATOM     12  C   UNL     1       0.562  13.919  20.906  0.00  0.00    +0.000 C 
ATOM     13  C   UNL     1      -0.332  13.697  19.709  0.00  0.00    +0.000 C 
ATOM     14  C   UNL     1      -2.702  11.689  18.813  0.00  0.00    +0.000 A 
ENDROOT
BRANCH   1  16
ATOM     15  C   UNL     1      -5.729  13.389  19.660  0.00  0.00    +0.000 A 
ATOM     16  C   UNL     1      -5.353  12.666  18.537  0.00  0.00    +0.000 A 
ATOM     17  C   UNL     1      -6.461  12.881  17.646  0.00  0.00    +0.000 A 
ATOM     18  N   UNL     1      -7.485  13.559  18.203  0.00  0.00    +0.000 NA
ATOM     19  N   UNL     1      -7.027  13.851  19.445  0.00  0.00    +0.000 N 
ATOM     20  C   UNL     1      -7.917  14.481  20.413  0.00  0.00    +0.000 C 
BRANCH  15  25
ATOM     21  C   UNL     1      -2.776  14.235  24.522  0.00  0.00    +0.000 C 
ATOM     22  C   UNL     1      -3.555  14.011  23.266  0.00  0.00    +0.000 A 
ATOM     23  C   UNL     1      -4.309  12.858  23.080  0.00  0.00    +0.000 A 
ATOM     24  C   UNL     1      -5.011  12.654  21.895  0.00  0.00    +0.000 A 
ATOM     25  C   UNL     1      -4.959  13.593  20.868  0.00  0.00    +0.000 A 
ATOM     26  C   UNL     1      -4.229  14.757  21.063  0.00  0.00    +0.000 A 
ATOM     27  C   UNL     1      -3.527  14.961  22.248  0.00  0.00    +0.000 A 
ENDBRANCH  15  25
ENDBRANCH   1  16
BRANCH  12  28
ATOM     28  C   UNL     1       0.122  15.127  21.670  0.00  0.00    +0.000 A 
ATOM     29  C   UNL     1      -0.330  16.302  21.063  0.00  0.00    +0.000 A 
ATOM     30  C   UNL     1      -0.597  17.138  22.108  0.00  0.00    +0.000 A 
ATOM     31  N   UNL     1      -0.265  16.458  23.244  0.00  0.00    +0.000 N 
ATOM     32  C   UNL     1      -0.233  16.981  24.588  0.00  0.00    +0.000 C 
ATOM     33  N   UNL     1       0.148  15.197  23.003  0.00  0.00    +0.000 NA
ENDBRANCH  12  28
TORSDOF 3
ENDMDL
MODEL 6
REMARK VINA RESULT:      -6.0      7.157     10.542
REMARK  Name = 
REMARK  7 active torsions:
REMARK  status: ('A' for Active; 'I' for Inactive)
REMARK    1  A    between atoms: C_1  and  C_2
REMARK    2  A    between atoms: C_5  and  C_6
REMARK    3  A    between atoms: C_7  and  C_8
REMARK    4  A    between atoms: N_10  and  C_11
REMARK    5  A    between atoms: C_19  and  C_20
REMARK    6  A    between atoms: N_23  and  C_24
REMARK    7  A    between atoms: N_30  and  C_31
REMARK                            x       y       z     vdW  Elec       q    Type
REMARK                         _______ _______ _______ _____ _____    ______ ____
ROOT
ATOM      1  C   UNL     1      -4.535  12.947  20.556  0.00  0.00    +0.000 A 
ATOM      2  N   UNL     1      -5.378  12.262  21.414  0.00  0.00    +0.000 NA
ATOM      3  N   UNL     1      -5.483  13.046  22.461  0.00  0.00    +0.000 N 
ATOM      4  C   UNL     1      -6.133  12.921  23.725  0.00  0.00    +0.000 C 
ATOM      5  C   UNL     1      -4.827  14.113  22.307  0.00  0.00    +0.000 A 
ATOM      6  N   UNL     1      -4.813  15.022  23.126  0.00  0.00    +0.000 NA
ATOM      7  C   UNL     1      -4.824  15.867  23.926  0.00  0.00    +0.000 A 
ATOM      8  N   UNL     1      -4.124  16.326  22.938  0.00  0.00    +0.000 NA
ATOM      9  C   UNL     1      -3.671  15.641  21.410  0.00  0.00    +0.000 A 
ATOM     10  N   UNL     1      -2.564  16.249  20.802  0.00  0.00    +0.000 N 
ATOM     11  C   UNL     1      -2.326  17.660  21.058  0.00  0.00    +0.000 C 
ATOM     12  C   UNL     1      -0.864  17.273  21.363  0.00  0.00    +0.000 C 
ATOM     13  C   UNL     1      -1.421  15.891  21.614  0.00  0.00    +0.000 C 
ATOM     14  C   UNL     1      -4.192  14.292  21.150  0.00  0.00    +0.000 A 
ENDROOT
BRANCH   1  16
ATOM     15  C   UNL     1      -3.149  11.843  18.571  0.00  0.00    +0.000 A 
ATOM     16  C   UNL     1      -4.311  12.196  19.241  0.00  0.00    +0.000 A 
ATOM     17  C   UNL     1      -5.331  11.590  18.428  0.00  0.00    +0.000 A 
ATOM     18  N   UNL     1      -4.865  11.030  17.294  0.00  0.00    +0.000 NA
ATOM     19  N   UNL     1      -3.524  11.206  17.388  0.00  0.00    +0.000 N 
ATOM     20  C   UNL     1      -2.667  10.839  16.267  0.00  0.00    +0.000 C 
BRANCH  15  25
ATOM     21  C   UNL     1       2.217  13.004  20.286  0.00  0.00    +0.000 C 
ATOM     22  C   UNL     1       0.818  12.700  19.853  0.00  0.00    +0.000 A 
ATOM     23  C   UNL     1       0.142  11.583  20.331  0.00  0.00    +0.000 A 
ATOM     24  C   UNL     1      -1.152  11.301  19.901  0.00  0.00    +0.000 A 
ATOM     25  C   UNL     1      -1.787  12.123  18.974  0.00  0.00    +0.000 A 
ATOM     26  C   UNL     1      -1.124  13.253  18.517  0.00  0.00    +0.000 A 
ATOM     27  C   UNL     1       0.170  13.535  18.946  0.00  0.00    +0.000 A 
ENDBRANCH  15  25
ENDBRANCH   1  16
BRANCH  12  28
ATOM     28  C   UNL     1       0.088  17.251  20.209  0.00  0.00    +0.000 A 
ATOM     29  C   UNL     1       1.371  16.702  20.277  0.00  0.00    +0.000 A 
ATOM     30  C   UNL     1       1.893  16.915  19.035  0.00  0.00    +0.000 A 
ATOM     31  N   UNL     1       0.944  17.593  18.326  0.00  0.00    +0.000 N 
ATOM     32  C   UNL     1       1.092  18.168  17.012  0.00  0.00    +0.000 C 
ATOM     33  N   UNL     1      -0.198  17.781  19.017  0.00  0.00    +0.000 NA
ENDBRANCH  12  28
TORSDOF 3
ENDMDL
MODEL 7
REMARK VINA RESULT:      -6.0      2.586      7.517
REMARK  Name = 
REMARK  7 active torsions:
REMARK  status: ('A' for Active; 'I' for Inactive)
REMARK    1  A    between atoms: C_1  and  C_2
REMARK    2  A    between atoms: C_5  and  C_6
REMARK    3  A    between atoms: C_7  and  C_8
REMARK    4  A    between atoms: N_10  and  C_11
REMARK    5  A    between atoms: C_19  and  C_20
REMARK    6  A    between atoms: N_23  and  C_24
REMARK    7  A    between atoms: N_30  and  C_31
REMARK                            x       y       z     vdW  Elec       q    Type
REMARK                         _______ _______ _______ _____ _____    ______ ____
ROOT
ATOM      1  C   UNL     1       5.780  14.861  21.456  0.00  0.00    +0.000 A 
ATOM      2  N   UNL     1       6.765  15.658  20.901  0.00  0.00    +0.000 NA
ATOM      3  N   UNL     1       6.210  16.154  19.819  0.00  0.00    +0.000 N 
ATOM      4  C   UNL     1       6.683  16.986  18.761  0.00  0.00    +0.000 C 
ATOM      5  C   UNL     1       5.017  15.764  19.693  0.00  0.00    +0.000 A 
ATOM      6  N   UNL     1       4.277  16.133  18.790  0.00  0.00    +0.000 NA
ATOM      7  C   UNL     1       3.602  16.507  17.919  0.00  0.00    +0.000 A 
ATOM      8  N   UNL     1       2.844  15.763  18.660  0.00  0.00    +0.000 NA
ATOM      9  C   UNL     1       3.148  14.868  20.115  0.00  0.00    +0.000 A 
ATOM     10  N   UNL     1       2.222  13.848  20.378  0.00  0.00    +0.000 N 
ATOM     11  C   UNL     1       0.857  14.019  19.909  0.00  0.00    +0.000 C 
ATOM     12  C   UNL     1       0.967  12.595  19.327  0.00  0.00    +0.000 C 
ATOM     13  C   UNL     1       2.458  12.832  19.375  0.00  0.00    +0.000 C 
ATOM     14  C   UNL     1       4.513  14.981  20.644  0.00  0.00    +0.000 A 
ENDROOT
BRANCH   1  16
ATOM     15  C   UNL     1       7.357  13.456  23.076  0.00  0.00    +0.000 A 
ATOM     16  C   UNL     1       6.233  14.208  22.765  0.00  0.00    +0.000 A 
ATOM     17  C   UNL     1       5.579  14.328  24.041  0.00  0.00    +0.000 A 
ATOM     18  N   UNL     1       6.163  13.612  25.022  0.00  0.00    +0.000 NA
ATOM     19  N   UNL     1       7.245  13.070  24.412  0.00  0.00    +0.000 N 
ATOM     20  C   UNL     1       8.074  12.109  25.129  0.00  0.00    +0.000 C 
BRANCH  15  25
ATOM     21  C   UNL     1      11.688  11.897  19.628  0.00  0.00    +0.000 C 
ATOM     22  C   UNL     1      10.563  12.291  20.532  0.00  0.00    +0.000 A 
ATOM     23  C   UNL     1       9.556  11.392  20.862  0.00  0.00    +0.000 A 
ATOM     24  C   UNL     1       8.503  11.781  21.688  0.00  0.00    +0.000 A 
ATOM     25  C   UNL     1       8.432  13.080  22.184  0.00  0.00    +0.000 A 
ATOM     26  C   UNL     1       9.452  13.970  21.878  0.00  0.00    +0.000 A 
ATOM     27  C   UNL     1      10.505  13.581  21.052  0.00  0.00    +0.000 A 
ENDBRANCH  15  25
ENDBRANCH   1  16
BRANCH  12  28
ATOM     28  C   UNL     1       0.588  11.462  20.227  0.00  0.00    +0.000 A 
ATOM     29  C   UNL     1       0.556  10.127  19.816  0.00  0.00    +0.000 A 
ATOM     30  C   UNL     1       0.142   9.445  20.924  0.00  0.00    +0.000 A 
ATOM     31  N   UNL     1      -0.082  10.379  21.893  0.00  0.00    +0.000 N 
ATOM     32  C   UNL     1      -0.671  10.155  23.191  0.00  0.00    +0.000 C 
ATOM     33  N   UNL     1       0.222  11.633  21.500  0.00  0.00    +0.000 NA
ENDBRANCH  12  28
TORSDOF 3
ENDMDL
MODEL 8
REMARK VINA RESULT:      -6.0      5.530      9.572
REMARK  Name = 
REMARK  7 active torsions:
REMARK  status: ('A' for Active; 'I' for Inactive)
REMARK    1  A    between atoms: C_1  and  C_2
REMARK    2  A    between atoms: C_5  and  C_6
REMARK    3  A    between atoms: C_7  and  C_8
REMARK    4  A    between atoms: N_10  and  C_11
REMARK    5  A    between atoms: C_19  and  C_20
REMARK    6  A    between atoms: N_23  and  C_24
REMARK    7  A    between atoms: N_30  and  C_31
REMARK                            x       y       z     vdW  Elec       q    Type
REMARK                         _______ _______ _______ _____ _____    ______ ____
ROOT
ATOM      1  C   UNL     1      -3.405  13.429  20.450  0.00  0.00    +0.000 A 
ATOM      2  N   UNL     1      -4.651  12.992  20.039  0.00  0.00    +0.000 NA
ATOM      3  N   UNL     1      -4.393  12.041  19.172  0.00  0.00    +0.000 N 
ATOM      4  C   UNL     1      -5.207  11.227  18.328  0.00  0.00    +0.000 C 
ATOM      5  C   UNL     1      -3.151  11.854  19.048  0.00  0.00    +0.000 A 
ATOM      6  N   UNL     1      -2.666  10.985  18.336  0.00  0.00    +0.000 NA
ATOM      7  C   UNL     1      -2.239  10.147  17.651  0.00  0.00    +0.000 A 
ATOM      8  N   UNL     1      -1.214  10.681  18.235  0.00  0.00    +0.000 NA
ATOM      9  C   UNL     1      -1.065  11.976  19.379  0.00  0.00    +0.000 A 
ATOM     10  N   UNL     1       0.211  12.553  19.447  0.00  0.00    +0.000 N 
ATOM     11  C   UNL     1       1.361  11.715  19.153  0.00  0.00    +0.000 C 
ATOM     12  C   UNL     1       1.840  12.843  18.216  0.00  0.00    +0.000 C 
ATOM     13  C   UNL     1       0.389  13.264  18.200  0.00  0.00    +0.000 C 
ATOM     14  C   UNL     1      -2.333  12.583  19.804  0.00  0.00    +0.000 A 
ENDROOT
BRANCH   1  16
ATOM     15  C   UNL     1      -3.037  15.845  21.505  0.00  0.00    +0.000 A 
ATOM     16  C   UNL     1      -3.497  14.536  21.504  0.00  0.00    +0.000 A 
ATOM     17  C   UNL     1      -4.204  14.457  22.754  0.00  0.00    +0.000 A 
ATOM     18  N   UNL     1      -4.086  15.560  23.519  0.00  0.00    +0.000 NA
ATOM     19  N   UNL     1      -3.354  16.399  22.745  0.00  0.00    +0.000 N 
ATOM     20  C   UNL     1      -2.901  17.673  23.289  0.00  0.00    +0.000 C 
BRANCH  15  25
ATOM     21  C   UNL     1      -0.212  18.446  17.224  0.00  0.00    +0.000 C 
ATOM     22  C   UNL     1      -0.958  17.768  18.329  0.00  0.00    +0.000 A 
ATOM     23  C   UNL     1      -2.257  18.139  18.655  0.00  0.00    +0.000 A 
ATOM     24  C   UNL     1      -2.931  17.514  19.701  0.00  0.00    +0.000 A 
ATOM     25  C   UNL     1      -2.310  16.517  20.450  0.00  0.00    +0.000 A 
ATOM     26  C   UNL     1      -1.023  16.127  20.107  0.00  0.00    +0.000 A 
ATOM     27  C   UNL     1      -0.350  16.752  19.061  0.00  0.00    +0.000 A 
ENDBRANCH  15  25
ENDBRANCH   1  16
BRANCH  12  28
ATOM     28  C   UNL     1       2.689  13.915  18.823  0.00  0.00    +0.000 A 
ATOM     29  C   UNL     1       2.968  15.129  18.189  0.00  0.00    +0.000 A 
ATOM     30  C   UNL     1       3.782  15.785  19.066  0.00  0.00    +0.000 A 
ATOM     31  N   UNL     1       3.972  14.943  20.123  0.00  0.00    +0.000 N 
ATOM     32  C   UNL     1       4.876  15.136  21.231  0.00  0.00    +0.000 C 
ATOM     33  N   UNL     1       3.277  13.793  20.015  0.00  0.00    +0.000 NA
ENDBRANCH  12  28
TORSDOF 3
ENDMDL
MODEL 9
REMARK VINA RESULT:      -6.0      1.987      6.895
REMARK  Name = 
REMARK  7 active torsions:
REMARK  status: ('A' for Active; 'I' for Inactive)
REMARK    1  A    between atoms: C_1  and  C_2
REMARK    2  A    between atoms: C_5  and  C_6
REMARK    3  A    between atoms: C_7  and  C_8
REMARK    4  A    between atoms: N_10  and  C_11
REMARK    5  A    between atoms: C_19  and  C_20
REMARK    6  A    between atoms: N_23  and  C_24
REMARK    7  A    between atoms: N_30  and  C_31
REMARK                            x       y       z     vdW  Elec       q    Type
REMARK                         _______ _______ _______ _____ _____    ______ ____
ROOT
ATOM      1  C   UNL     1       8.482  13.548  21.110  0.00  0.00    +0.000 A 
ATOM      2  N   UNL     1       9.827  13.293  20.910  0.00  0.00    +0.000 NA
ATOM      3  N   UNL     1      10.138  14.002  19.850  0.00  0.00    +0.000 N 
ATOM      4  C   UNL     1      11.326  14.145  19.072  0.00  0.00    +0.000 C 
ATOM      5  C   UNL     1       9.146  14.657  19.426  0.00  0.00    +0.000 A 
ATOM      6  N   UNL     1       9.202  15.431  18.479  0.00  0.00    +0.000 NA
ATOM      7  C   UNL     1       9.292  16.159  17.577  0.00  0.00    +0.000 A 
ATOM      8  N   UNL     1       8.078  16.282  18.009  0.00  0.00    +0.000 NA
ATOM      9  C   UNL     1       7.218  15.519  19.308  0.00  0.00    +0.000 A 
ATOM     10  N   UNL     1       5.821  15.575  19.198  0.00  0.00    +0.000 N 
ATOM     11  C   UNL     1       5.230  16.713  18.513  0.00  0.00    +0.000 C 
ATOM     12  C   UNL     1       4.394  15.691  17.714  0.00  0.00    +0.000 C 
ATOM     13  C   UNL     1       5.477  14.708  18.092  0.00  0.00    +0.000 C 
ATOM     14  C   UNL     1       8.004  14.566  20.103  0.00  0.00    +0.000 A 
ENDROOT
BRANCH   1  16
ATOM     15  C   UNL     1       6.799  13.046  23.110  0.00  0.00    +0.000 A 
ATOM     16  C   UNL     1       7.932  12.823  22.342  0.00  0.00    +0.000 A 
ATOM     17  C   UNL     1       8.476  11.630  22.934  0.00  0.00    +0.000 A 
ATOM     18  N   UNL     1       7.823  11.225  24.042  0.00  0.00    +0.000 NA
ATOM     19  N   UNL     1       6.805  12.113  24.147  0.00  0.00    +0.000 N 
ATOM     20  C   UNL     1       5.935  12.082  25.316  0.00  0.00    +0.000 C 
BRANCH  15  25
ATOM     21  C   UNL     1       2.905  17.192  22.255  0.00  0.00    +0.000 C 
ATOM     22  C   UNL     1       3.917  16.111  22.464  0.00  0.00    +0.000 A 
ATOM     23  C   UNL     1       3.724  14.834  21.949  0.00  0.00    +0.000 A 
ATOM     24  C   UNL     1       4.665  13.831  22.171  0.00  0.00    +0.000 A 
ATOM     25  C   UNL     1       5.808  14.085  22.925  0.00  0.00    +0.000 A 
ATOM     26  C   UNL     1       6.015  15.366  23.416  0.00  0.00    +0.000 A 
ATOM     27  C   UNL     1       5.074  16.369  23.194  0.00  0.00    +0.000 A 
ENDBRANCH  15  25
ENDBRANCH   1  16
BRANCH  12  28
ATOM     28  C   UNL     1       3.083  15.277  18.303  0.00  0.00    +0.000 A 
ATOM     29  C   UNL     1       2.100  16.184  18.711  0.00  0.00    +0.000 A 
ATOM     30  C   UNL     1       1.101  15.395  19.203  0.00  0.00    +0.000 A 
ATOM     31  N   UNL     1       1.540  14.106  19.105  0.00  0.00    +0.000 N 
ATOM     32  C   UNL     1       0.893  12.930  19.632  0.00  0.00    +0.000 C 
ATOM     33  N   UNL     1       2.749  14.003  18.517  0.00  0.00    +0.000 NA
ENDBRANCH  12  28
TORSDOF 3
ENDMDL
