MODEL 1
REMARK VINA RESULT:      -8.6      0.000      0.000
REMARK  Name = 
REMARK  9 active torsions:
REMARK  status: ('A' for Active; 'I' for Inactive)
REMARK    1  A    between atoms: C_1  and  C_2
REMARK    2  A    between atoms: C_2  and  O_3
REMARK    3  A    between atoms: O_3  and  C_4
REMARK    4  A    between atoms: C_4  and  C_6
REMARK    5  A    between atoms: C_8  and  O_9
REMARK    6  A    between atoms: O_9  and  C_10
REMARK    7  A    between atoms: C_10  and  C_12
REMARK    8  A    between atoms: C_15  and  C_16
REMARK    9  A    between atoms: N_19  and  C_20
REMARK                            x       y       z     vdW  Elec       q    Type
REMARK                         _______ _______ _______ _____ _____    ______ ____
ROOT
ATOM      1  C   UNL     1       5.401   6.063  17.332  0.00  0.00    +0.000 A 
ATOM      2  C   UNL     1       4.498   7.147  17.222  0.00  0.00    +0.000 A 
ATOM      3  C   UNL     1       3.300   6.714  17.758  0.00  0.00    +0.000 A 
ATOM      4  N   UNL     1       3.565   5.440  18.254  0.00  0.00    +0.000 N 
ATOM      5  N   UNL     1       4.844   5.055  18.025  0.00  0.00    +0.000 NA
ENDROOT
BRANCH   4   6
ATOM      6  C   UNL     1       2.704   4.590  19.003  0.00  0.00    +0.000 A 
ATOM      7  C   UNL     1       1.840   3.688  18.372  0.00  0.00    +0.000 A 
ATOM      8  C   UNL     1       0.927   2.953  19.127  0.00  0.00    +0.000 A 
ATOM      9  C   UNL     1       0.867   3.121  20.509  0.00  0.00    +0.000 A 
ATOM     10  C   UNL     1       1.751   3.990  21.148  0.00  0.00    +0.000 A 
ATOM     11  C   UNL     1       2.687   4.705  20.401  0.00  0.00    +0.000 A 
ENDBRANCH   4   6
BRANCH   1  12
ATOM     12  C   UNL     1       6.742   5.961  16.731  0.00  0.00    +0.000 C 
ATOM     13  O   UNL     1       7.539   6.897  16.720  0.00  0.00    +0.000 OA
BRANCH  12  14
ATOM     14  O   UNL     1       6.943   4.776  16.082  0.00  0.00    +0.000 OA
BRANCH  14  16
ATOM     15  C   UNL     1       5.950   4.129  14.004  0.00  0.00    +0.000 C 
ATOM     16  C   UNL     1       7.110   4.858  14.660  0.00  0.00    +0.000 C 
ENDBRANCH  14  16
ENDBRANCH  12  14
ENDBRANCH   1  12
BRANCH   3  17
ATOM     17  O   UNL     1       2.096   7.271  17.882  0.00  0.00    +0.000 OA
BRANCH  17  18
ATOM     18  C   UNL     1       1.971   8.609  18.002  0.00  0.00    +0.000 C 
ATOM     19  O   UNL     1       2.368   9.470  17.232  0.00  0.00    +0.000 OA
BRANCH  18  20
ATOM     20  C   UNL     1       1.350   8.938  19.321  0.00  0.00    +0.000 A 
ATOM     21  C   UNL     1       0.487  10.028  19.492  0.00  0.00    +0.000 A 
ATOM     22  C   UNL     1      -0.071  10.294  20.751  0.00  0.00    +0.000 A 
ATOM     23  C   UNL     1       0.220   9.476  21.850  0.00  0.00    +0.000 A 
ATOM     24  C   UNL     1      -0.399   9.732  23.196  0.00  0.00    +0.000 C 
ATOM     25  C   UNL     1       1.090   8.395  21.676  0.00  0.00    +0.000 A 
ATOM     26  C   UNL     1       1.661   8.133  20.425  0.00  0.00    +0.000 A 
ENDBRANCH  18  20
ENDBRANCH  17  18
ENDBRANCH   3  17
TORSDOF 7
ENDMDL
MODEL 2
REMARK VINA RESULT:      -8.6      0.313      1.374
REMARK  Name = 
REMARK  9 active torsions:
REMARK  status: ('A' for Active; 'I' for Inactive)
REMARK    1  A    between atoms: C_1  and  C_2
REMARK    2  A    between atoms: C_2  and  O_3
REMARK    3  A    between atoms: O_3  and  C_4
REMARK    4  A    between atoms: C_4  and  C_6
REMARK    5  A    between atoms: C_8  and  O_9
REMARK    6  A    between atoms: O_9  and  C_10
REMARK    7  A    between atoms: C_10  and  C_12
REMARK    8  A    between atoms: C_15  and  C_16
REMARK    9  A    between atoms: N_19  and  C_20
REMARK                            x       y       z     vdW  Elec       q    Type
REMARK                         _______ _______ _______ _____ _____    ______ ____
ROOT
ATOM      1  C   UNL     1       5.455   5.794  17.575  0.00  0.00    +0.000 A 
ATOM      2  C   UNL     1       4.570   6.874  17.341  0.00  0.00    +0.000 A 
ATOM      3  C   UNL     1       3.352   6.504  17.878  0.00  0.00    +0.000 A 
ATOM      4  N   UNL     1       3.585   5.277  18.496  0.00  0.00    +0.000 N 
ATOM      5  N   UNL     1       4.866   4.860  18.340  0.00  0.00    +0.000 NA
ENDROOT
BRANCH   4   6
ATOM      6  C   UNL     1       2.693   4.509  19.293  0.00  0.00    +0.000 A 
ATOM      7  C   UNL     1       2.766   4.523  20.690  0.00  0.00    +0.000 A 
ATOM      8  C   UNL     1       1.953   3.672  21.439  0.00  0.00    +0.000 A 
ATOM      9  C   UNL     1       1.074   2.800  20.798  0.00  0.00    +0.000 A 
ATOM     10  C   UNL     1       0.969   2.810  19.407  0.00  0.00    +0.000 A 
ATOM     11  C   UNL     1       1.757   3.681  18.654  0.00  0.00    +0.000 A 
ENDBRANCH   4   6
BRANCH   1  12
ATOM     12  C   UNL     1       6.811   5.624  17.024  0.00  0.00    +0.000 C 
ATOM     13  O   UNL     1       7.716   6.432  17.223  0.00  0.00    +0.000 OA
BRANCH  12  14
ATOM     14  O   UNL     1       6.908   4.558  16.176  0.00  0.00    +0.000 OA
BRANCH  14  16
ATOM     15  C   UNL     1       5.755   4.118  14.127  0.00  0.00    +0.000 C 
ATOM     16  C   UNL     1       6.907   4.867  14.775  0.00  0.00    +0.000 C 
ENDBRANCH  14  16
ENDBRANCH  12  14
ENDBRANCH   1  12
BRANCH   3  17
ATOM     17  O   UNL     1       2.152   7.083  17.917  0.00  0.00    +0.000 OA
BRANCH  17  18
ATOM     18  C   UNL     1       2.043   8.423  18.026  0.00  0.00    +0.000 C 
ATOM     19  O   UNL     1       2.457   9.274  17.252  0.00  0.00    +0.000 OA
BRANCH  18  20
ATOM     20  C   UNL     1       1.418   8.770  19.338  0.00  0.00    +0.000 A 
ATOM     21  C   UNL     1       1.655   8.025  20.500  0.00  0.00    +0.000 A 
ATOM     22  C   UNL     1       1.044   8.391  21.709  0.00  0.00    +0.000 A 
ATOM     23  C   UNL     1       0.197   9.504  21.774  0.00  0.00    +0.000 A 
ATOM     24  C   UNL     1      -0.436   9.926  23.070  0.00  0.00    +0.000 C 
ATOM     25  C   UNL     1      -0.044  10.239  20.608  0.00  0.00    +0.000 A 
ATOM     26  C   UNL     1       0.552   9.869  19.396  0.00  0.00    +0.000 A 
ENDBRANCH  18  20
ENDBRANCH  17  18
ENDBRANCH   3  17
TORSDOF 7
ENDMDL
MODEL 3
REMARK VINA RESULT:      -8.5      0.872      2.013
REMARK  Name = 
REMARK  9 active torsions:
REMARK  status: ('A' for Active; 'I' for Inactive)
REMARK    1  A    between atoms: C_1  and  C_2
REMARK    2  A    between atoms: C_2  and  O_3
REMARK    3  A    between atoms: O_3  and  C_4
REMARK    4  A    between atoms: C_4  and  C_6
REMARK    5  A    between atoms: C_8  and  O_9
REMARK    6  A    between atoms: O_9  and  C_10
REMARK    7  A    between atoms: C_10  and  C_12
REMARK    8  A    between atoms: C_15  and  C_16
REMARK    9  A    between atoms: N_19  and  C_20
REMARK                            x       y       z     vdW  Elec       q    Type
REMARK                         _______ _______ _______ _____ _____    ______ ____
ROOT
ATOM      1  C   UNL     1       5.188   6.032  17.194  0.00  0.00    +0.000 A 
ATOM      2  C   UNL     1       4.297   7.131  17.156  0.00  0.00    +0.000 A 
ATOM      3  C   UNL     1       3.145   6.721  17.800  0.00  0.00    +0.000 A 
ATOM      4  N   UNL     1       3.432   5.446  18.282  0.00  0.00    +0.000 N 
ATOM      5  N   UNL     1       4.679   5.038  17.942  0.00  0.00    +0.000 NA
ENDROOT
BRANCH   4   6
ATOM      6  C   UNL     1       2.627   4.617  19.111  0.00  0.00    +0.000 A 
ATOM      7  C   UNL     1       2.640   4.746  20.504  0.00  0.00    +0.000 A 
ATOM      8  C   UNL     1       1.929   3.844  21.295  0.00  0.00    +0.000 A 
ATOM      9  C   UNL     1       1.213   2.806  20.700  0.00  0.00    +0.000 A 
ATOM     10  C   UNL     1       1.165   2.695  19.310  0.00  0.00    +0.000 A 
ATOM     11  C   UNL     1       1.848   3.614  18.514  0.00  0.00    +0.000 A 
ENDBRANCH   4   6
BRANCH   1  12
ATOM     12  C   UNL     1       6.468   5.903  16.475  0.00  0.00    +0.000 C 
ATOM     13  O   UNL     1       6.539   5.848  15.249  0.00  0.00    +0.000 OA
BRANCH  12  14
ATOM     14  O   UNL     1       7.530   5.719  17.314  0.00  0.00    +0.000 OA
BRANCH  14  16
ATOM     15  C   UNL     1       7.999   8.039  17.658  0.00  0.00    +0.000 C 
ATOM     16  C   UNL     1       7.705   6.711  18.334  0.00  0.00    +0.000 C 
ENDBRANCH  14  16
ENDBRANCH  12  14
ENDBRANCH   1  12
BRANCH   3  17
ATOM     17  O   UNL     1       1.966   7.300  18.027  0.00  0.00    +0.000 OA
BRANCH  17  18
ATOM     18  C   UNL     1       1.874   8.641  18.148  0.00  0.00    +0.000 C 
ATOM     19  O   UNL     1       2.315   9.492  17.391  0.00  0.00    +0.000 OA
BRANCH  18  20
ATOM     20  C   UNL     1       1.229   8.983  19.451  0.00  0.00    +0.000 A 
ATOM     21  C   UNL     1       1.514   8.289  20.634  0.00  0.00    +0.000 A 
ATOM     22  C   UNL     1       0.882   8.649  21.833  0.00  0.00    +0.000 A 
ATOM     23  C   UNL     1      -0.035   9.707  21.868  0.00  0.00    +0.000 A 
ATOM     24  C   UNL     1      -0.693  10.124  23.153  0.00  0.00    +0.000 C 
ATOM     25  C   UNL     1      -0.324  10.392  20.683  0.00  0.00    +0.000 A 
ATOM     26  C   UNL     1       0.294  10.026  19.480  0.00  0.00    +0.000 A 
ENDBRANCH  18  20
ENDBRANCH  17  18
ENDBRANCH   3  17
TORSDOF 7
ENDMDL
MODEL 4
REMARK VINA RESULT:      -8.4      1.008      1.505
REMARK  Name = 
REMARK  9 active torsions:
REMARK  status: ('A' for Active; 'I' for Inactive)
REMARK    1  A    between atoms: C_1  and  C_2
REMARK    2  A    between atoms: C_2  and  O_3
REMARK    3  A    between atoms: O_3  and  C_4
REMARK    4  A    between atoms: C_4  and  C_6
REMARK    5  A    between atoms: C_8  and  O_9
REMARK    6  A    between atoms: O_9  and  C_10
REMARK    7  A    between atoms: C_10  and  C_12
REMARK    8  A    between atoms: C_15  and  C_16
REMARK    9  A    between atoms: N_19  and  C_20
REMARK                            x       y       z     vdW  Elec       q    Type
REMARK                         _______ _______ _______ _____ _____    ______ ____
ROOT
ATOM      1  C   UNL     1       5.196   5.392  16.287  0.00  0.00    +0.000 A 
ATOM      2  C   UNL     1       5.074   6.658  16.907  0.00  0.00    +0.000 A 
ATOM      3  C   UNL     1       4.040   6.548  17.818  0.00  0.00    +0.000 A 
ATOM      4  N   UNL     1       3.663   5.208  17.779  0.00  0.00    +0.000 N 
ATOM      5  N   UNL     1       4.382   4.499  16.875  0.00  0.00    +0.000 NA
ENDROOT
BRANCH   4   6
ATOM      6  C   UNL     1       2.716   4.536  18.600  0.00  0.00    +0.000 A 
ATOM      7  C   UNL     1       2.841   4.517  19.993  0.00  0.00    +0.000 A 
ATOM      8  C   UNL     1       1.962   3.755  20.762  0.00  0.00    +0.000 A 
ATOM      9  C   UNL     1       0.964   3.003  20.144  0.00  0.00    +0.000 A 
ATOM     10  C   UNL     1       0.810   3.048  18.759  0.00  0.00    +0.000 A 
ATOM     11  C   UNL     1       1.666   3.834  17.987  0.00  0.00    +0.000 A 
ENDBRANCH   4   6
BRANCH   1  12
ATOM     12  C   UNL     1       6.022   5.055  15.114  0.00  0.00    +0.000 C 
ATOM     13  O   UNL     1       7.150   5.511  14.942  0.00  0.00    +0.000 OA
BRANCH  12  14
ATOM     14  O   UNL     1       5.350   4.303  14.193  0.00  0.00    +0.000 OA
BRANCH  14  16
ATOM     15  C   UNL     1       5.220   3.331  12.011  0.00  0.00    +0.000 C 
ATOM     16  C   UNL     1       6.147   3.730  13.148  0.00  0.00    +0.000 C 
ENDBRANCH  14  16
ENDBRANCH  12  14
ENDBRANCH   1  12
BRANCH   3  17
ATOM     17  O   UNL     1       3.449   7.412  18.644  0.00  0.00    +0.000 OA
BRANCH  17  18
ATOM     18  C   UNL     1       2.444   8.198  18.206  0.00  0.00    +0.000 C 
ATOM     19  O   UNL     1       2.230   8.574  17.063  0.00  0.00    +0.000 OA
BRANCH  18  20
ATOM     20  C   UNL     1       1.637   8.674  19.370  0.00  0.00    +0.000 A 
ATOM     21  C   UNL     1       0.874   9.848  19.323  0.00  0.00    +0.000 A 
ATOM     22  C   UNL     1       0.133  10.252  20.443  0.00  0.00    +0.000 A 
ATOM     23  C   UNL     1       0.139   9.490  21.618  0.00  0.00    +0.000 A 
ATOM     24  C   UNL     1      -0.678   9.896  22.812  0.00  0.00    +0.000 C 
ATOM     25  C   UNL     1       0.909   8.324  21.663  0.00  0.00    +0.000 A 
ATOM     26  C   UNL     1       1.663   7.924  20.553  0.00  0.00    +0.000 A 
ENDBRANCH  18  20
ENDBRANCH  17  18
ENDBRANCH   3  17
TORSDOF 7
ENDMDL
MODEL 5
REMARK VINA RESULT:      -8.4      0.573      1.107
REMARK  Name = 
REMARK  9 active torsions:
REMARK  status: ('A' for Active; 'I' for Inactive)
REMARK    1  A    between atoms: C_1  and  C_2
REMARK    2  A    between atoms: C_2  and  O_3
REMARK    3  A    between atoms: O_3  and  C_4
REMARK    4  A    between atoms: C_4  and  C_6
REMARK    5  A    between atoms: C_8  and  O_9
REMARK    6  A    between atoms: O_9  and  C_10
REMARK    7  A    between atoms: C_10  and  C_12
REMARK    8  A    between atoms: C_15  and  C_16
REMARK    9  A    between atoms: N_19  and  C_20
REMARK                            x       y       z     vdW  Elec       q    Type
REMARK                         _______ _______ _______ _____ _____    ______ ____
ROOT
ATOM      1  C   UNL     1       5.599   6.230  17.907  0.00  0.00    +0.000 A 
ATOM      2  C   UNL     1       4.644   7.232  17.609  0.00  0.00    +0.000 A 
ATOM      3  C   UNL     1       3.415   6.721  17.977  0.00  0.00    +0.000 A 
ATOM      4  N   UNL     1       3.694   5.492  18.569  0.00  0.00    +0.000 N 
ATOM      5  N   UNL     1       5.019   5.205  18.555  0.00  0.00    +0.000 NA
ENDROOT
BRANCH   4   6
ATOM      6  C   UNL     1       2.794   4.602  19.218  0.00  0.00    +0.000 A 
ATOM      7  C   UNL     1       1.866   3.846  18.494  0.00  0.00    +0.000 A 
ATOM      8  C   UNL     1       0.922   3.071  19.166  0.00  0.00    +0.000 A 
ATOM      9  C   UNL     1       0.894   3.055  20.560  0.00  0.00    +0.000 A 
ATOM     10  C   UNL     1       1.840   3.776  21.287  0.00  0.00    +0.000 A 
ATOM     11  C   UNL     1       2.807   4.528  20.619  0.00  0.00    +0.000 A 
ENDBRANCH   4   6
BRANCH   1  12
ATOM     12  C   UNL     1       7.021   6.217  17.520  0.00  0.00    +0.000 C 
ATOM     13  O   UNL     1       7.914   6.626  18.259  0.00  0.00    +0.000 OA
BRANCH  12  14
ATOM     14  O   UNL     1       7.214   5.831  16.225  0.00  0.00    +0.000 OA
BRANCH  14  16
ATOM     15  C   UNL     1       6.569   4.321  14.485  0.00  0.00    +0.000 C 
ATOM     16  C   UNL     1       6.987   4.444  15.941  0.00  0.00    +0.000 C 
ENDBRANCH  14  16
ENDBRANCH  12  14
ENDBRANCH   1  12
BRANCH   3  17
ATOM     17  O   UNL     1       2.167   7.182  17.891  0.00  0.00    +0.000 OA
BRANCH  17  18
ATOM     18  C   UNL     1       1.916   8.503  18.002  0.00  0.00    +0.000 C 
ATOM     19  O   UNL     1       2.190   9.387  17.204  0.00  0.00    +0.000 OA
BRANCH  18  20
ATOM     20  C   UNL     1       1.331   8.790  19.347  0.00  0.00    +0.000 A 
ATOM     21  C   UNL     1       1.635   8.019  20.476  0.00  0.00    +0.000 A 
ATOM     22  C   UNL     1       1.059   8.330  21.717  0.00  0.00    +0.000 A 
ATOM     23  C   UNL     1       0.181   9.413  21.847  0.00  0.00    +0.000 A 
ATOM     24  C   UNL     1      -0.415   9.776  23.178  0.00  0.00    +0.000 C 
ATOM     25  C   UNL     1      -0.126  10.174  20.715  0.00  0.00    +0.000 A 
ATOM     26  C   UNL     1       0.434   9.859  19.470  0.00  0.00    +0.000 A 
ENDBRANCH  18  20
ENDBRANCH  17  18
ENDBRANCH   3  17
TORSDOF 7
ENDMDL
MODEL 6
REMARK VINA RESULT:      -8.3      1.022      1.501
REMARK  Name = 
REMARK  9 active torsions:
REMARK  status: ('A' for Active; 'I' for Inactive)
REMARK    1  A    between atoms: C_1  and  C_2
REMARK    2  A    between atoms: C_2  and  O_3
REMARK    3  A    between atoms: O_3  and  C_4
REMARK    4  A    between atoms: C_4  and  C_6
REMARK    5  A    between atoms: C_8  and  O_9
REMARK    6  A    between atoms: O_9  and  C_10
REMARK    7  A    between atoms: C_10  and  C_12
REMARK    8  A    between atoms: C_15  and  C_16
REMARK    9  A    between atoms: N_19  and  C_20
REMARK                            x       y       z     vdW  Elec       q    Type
REMARK                         _______ _______ _______ _____ _____    ______ ____
ROOT
ATOM      1  C   UNL     1       5.302   5.201  16.381  0.00  0.00    +0.000 A 
ATOM      2  C   UNL     1       5.103   6.452  17.013  0.00  0.00    +0.000 A 
ATOM      3  C   UNL     1       4.064   6.275  17.907  0.00  0.00    +0.000 A 
ATOM      4  N   UNL     1       3.760   4.918  17.848  0.00  0.00    +0.000 N 
ATOM      5  N   UNL     1       4.528   4.259  16.946  0.00  0.00    +0.000 NA
ENDROOT
BRANCH   4   6
ATOM      6  C   UNL     1       2.839   4.186  18.647  0.00  0.00    +0.000 A 
ATOM      7  C   UNL     1       1.853   3.378  18.070  0.00  0.00    +0.000 A 
ATOM      8  C   UNL     1       0.894   2.765  18.875  0.00  0.00    +0.000 A 
ATOM      9  C   UNL     1       0.909   2.964  20.255  0.00  0.00    +0.000 A 
ATOM     10  C   UNL     1       1.911   3.737  20.840  0.00  0.00    +0.000 A 
ATOM     11  C   UNL     1       2.892   4.326  20.042  0.00  0.00    +0.000 A 
ENDBRANCH   4   6
BRANCH   1  12
ATOM     12  C   UNL     1       6.160   4.924  15.215  0.00  0.00    +0.000 C 
ATOM     13  O   UNL     1       7.191   5.553  14.984  0.00  0.00    +0.000 OA
BRANCH  12  14
ATOM     14  O   UNL     1       5.620   3.999  14.368  0.00  0.00    +0.000 OA
BRANCH  14  16
ATOM     15  C   UNL     1       5.309   3.293  12.105  0.00  0.00    +0.000 C 
ATOM     16  C   UNL     1       6.310   3.803  13.127  0.00  0.00    +0.000 C 
ENDBRANCH  14  16
ENDBRANCH  12  14
ENDBRANCH   1  12
BRANCH   3  17
ATOM     17  O   UNL     1       3.416   7.097  18.734  0.00  0.00    +0.000 OA
BRANCH  17  18
ATOM     18  C   UNL     1       2.535   7.997  18.252  0.00  0.00    +0.000 C 
ATOM     19  O   UNL     1       2.438   8.410  17.106  0.00  0.00    +0.000 OA
BRANCH  18  20
ATOM     20  C   UNL     1       1.715   8.546  19.374  0.00  0.00    +0.000 A 
ATOM     21  C   UNL     1       1.659   7.930  20.631  0.00  0.00    +0.000 A 
ATOM     22  C   UNL     1       0.874   8.486  21.653  0.00  0.00    +0.000 A 
ATOM     23  C   UNL     1       0.143   9.660  21.435  0.00  0.00    +0.000 A 
ATOM     24  C   UNL     1      -0.674  10.282  22.532  0.00  0.00    +0.000 C 
ATOM     25  C   UNL     1       0.195  10.265  20.175  0.00  0.00    +0.000 A 
ATOM     26  C   UNL     1       0.965   9.707  19.148  0.00  0.00    +0.000 A 
ENDBRANCH  18  20
ENDBRANCH  17  18
ENDBRANCH   3  17
TORSDOF 7
ENDMDL
MODEL 7
REMARK VINA RESULT:      -8.2      0.791      1.539
REMARK  Name = 
REMARK  9 active torsions:
REMARK  status: ('A' for Active; 'I' for Inactive)
REMARK    1  A    between atoms: C_1  and  C_2
REMARK    2  A    between atoms: C_2  and  O_3
REMARK    3  A    between atoms: O_3  and  C_4
REMARK    4  A    between atoms: C_4  and  C_6
REMARK    5  A    between atoms: C_8  and  O_9
REMARK    6  A    between atoms: O_9  and  C_10
REMARK    7  A    between atoms: C_10  and  C_12
REMARK    8  A    between atoms: C_15  and  C_16
REMARK    9  A    between atoms: N_19  and  C_20
REMARK                            x       y       z     vdW  Elec       q    Type
REMARK                         _______ _______ _______ _____ _____    ______ ____
ROOT
ATOM      1  C   UNL     1       5.322   5.559  17.108  0.00  0.00    +0.000 A 
ATOM      2  C   UNL     1       4.466   6.685  17.040  0.00  0.00    +0.000 A 
ATOM      3  C   UNL     1       3.314   6.340  17.720  0.00  0.00    +0.000 A 
ATOM      4  N   UNL     1       3.568   5.078  18.250  0.00  0.00    +0.000 N 
ATOM      5  N   UNL     1       4.795   4.615  17.906  0.00  0.00    +0.000 NA
ENDROOT
BRANCH   4   6
ATOM      6  C   UNL     1       2.753   4.310  19.127  0.00  0.00    +0.000 A 
ATOM      7  C   UNL     1       1.724   3.496  18.642  0.00  0.00    +0.000 A 
ATOM      8  C   UNL     1       0.869   2.847  19.532  0.00  0.00    +0.000 A 
ATOM      9  C   UNL     1       1.033   3.014  20.907  0.00  0.00    +0.000 A 
ATOM     10  C   UNL     1       2.080   3.794  21.397  0.00  0.00    +0.000 A 
ATOM     11  C   UNL     1       2.957   4.420  20.511  0.00  0.00    +0.000 A 
ENDBRANCH   4   6
BRANCH   1  12
ATOM     12  C   UNL     1       6.583   5.359  16.374  0.00  0.00    +0.000 C 
ATOM     13  O   UNL     1       6.640   4.760  15.302  0.00  0.00    +0.000 OA
BRANCH  12  14
ATOM     14  O   UNL     1       7.676   5.787  17.071  0.00  0.00    +0.000 OA
BRANCH  14  16
ATOM     15  C   UNL     1       7.914   8.095  17.654  0.00  0.00    +0.000 C 
ATOM     16  C   UNL     1       7.423   6.734  18.118  0.00  0.00    +0.000 C 
ENDBRANCH  14  16
ENDBRANCH  12  14
ENDBRANCH   1  12
BRANCH   3  17
ATOM     17  O   UNL     1       2.158   6.967  17.944  0.00  0.00    +0.000 OA
BRANCH  17  18
ATOM     18  C   UNL     1       2.113   8.313  18.017  0.00  0.00    +0.000 C 
ATOM     19  O   UNL     1       2.588   9.122  17.235  0.00  0.00    +0.000 OA
BRANCH  18  20
ATOM     20  C   UNL     1       1.473   8.723  19.304  0.00  0.00    +0.000 A 
ATOM     21  C   UNL     1       0.701   9.886  19.419  0.00  0.00    +0.000 A 
ATOM     22  C   UNL     1       0.120  10.227  20.650  0.00  0.00    +0.000 A 
ATOM     23  C   UNL     1       0.298   9.413  21.775  0.00  0.00    +0.000 A 
ATOM     24  C   UNL     1      -0.348   9.750  23.089  0.00  0.00    +0.000 C 
ATOM     25  C   UNL     1       1.077   8.257  21.657  0.00  0.00    +0.000 A 
ATOM     26  C   UNL     1       1.671   7.920  20.435  0.00  0.00    +0.000 A 
ENDBRANCH  18  20
ENDBRANCH  17  18
ENDBRANCH   3  17
TORSDOF 7
ENDMDL
MODEL 8
REMARK VINA RESULT:      -8.1      0.933      1.819
REMARK  Name = 
REMARK  9 active torsions:
REMARK  status: ('A' for Active; 'I' for Inactive)
REMARK    1  A    between atoms: C_1  and  C_2
REMARK    2  A    between atoms: C_2  and  O_3
REMARK    3  A    between atoms: O_3  and  C_4
REMARK    4  A    between atoms: C_4  and  C_6
REMARK    5  A    between atoms: C_8  and  O_9
REMARK    6  A    between atoms: O_9  and  C_10
REMARK    7  A    between atoms: C_10  and  C_12
REMARK    8  A    between atoms: C_15  and  C_16
REMARK    9  A    between atoms: N_19  and  C_20
REMARK                            x       y       z     vdW  Elec       q    Type
REMARK                         _______ _______ _______ _____ _____    ______ ____
ROOT
ATOM      1  C   UNL     1       5.057   6.061  17.085  0.00  0.00    +0.000 A 
ATOM      2  C   UNL     1       4.240   7.189  17.340  0.00  0.00    +0.000 A 
ATOM      3  C   UNL     1       3.130   6.721  18.017  0.00  0.00    +0.000 A 
ATOM      4  N   UNL     1       3.376   5.366  18.227  0.00  0.00    +0.000 N 
ATOM      5  N   UNL     1       4.556   4.970  17.690  0.00  0.00    +0.000 NA
ENDROOT
BRANCH   4   6
ATOM      6  C   UNL     1       2.600   4.436  18.972  0.00  0.00    +0.000 A 
ATOM      7  C   UNL     1       1.741   3.531  18.340  0.00  0.00    +0.000 A 
ATOM      8  C   UNL     1       0.909   2.711  19.102  0.00  0.00    +0.000 A 
ATOM      9  C   UNL     1       0.926   2.797  20.493  0.00  0.00    +0.000 A 
ATOM     10  C   UNL     1       1.807   3.670  21.130  0.00  0.00    +0.000 A 
ATOM     11  C   UNL     1       2.664   4.470  20.374  0.00  0.00    +0.000 A 
ENDBRANCH   4   6
BRANCH   1  12
ATOM     12  C   UNL     1       6.252   6.008  16.225  0.00  0.00    +0.000 C 
ATOM     13  O   UNL     1       6.186   5.935  15.000  0.00  0.00    +0.000 OA
BRANCH  12  14
ATOM     14  O   UNL     1       7.413   5.916  16.938  0.00  0.00    +0.000 OA
BRANCH  14  16
ATOM     15  C   UNL     1       7.947   8.155  17.588  0.00  0.00    +0.000 C 
ATOM     16  C   UNL     1       7.523   6.780  18.077  0.00  0.00    +0.000 C 
ENDBRANCH  14  16
ENDBRANCH  12  14
ENDBRANCH   1  12
BRANCH   3  17
ATOM     17  O   UNL     1       2.018   7.302  18.467  0.00  0.00    +0.000 OA
BRANCH  17  18
ATOM     18  C   UNL     1       1.823   8.627  18.301  0.00  0.00    +0.000 C 
ATOM     19  O   UNL     1       2.207   9.330  17.379  0.00  0.00    +0.000 OA
BRANCH  18  20
ATOM     20  C   UNL     1       1.136   9.187  19.505  0.00  0.00    +0.000 A 
ATOM     21  C   UNL     1       1.154   8.539  20.746  0.00  0.00    +0.000 A 
ATOM     22  C   UNL     1       0.495   9.106  21.847  0.00  0.00    +0.000 A 
ATOM     23  C   UNL     1      -0.183  10.326  21.724  0.00  0.00    +0.000 A 
ATOM     24  C   UNL     1      -0.864  10.959  22.904  0.00  0.00    +0.000 C 
ATOM     25  C   UNL     1      -0.206  10.964  20.479  0.00  0.00    +0.000 A 
ATOM     26  C   UNL     1       0.439  10.395  19.374  0.00  0.00    +0.000 A 
ENDBRANCH  18  20
ENDBRANCH  17  18
ENDBRANCH   3  17
TORSDOF 7
ENDMDL
MODEL 9
REMARK VINA RESULT:      -8.1      1.139      1.853
REMARK  Name = 
REMARK  9 active torsions:
REMARK  status: ('A' for Active; 'I' for Inactive)
REMARK    1  A    between atoms: C_1  and  C_2
REMARK    2  A    between atoms: C_2  and  O_3
REMARK    3  A    between atoms: O_3  and  C_4
REMARK    4  A    between atoms: C_4  and  C_6
REMARK    5  A    between atoms: C_8  and  O_9
REMARK    6  A    between atoms: O_9  and  C_10
REMARK    7  A    between atoms: C_10  and  C_12
REMARK    8  A    between atoms: C_15  and  C_16
REMARK    9  A    between atoms: N_19  and  C_20
REMARK                            x       y       z     vdW  Elec       q    Type
REMARK                         _______ _______ _______ _____ _____    ______ ____
ROOT
ATOM      1  C   UNL     1       5.668   5.072  16.348  0.00  0.00    +0.000 A 
ATOM      2  C   UNL     1       5.458   6.329  16.965  0.00  0.00    +0.000 A 
ATOM      3  C   UNL     1       4.372   6.174  17.805  0.00  0.00    +0.000 A 
ATOM      4  N   UNL     1       4.048   4.822  17.735  0.00  0.00    +0.000 N 
ATOM      5  N   UNL     1       4.850   4.146  16.876  0.00  0.00    +0.000 NA
ENDROOT
BRANCH   4   6
ATOM      6  C   UNL     1       3.074   4.110  18.488  0.00  0.00    +0.000 A 
ATOM      7  C   UNL     1       3.338   3.665  19.788  0.00  0.00    +0.000 A 
ATOM      8  C   UNL     1       2.407   2.871  20.456  0.00  0.00    +0.000 A 
ATOM      9  C   UNL     1       1.215   2.512  19.828  0.00  0.00    +0.000 A 
ATOM     10  C   UNL     1       0.929   2.983  18.547  0.00  0.00    +0.000 A 
ATOM     11  C   UNL     1       1.843   3.804  17.886  0.00  0.00    +0.000 A 
ENDBRANCH   4   6
BRANCH   1  12
ATOM     12  C   UNL     1       6.580   4.774  15.230  0.00  0.00    +0.000 C 
ATOM     13  O   UNL     1       7.494   5.528  14.899  0.00  0.00    +0.000 OA
BRANCH  12  14
ATOM     14  O   UNL     1       6.218   3.656  14.534  0.00  0.00    +0.000 OA
BRANCH  14  16
ATOM     15  C   UNL     1       6.429   3.392  12.167  0.00  0.00    +0.000 C 
ATOM     16  C   UNL     1       5.535   3.881  13.294  0.00  0.00    +0.000 C 
ENDBRANCH  14  16
ENDBRANCH  12  14
ENDBRANCH   1  12
BRANCH   3  17
ATOM     17  O   UNL     1       3.697   7.010  18.594  0.00  0.00    +0.000 OA
BRANCH  17  18
ATOM     18  C   UNL     1       2.761   7.833  18.077  0.00  0.00    +0.000 C 
ATOM     19  O   UNL     1       2.636   8.188  16.914  0.00  0.00    +0.000 OA
BRANCH  18  20
ATOM     20  C   UNL     1       1.913   8.382  19.178  0.00  0.00    +0.000 A 
ATOM     21  C   UNL     1       1.799   7.748  20.422  0.00  0.00    +0.000 A 
ATOM     22  C   UNL     1       0.989   8.303  21.424  0.00  0.00    +0.000 A 
ATOM     23  C   UNL     1       0.291   9.496  21.200  0.00  0.00    +0.000 A 
ATOM     24  C   UNL     1      -0.552  10.118  22.277  0.00  0.00    +0.000 C 
ATOM     25  C   UNL     1       0.401  10.120  19.953  0.00  0.00    +0.000 A 
ATOM     26  C   UNL     1       1.196   9.562  18.944  0.00  0.00    +0.000 A 
ENDBRANCH  18  20
ENDBRANCH  17  18
ENDBRANCH   3  17
TORSDOF 7
ENDMDL
