MODEL 1
REMARK VINA RESULT:      -6.9      0.000      0.000
REMARK  Name = 
REMARK  10 active torsions:
REMARK  status: ('A' for Active; 'I' for Inactive)
REMARK    1  A    between atoms: C_1  and  O_2
REMARK    2  A    between atoms: O_2  and  C_3
REMARK    3  A    between atoms: C_3  and  C_5
REMARK    4  A    between atoms: C_5  and  C_6
REMARK    5  A    between atoms: C_7  and  C_8
REMARK    6  A    between atoms: C_8  and  C_9
REMARK    7  A    between atoms: C_8  and  C_10
REMARK    8  A    between atoms: C_10  and  O_11
REMARK    9  A    between atoms: C_10  and  C_13
REMARK   10  A    between atoms: O_11  and  C_12
REMARK                            x       y       z     vdW  Elec       q    Type
REMARK                         _______ _______ _______ _____ _____    ______ ____
ROOT
ATOM      1  C   UNL     1       2.901   6.695  18.164  0.00  0.00    +0.000 C 
ATOM      2  C   UNL     1       2.336   7.421  19.143  0.00  0.00    +0.000 C 
ENDROOT
BRANCH   1   3
ATOM      3  C   UNL     1       3.064   5.226  18.147  0.00  0.00    +0.000 C 
ATOM      4  C   UNL     1       4.316   4.547  18.692  0.00  0.00    +0.000 C 
ATOM      5  C   UNL     1       5.590   5.205  19.123  0.00  0.00    +0.000 C 
ATOM      6  C   UNL     1       6.684   4.796  18.141  0.00  0.00    +0.000 C 
ATOM      7  C   UNL     1       6.354   5.243  16.714  0.00  0.00    +0.000 C 
ATOM      8  O   UNL     1       4.963   5.490  16.486  0.00  0.00    +0.000 OA
ATOM      9  C   UNL     1       4.078   4.599  17.205  0.00  0.00    +0.000 C 
BRANCH   3  10
ATOM     10  C   UNL     1       1.754   4.515  18.291  0.00  0.00    +0.000 C 
ATOM     11  O   UNL     1       1.108   4.120  17.332  0.00  0.00    +0.000 OA
BRANCH  10  13
ATOM     12  C   UNL     1       1.009   3.043  19.949  0.00  0.00    +0.000 C 
ATOM     13  O   UNL     1       1.409   4.367  19.601  0.00  0.00    +0.000 OA
ENDBRANCH  10  13
ENDBRANCH   3  10
ENDBRANCH   1   3
BRANCH   2  14
ATOM     14  C   UNL     1       2.004   8.898  19.026  0.00  0.00    +0.000 C 
ATOM     15  C   UNL     1       1.838   9.201  17.527  0.00  0.00    +0.000 C 
BRANCH  14  16
ATOM     16  C   UNL     1       0.740   9.315  19.860  0.00  0.00    +0.000 C 
BRANCH  16  17
ATOM     17  C   UNL     1       0.379  10.802  19.794  0.00  0.00    +0.000 A 
ATOM     18  C   UNL     1       1.101  11.735  20.567  0.00  0.00    +0.000 A 
ATOM     19  C   UNL     1       0.897  13.106  20.441  0.00  0.00    +0.000 A 
ATOM     20  C   UNL     1      -0.046  13.587  19.539  0.00  0.00    +0.000 A 
ATOM     21  C   UNL     1      -0.831  12.684  18.822  0.00  0.00    +0.000 A 
ATOM     22  C   UNL     1      -0.644  11.304  18.968  0.00  0.00    +0.000 A 
ATOM     23 BR   UNL     1      -1.865  10.176  18.044  0.00  0.00    +0.000 Br
ENDBRANCH  16  17
BRANCH  16  24
ATOM     24  O   UNL     1       0.803   8.850  21.218  0.00  0.00    +0.000 OA
ATOM     25  C   UNL     1      -0.438   8.624  21.865  0.00  0.00    +0.000 C 
ENDBRANCH  16  24
ENDBRANCH  14  16
ENDBRANCH   2  14
TORSDOF 7
ENDMDL
MODEL 2
REMARK VINA RESULT:      -6.9      1.968      3.761
REMARK  Name = 
REMARK  10 active torsions:
REMARK  status: ('A' for Active; 'I' for Inactive)
REMARK    1  A    between atoms: C_1  and  O_2
REMARK    2  A    between atoms: O_2  and  C_3
REMARK    3  A    between atoms: C_3  and  C_5
REMARK    4  A    between atoms: C_5  and  C_6
REMARK    5  A    between atoms: C_7  and  C_8
REMARK    6  A    between atoms: C_8  and  C_9
REMARK    7  A    between atoms: C_8  and  C_10
REMARK    8  A    between atoms: C_10  and  O_11
REMARK    9  A    between atoms: C_10  and  C_13
REMARK   10  A    between atoms: O_11  and  C_12
REMARK                            x       y       z     vdW  Elec       q    Type
REMARK                         _______ _______ _______ _____ _____    ______ ____
ROOT
ATOM      1  C   UNL     1       2.459   6.421  18.225  0.00  0.00    +0.000 C 
ATOM      2  C   UNL     1       2.459   7.691  18.666  0.00  0.00    +0.000 C 
ENDROOT
BRANCH   1   3
ATOM      3  C   UNL     1       3.643   5.642  17.805  0.00  0.00    +0.000 C 
ATOM      4  C   UNL     1       3.531   4.195  17.337  0.00  0.00    +0.000 C 
ATOM      5  C   UNL     1       2.325   3.310  17.406  0.00  0.00    +0.000 C 
ATOM      6  C   UNL     1       2.618   2.195  18.407  0.00  0.00    +0.000 C 
ATOM      7  C   UNL     1       2.902   2.755  19.804  0.00  0.00    +0.000 C 
ATOM      8  O   UNL     1       3.313   4.125  19.812  0.00  0.00    +0.000 OA
ATOM      9  C   UNL     1       4.135   4.504  18.683  0.00  0.00    +0.000 C 
BRANCH   3  10
ATOM     10  C   UNL     1       4.692   6.508  17.179  0.00  0.00    +0.000 C 
ATOM     11  O   UNL     1       4.530   7.069  16.106  0.00  0.00    +0.000 OA
BRANCH  10  13
ATOM     12  C   UNL     1       7.029   6.572  17.226  0.00  0.00    +0.000 C 
ATOM     13  O   UNL     1       5.807   6.585  17.960  0.00  0.00    +0.000 OA
ENDBRANCH  10  13
ENDBRANCH   3  10
ENDBRANCH   1   3
BRANCH   2  14
ATOM     14  C   UNL     1       1.252   8.379  19.279  0.00  0.00    +0.000 C 
ATOM     15  C   UNL     1       1.315   8.122  20.795  0.00  0.00    +0.000 C 
BRANCH  14  16
ATOM     16  C   UNL     1       1.176   9.910  18.939  0.00  0.00    +0.000 C 
BRANCH  16  17
ATOM     17  C   UNL     1      -0.222  10.431  18.594  0.00  0.00    +0.000 A 
ATOM     18  C   UNL     1      -0.926   9.885  17.501  0.00  0.00    +0.000 A 
ATOM     19  C   UNL     1      -2.247  10.233  17.231  0.00  0.00    +0.000 A 
ATOM     20  C   UNL     1      -2.904  11.147  18.046  0.00  0.00    +0.000 A 
ATOM     21  C   UNL     1      -2.207  11.763  19.085  0.00  0.00    +0.000 A 
ATOM     22  C   UNL     1      -0.870  11.434  19.341  0.00  0.00    +0.000 A 
ATOM     23 BR   UNL     1       0.012  12.439  20.693  0.00  0.00    +0.000 Br
ENDBRANCH  16  17
BRANCH  16  24
ATOM     24  O   UNL     1       2.140  10.298  17.946  0.00  0.00    +0.000 OA
ATOM     25  C   UNL     1       2.418  11.685  17.846  0.00  0.00    +0.000 C 
ENDBRANCH  16  24
ENDBRANCH  14  16
ENDBRANCH   2  14
TORSDOF 7
ENDMDL
MODEL 3
REMARK VINA RESULT:      -6.8      1.993      3.901
REMARK  Name = 
REMARK  10 active torsions:
REMARK  status: ('A' for Active; 'I' for Inactive)
REMARK    1  A    between atoms: C_1  and  O_2
REMARK    2  A    between atoms: O_2  and  C_3
REMARK    3  A    between atoms: C_3  and  C_5
REMARK    4  A    between atoms: C_5  and  C_6
REMARK    5  A    between atoms: C_7  and  C_8
REMARK    6  A    between atoms: C_8  and  C_9
REMARK    7  A    between atoms: C_8  and  C_10
REMARK    8  A    between atoms: C_10  and  O_11
REMARK    9  A    between atoms: C_10  and  C_13
REMARK   10  A    between atoms: O_11  and  C_12
REMARK                            x       y       z     vdW  Elec       q    Type
REMARK                         _______ _______ _______ _____ _____    ______ ____
ROOT
ATOM      1  C   UNL     1       2.043   6.426  19.012  0.00  0.00    +0.000 C 
ATOM      2  C   UNL     1       2.232   7.633  19.573  0.00  0.00    +0.000 C 
ENDROOT
BRANCH   1   3
ATOM      3  C   UNL     1       3.087   5.420  18.730  0.00  0.00    +0.000 C 
ATOM      4  C   UNL     1       2.743   4.019  18.236  0.00  0.00    +0.000 C 
ATOM      5  C   UNL     1       1.385   3.394  18.150  0.00  0.00    +0.000 C 
ATOM      6  C   UNL     1       1.326   2.257  19.166  0.00  0.00    +0.000 C 
ATOM      7  C   UNL     1       1.547   2.768  20.593  0.00  0.00    +0.000 C 
ATOM      8  O   UNL     1       2.220   4.028  20.666  0.00  0.00    +0.000 OA
ATOM      9  C   UNL     1       3.232   4.218  19.647  0.00  0.00    +0.000 C 
BRANCH   3  10
ATOM     10  C   UNL     1       4.356   6.049  18.244  0.00  0.00    +0.000 C 
ATOM     11  O   UNL     1       5.420   5.925  18.831  0.00  0.00    +0.000 OA
BRANCH  10  13
ATOM     12  C   UNL     1       5.123   6.467  16.075  0.00  0.00    +0.000 C 
ATOM     13  O   UNL     1       4.158   6.743  17.088  0.00  0.00    +0.000 OA
ENDBRANCH  10  13
ENDBRANCH   3  10
ENDBRANCH   1   3
BRANCH   2  14
ATOM     14  C   UNL     1       1.109   8.546  20.033  0.00  0.00    +0.000 C 
ATOM     15  C   UNL     1       1.233   8.671  21.561  0.00  0.00    +0.000 C 
BRANCH  14  16
ATOM     16  C   UNL     1       1.119   9.944  19.319  0.00  0.00    +0.000 C 
BRANCH  16  17
ATOM     17  C   UNL     1      -0.258  10.478  18.915  0.00  0.00    +0.000 A 
ATOM     18  C   UNL     1      -0.920   9.938  17.793  0.00  0.00    +0.000 A 
ATOM     19  C   UNL     1      -2.225  10.297  17.466  0.00  0.00    +0.000 A 
ATOM     20  C   UNL     1      -2.907  11.219  18.251  0.00  0.00    +0.000 A 
ATOM     21  C   UNL     1      -2.249  11.829  19.319  0.00  0.00    +0.000 A 
ATOM     22  C   UNL     1      -0.928  11.488  19.633  0.00  0.00    +0.000 A 
ATOM     23 BR   UNL     1      -0.096  12.486  21.020  0.00  0.00    +0.000 Br
ENDBRANCH  16  17
BRANCH  16  24
ATOM     24  O   UNL     1       2.043   9.991  18.220  0.00  0.00    +0.000 OA
ATOM     25  C   UNL     1       2.500  11.277  17.834  0.00  0.00    +0.000 C 
ENDBRANCH  16  24
ENDBRANCH  14  16
ENDBRANCH   2  14
TORSDOF 7
ENDMDL
MODEL 4
REMARK VINA RESULT:      -6.6      2.320      4.252
REMARK  Name = 
REMARK  10 active torsions:
REMARK  status: ('A' for Active; 'I' for Inactive)
REMARK    1  A    between atoms: C_1  and  O_2
REMARK    2  A    between atoms: O_2  and  C_3
REMARK    3  A    between atoms: C_3  and  C_5
REMARK    4  A    between atoms: C_5  and  C_6
REMARK    5  A    between atoms: C_7  and  C_8
REMARK    6  A    between atoms: C_8  and  C_9
REMARK    7  A    between atoms: C_8  and  C_10
REMARK    8  A    between atoms: C_10  and  O_11
REMARK    9  A    between atoms: C_10  and  C_13
REMARK   10  A    between atoms: O_11  and  C_12
REMARK                            x       y       z     vdW  Elec       q    Type
REMARK                         _______ _______ _______ _____ _____    ______ ____
ROOT
ATOM      1  C   UNL     1       4.541   5.577  16.817  0.00  0.00    +0.000 C 
ATOM      2  C   UNL     1       3.670   4.985  17.652  0.00  0.00    +0.000 C 
ENDROOT
BRANCH   1   3
ATOM      3  C   UNL     1       5.873   5.062  16.434  0.00  0.00    +0.000 C 
ATOM      4  C   UNL     1       7.040   5.036  17.416  0.00  0.00    +0.000 C 
ATOM      5  C   UNL     1       7.098   5.664  18.774  0.00  0.00    +0.000 C 
ATOM      6  C   UNL     1       8.119   6.797  18.723  0.00  0.00    +0.000 C 
ATOM      7  C   UNL     1       7.722   7.865  17.699  0.00  0.00    +0.000 C 
ATOM      8  O   UNL     1       6.815   7.403  16.694  0.00  0.00    +0.000 OA
ATOM      9  C   UNL     1       7.032   6.032  16.285  0.00  0.00    +0.000 C 
BRANCH   3  10
ATOM     10  C   UNL     1       5.780   3.967  15.417  0.00  0.00    +0.000 C 
ATOM     11  O   UNL     1       5.809   2.783  15.718  0.00  0.00    +0.000 OA
BRANCH  10  13
ATOM     12  C   UNL     1       6.497   3.842  13.195  0.00  0.00    +0.000 C 
ATOM     13  O   UNL     1       5.649   4.467  14.156  0.00  0.00    +0.000 OA
ENDBRANCH  10  13
ENDBRANCH   3  10
ENDBRANCH   1   3
BRANCH   2  14
ATOM     14  C   UNL     1       2.237   5.444  17.854  0.00  0.00    +0.000 C 
ATOM     15  C   UNL     1       1.351   4.188  17.774  0.00  0.00    +0.000 C 
BRANCH  14  16
ATOM     16  C   UNL     1       2.024   6.237  19.192  0.00  0.00    +0.000 C 
BRANCH  16  17
ATOM     17  C   UNL     1       1.921   7.757  19.039  0.00  0.00    +0.000 A 
ATOM     18  C   UNL     1       2.498   8.391  17.919  0.00  0.00    +0.000 A 
ATOM     19  C   UNL     1       2.317   9.749  17.670  0.00  0.00    +0.000 A 
ATOM     20  C   UNL     1       1.556  10.518  18.542  0.00  0.00    +0.000 A 
ATOM     21  C   UNL     1       1.041   9.934  19.700  0.00  0.00    +0.000 A 
ATOM     22  C   UNL     1       1.245   8.574  19.965  0.00  0.00    +0.000 A 
ATOM     23 BR   UNL     1       0.616   7.928  21.638  0.00  0.00    +0.000 Br
ENDBRANCH  16  17
BRANCH  16  24
ATOM     24  O   UNL     1       2.984   5.875  20.200  0.00  0.00    +0.000 OA
ATOM     25  C   UNL     1       2.604   4.835  21.087  0.00  0.00    +0.000 C 
ENDBRANCH  16  24
ENDBRANCH  14  16
ENDBRANCH   2  14
TORSDOF 7
ENDMDL
MODEL 5
REMARK VINA RESULT:      -6.5      1.194      1.700
REMARK  Name = 
REMARK  10 active torsions:
REMARK  status: ('A' for Active; 'I' for Inactive)
REMARK    1  A    between atoms: C_1  and  O_2
REMARK    2  A    between atoms: O_2  and  C_3
REMARK    3  A    between atoms: C_3  and  C_5
REMARK    4  A    between atoms: C_5  and  C_6
REMARK    5  A    between atoms: C_7  and  C_8
REMARK    6  A    between atoms: C_8  and  C_9
REMARK    7  A    between atoms: C_8  and  C_10
REMARK    8  A    between atoms: C_10  and  O_11
REMARK    9  A    between atoms: C_10  and  C_13
REMARK   10  A    between atoms: O_11  and  C_12
REMARK                            x       y       z     vdW  Elec       q    Type
REMARK                         _______ _______ _______ _____ _____    ______ ____
ROOT
ATOM      1  C   UNL     1       2.881   6.700  18.202  0.00  0.00    +0.000 C 
ATOM      2  C   UNL     1       2.337   7.423  19.195  0.00  0.00    +0.000 C 
ENDROOT
BRANCH   1   3
ATOM      3  C   UNL     1       3.036   5.231  18.173  0.00  0.00    +0.000 C 
ATOM      4  C   UNL     1       4.291   4.542  18.700  0.00  0.00    +0.000 C 
ATOM      5  C   UNL     1       5.573   5.191  19.120  0.00  0.00    +0.000 C 
ATOM      6  C   UNL     1       6.654   4.782  18.123  0.00  0.00    +0.000 C 
ATOM      7  C   UNL     1       6.309   5.240  16.702  0.00  0.00    +0.000 C 
ATOM      8  O   UNL     1       4.917   5.496  16.492  0.00  0.00    +0.000 OA
ATOM      9  C   UNL     1       4.036   4.605  17.216  0.00  0.00    +0.000 C 
BRANCH   3  10
ATOM     10  C   UNL     1       1.724   4.525  18.329  0.00  0.00    +0.000 C 
ATOM     11  O   UNL     1       1.114   4.051  17.382  0.00  0.00    +0.000 OA
BRANCH  10  13
ATOM     12  C   UNL     1       1.111   3.160  20.126  0.00  0.00    +0.000 C 
ATOM     13  O   UNL     1       1.334   4.479  19.634  0.00  0.00    +0.000 OA
ENDBRANCH  10  13
ENDBRANCH   3  10
ENDBRANCH   1   3
BRANCH   2  14
ATOM     14  C   UNL     1       2.011   8.903  19.093  0.00  0.00    +0.000 C 
ATOM     15  C   UNL     1       1.938   9.241  17.593  0.00  0.00    +0.000 C 
BRANCH  14  16
ATOM     16  C   UNL     1       0.697   9.299  19.855  0.00  0.00    +0.000 C 
BRANCH  16  17
ATOM     17  C   UNL     1      -0.248  10.226  19.085  0.00  0.00    +0.000 A 
ATOM     18  C   UNL     1      -1.383   9.694  18.439  0.00  0.00    +0.000 A 
ATOM     19  C   UNL     1      -2.338  10.512  17.841  0.00  0.00    +0.000 A 
ATOM     20  C   UNL     1      -2.182  11.893  17.865  0.00  0.00    +0.000 A 
ATOM     21  C   UNL     1      -1.028  12.442  18.426  0.00  0.00    +0.000 A 
ATOM     22  C   UNL     1      -0.054  11.619  19.004  0.00  0.00    +0.000 A 
ATOM     23 BR   UNL     1       1.533  12.472  19.610  0.00  0.00    +0.000 Br
ENDBRANCH  16  17
BRANCH  16  24
ATOM     24  O   UNL     1       0.961   9.800  21.177  0.00  0.00    +0.000 OA
ATOM     25  C   UNL     1       0.224   9.208  22.234  0.00  0.00    +0.000 C 
ENDBRANCH  16  24
ENDBRANCH  14  16
ENDBRANCH   2  14
TORSDOF 7
ENDMDL
MODEL 6
REMARK VINA RESULT:      -6.5      1.581      2.332
REMARK  Name = 
REMARK  10 active torsions:
REMARK  status: ('A' for Active; 'I' for Inactive)
REMARK    1  A    between atoms: C_1  and  O_2
REMARK    2  A    between atoms: O_2  and  C_3
REMARK    3  A    between atoms: C_3  and  C_5
REMARK    4  A    between atoms: C_5  and  C_6
REMARK    5  A    between atoms: C_7  and  C_8
REMARK    6  A    between atoms: C_8  and  C_9
REMARK    7  A    between atoms: C_8  and  C_10
REMARK    8  A    between atoms: C_10  and  O_11
REMARK    9  A    between atoms: C_10  and  C_13
REMARK   10  A    between atoms: O_11  and  C_12
REMARK                            x       y       z     vdW  Elec       q    Type
REMARK                         _______ _______ _______ _____ _____    ______ ____
ROOT
ATOM      1  C   UNL     1       2.570   7.085  18.910  0.00  0.00    +0.000 C 
ATOM      2  C   UNL     1       1.922   8.048  18.234  0.00  0.00    +0.000 C 
ENDROOT
BRANCH   1   3
ATOM      3  C   UNL     1       2.864   5.721  18.423  0.00  0.00    +0.000 C 
ATOM      4  C   UNL     1       4.206   5.044  18.682  0.00  0.00    +0.000 C 
ATOM      5  C   UNL     1       5.441   5.667  19.253  0.00  0.00    +0.000 C 
ATOM      6  C   UNL     1       6.500   5.704  18.155  0.00  0.00    +0.000 C 
ATOM      7  C   UNL     1       6.035   6.535  16.955  0.00  0.00    +0.000 C 
ATOM      8  O   UNL     1       4.616   6.690  16.866  0.00  0.00    +0.000 OA
ATOM      9  C   UNL     1       3.865   5.530  17.297  0.00  0.00    +0.000 C 
BRANCH   3  10
ATOM     10  C   UNL     1       1.636   4.863  18.381  0.00  0.00    +0.000 C 
ATOM     11  O   UNL     1       1.190   4.402  17.342  0.00  0.00    +0.000 OA
BRANCH  10  13
ATOM     12  C   UNL     1       1.127   3.311  20.054  0.00  0.00    +0.000 C 
ATOM     13  O   UNL     1       1.119   4.671  19.628  0.00  0.00    +0.000 OA
ENDBRANCH  10  13
ENDBRANCH   3  10
ENDBRANCH   1   3
BRANCH   2  14
ATOM     14  C   UNL     1       1.826   9.493  18.690  0.00  0.00    +0.000 C 
ATOM     15  C   UNL     1       2.597  10.339  17.661  0.00  0.00    +0.000 C 
BRANCH  14  16
ATOM     16  C   UNL     1       0.347   9.985  18.875  0.00  0.00    +0.000 C 
BRANCH  16  17
ATOM     17  C   UNL     1      -0.139  10.057  20.325  0.00  0.00    +0.000 A 
ATOM     18  C   UNL     1      -0.100   8.904  21.137  0.00  0.00    +0.000 A 
ATOM     19  C   UNL     1      -0.406   8.952  22.495  0.00  0.00    +0.000 A 
ATOM     20  C   UNL     1      -0.770  10.158  23.082  0.00  0.00    +0.000 A 
ATOM     21  C   UNL     1      -0.895  11.297  22.285  0.00  0.00    +0.000 A 
ATOM     22  C   UNL     1      -0.613  11.244  20.915  0.00  0.00    +0.000 A 
ATOM     23 BR   UNL     1      -0.955  12.824  19.913  0.00  0.00    +0.000 Br
ENDBRANCH  16  17
BRANCH  16  24
ATOM     24  O   UNL     1      -0.578   9.260  18.047  0.00  0.00    +0.000 OA
ATOM     25  C   UNL     1      -1.603  10.022  17.430  0.00  0.00    +0.000 C 
ENDBRANCH  16  24
ENDBRANCH  14  16
ENDBRANCH   2  14
TORSDOF 7
ENDMDL
MODEL 7
REMARK VINA RESULT:      -6.4      1.412      1.979
REMARK  Name = 
REMARK  10 active torsions:
REMARK  status: ('A' for Active; 'I' for Inactive)
REMARK    1  A    between atoms: C_1  and  O_2
REMARK    2  A    between atoms: O_2  and  C_3
REMARK    3  A    between atoms: C_3  and  C_5
REMARK    4  A    between atoms: C_5  and  C_6
REMARK    5  A    between atoms: C_7  and  C_8
REMARK    6  A    between atoms: C_8  and  C_9
REMARK    7  A    between atoms: C_8  and  C_10
REMARK    8  A    between atoms: C_10  and  O_11
REMARK    9  A    between atoms: C_10  and  C_13
REMARK   10  A    between atoms: O_11  and  C_12
REMARK                            x       y       z     vdW  Elec       q    Type
REMARK                         _______ _______ _______ _____ _____    ______ ____
ROOT
ATOM      1  C   UNL     1       3.077   6.669  18.972  0.00  0.00    +0.000 C 
ATOM      2  C   UNL     1       2.184   7.434  19.622  0.00  0.00    +0.000 C 
ENDROOT
BRANCH   1   3
ATOM      3  C   UNL     1       3.290   5.219  19.164  0.00  0.00    +0.000 C 
ATOM      4  C   UNL     1       4.687   4.618  19.275  0.00  0.00    +0.000 C 
ATOM      5  C   UNL     1       5.994   5.305  19.026  0.00  0.00    +0.000 C 
ATOM      6  C   UNL     1       6.621   4.684  17.781  0.00  0.00    +0.000 C 
ATOM      7  C   UNL     1       5.724   4.863  16.552  0.00  0.00    +0.000 C 
ATOM      8  O   UNL     1       4.349   5.105  16.861  0.00  0.00    +0.000 OA
ATOM      9  C   UNL     1       3.871   4.394  18.028  0.00  0.00    +0.000 C 
BRANCH   3  10
ATOM     10  C   UNL     1       2.184   4.589  19.953  0.00  0.00    +0.000 C 
ATOM     11  O   UNL     1       2.166   4.585  21.175  0.00  0.00    +0.000 OA
BRANCH  10  13
ATOM     12  C   UNL     1       0.824   2.739  19.512  0.00  0.00    +0.000 C 
ATOM     13  O   UNL     1       1.232   4.053  19.138  0.00  0.00    +0.000 OA
ENDBRANCH  10  13
ENDBRANCH   3  10
ENDBRANCH   1   3
BRANCH   2  14
ATOM     14  C   UNL     1       1.858   8.869  19.247  0.00  0.00    +0.000 C 
ATOM     15  C   UNL     1       1.693   8.904  17.718  0.00  0.00    +0.000 C 
BRANCH  14  16
ATOM     16  C   UNL     1       0.595   9.430  19.994  0.00  0.00    +0.000 C 
BRANCH  16  17
ATOM     17  C   UNL     1      -0.318  10.322  19.147  0.00  0.00    +0.000 A 
ATOM     18  C   UNL     1      -1.506   9.795  18.601  0.00  0.00    +0.000 A 
ATOM     19  C   UNL     1      -2.430  10.598  17.939  0.00  0.00    +0.000 A 
ATOM     20  C   UNL     1      -2.188  11.960  17.796  0.00  0.00    +0.000 A 
ATOM     21  C   UNL     1      -0.983  12.493  18.255  0.00  0.00    +0.000 A 
ATOM     22  C   UNL     1      -0.042  11.680  18.898  0.00  0.00    +0.000 A 
ATOM     23 BR   UNL     1       1.616  12.492  19.353  0.00  0.00    +0.000 Br
ENDBRANCH  16  17
BRANCH  16  24
ATOM     24  O   UNL     1       0.932  10.059  21.242  0.00  0.00    +0.000 OA
ATOM     25  C   UNL     1      -0.009   9.916  22.293  0.00  0.00    +0.000 C 
ENDBRANCH  16  24
ENDBRANCH  14  16
ENDBRANCH   2  14
TORSDOF 7
ENDMDL
MODEL 8
REMARK VINA RESULT:      -6.4      1.081      3.227
REMARK  Name = 
REMARK  10 active torsions:
REMARK  status: ('A' for Active; 'I' for Inactive)
REMARK    1  A    between atoms: C_1  and  O_2
REMARK    2  A    between atoms: O_2  and  C_3
REMARK    3  A    between atoms: C_3  and  C_5
REMARK    4  A    between atoms: C_5  and  C_6
REMARK    5  A    between atoms: C_7  and  C_8
REMARK    6  A    between atoms: C_8  and  C_9
REMARK    7  A    between atoms: C_8  and  C_10
REMARK    8  A    between atoms: C_10  and  O_11
REMARK    9  A    between atoms: C_10  and  C_13
REMARK   10  A    between atoms: O_11  and  C_12
REMARK                            x       y       z     vdW  Elec       q    Type
REMARK                         _______ _______ _______ _____ _____    ______ ____
ROOT
ATOM      1  C   UNL     1       3.191   6.754  18.428  0.00  0.00    +0.000 C 
ATOM      2  C   UNL     1       2.678   7.666  19.272  0.00  0.00    +0.000 C 
ENDROOT
BRANCH   1   3
ATOM      3  C   UNL     1       3.802   5.462  18.803  0.00  0.00    +0.000 C 
ATOM      4  C   UNL     1       3.139   4.130  18.470  0.00  0.00    +0.000 C 
ATOM      5  C   UNL     1       1.761   3.913  17.928  0.00  0.00    +0.000 C 
ATOM      6  C   UNL     1       0.935   3.220  19.008  0.00  0.00    +0.000 C 
ATOM      7  C   UNL     1       0.840   4.074  20.276  0.00  0.00    +0.000 C 
ATOM      8  O   UNL     1       1.875   5.053  20.401  0.00  0.00    +0.000 OA
ATOM      9  C   UNL     1       3.161   4.622  19.894  0.00  0.00    +0.000 C 
BRANCH   3  10
ATOM     10  C   UNL     1       5.299   5.527  18.799  0.00  0.00    +0.000 C 
ATOM     11  O   UNL     1       5.982   5.042  19.688  0.00  0.00    +0.000 OA
BRANCH  10  13
ATOM     12  C   UNL     1       7.144   6.534  17.775  0.00  0.00    +0.000 C 
ATOM     13  O   UNL     1       5.767   6.172  17.694  0.00  0.00    +0.000 OA
ENDBRANCH  10  13
ENDBRANCH   3  10
ENDBRANCH   1   3
BRANCH   2  14
ATOM     14  C   UNL     1       1.877   8.879  18.832  0.00  0.00    +0.000 C 
ATOM     15  C   UNL     1       1.397   8.600  17.397  0.00  0.00    +0.000 C 
BRANCH  14  16
ATOM     16  C   UNL     1       0.689   9.218  19.801  0.00  0.00    +0.000 C 
BRANCH  16  17
ATOM     17  C   UNL     1       0.316  10.701  19.880  0.00  0.00    +0.000 A 
ATOM     18  C   UNL     1       1.030  11.561  20.740  0.00  0.00    +0.000 A 
ATOM     19  C   UNL     1       0.815  12.936  20.747  0.00  0.00    +0.000 A 
ATOM     20  C   UNL     1      -0.130  13.495  19.895  0.00  0.00    +0.000 A 
ATOM     21  C   UNL     1      -0.907  12.660  19.092  0.00  0.00    +0.000 A 
ATOM     22  C   UNL     1      -0.710  11.273  19.103  0.00  0.00    +0.000 A 
ATOM     23 BR   UNL     1      -1.921  10.232  18.072  0.00  0.00    +0.000 Br
ENDBRANCH  16  17
BRANCH  16  24
ATOM     24  O   UNL     1       0.872   8.653  21.110  0.00  0.00    +0.000 OA
ATOM     25  C   UNL     1      -0.305   8.414  21.864  0.00  0.00    +0.000 C 
ENDBRANCH  16  24
ENDBRANCH  14  16
ENDBRANCH   2  14
TORSDOF 7
ENDMDL
MODEL 9
REMARK VINA RESULT:      -6.3      1.096      3.080
REMARK  Name = 
REMARK  10 active torsions:
REMARK  status: ('A' for Active; 'I' for Inactive)
REMARK    1  A    between atoms: C_1  and  O_2
REMARK    2  A    between atoms: O_2  and  C_3
REMARK    3  A    between atoms: C_3  and  C_5
REMARK    4  A    between atoms: C_5  and  C_6
REMARK    5  A    between atoms: C_7  and  C_8
REMARK    6  A    between atoms: C_8  and  C_9
REMARK    7  A    between atoms: C_8  and  C_10
REMARK    8  A    between atoms: C_10  and  O_11
REMARK    9  A    between atoms: C_10  and  C_13
REMARK   10  A    between atoms: O_11  and  C_12
REMARK                            x       y       z     vdW  Elec       q    Type
REMARK                         _______ _______ _______ _____ _____    ______ ____
ROOT
ATOM      1  C   UNL     1       3.142   6.539  19.186  0.00  0.00    +0.000 C 
ATOM      2  C   UNL     1       2.314   7.380  18.543  0.00  0.00    +0.000 C 
ENDROOT
BRANCH   1   3
ATOM      3  C   UNL     1       3.537   5.187  18.737  0.00  0.00    +0.000 C 
ATOM      4  C   UNL     1       2.520   4.063  18.573  0.00  0.00    +0.000 C 
ATOM      5  C   UNL     1       1.085   4.068  19.000  0.00  0.00    +0.000 C 
ATOM      6  C   UNL     1       0.928   3.057  20.132  0.00  0.00    +0.000 C 
ATOM      7  C   UNL     1       1.804   3.421  21.335  0.00  0.00    +0.000 C 
ATOM      8  O   UNL     1       2.903   4.280  21.019  0.00  0.00    +0.000 OA
ATOM      9  C   UNL     1       3.495   4.032  19.722  0.00  0.00    +0.000 C 
BRANCH   3  10
ATOM     10  C   UNL     1       4.704   5.227  17.799  0.00  0.00    +0.000 C 
ATOM     11  O   UNL     1       4.585   5.470  16.607  0.00  0.00    +0.000 OA
BRANCH  10  13
ATOM     12  C   UNL     1       6.972   4.702  17.580  0.00  0.00    +0.000 C 
ATOM     13  O   UNL     1       5.875   4.974  18.449  0.00  0.00    +0.000 OA
ENDBRANCH  10  13
ENDBRANCH   3  10
ENDBRANCH   1   3
BRANCH   2  14
ATOM     14  C   UNL     1       2.101   8.832  18.936  0.00  0.00    +0.000 C 
ATOM     15  C   UNL     1       2.145   9.656  17.637  0.00  0.00    +0.000 C 
BRANCH  14  16
ATOM     16  C   UNL     1       0.775   9.065  19.743  0.00  0.00    +0.000 C 
BRANCH  16  17
ATOM     17  C   UNL     1       0.330  10.526  19.854  0.00  0.00    +0.000 A 
ATOM     18  C   UNL     1       0.943  11.378  20.796  0.00  0.00    +0.000 A 
ATOM     19  C   UNL     1       0.665  12.741  20.843  0.00  0.00    +0.000 A 
ATOM     20  C   UNL     1      -0.245  13.295  19.950  0.00  0.00    +0.000 A 
ATOM     21  C   UNL     1      -0.927  12.462  19.063  0.00  0.00    +0.000 A 
ATOM     22  C   UNL     1      -0.667  11.086  19.032  0.00  0.00    +0.000 A 
ATOM     23 BR   UNL     1      -1.756  10.038  17.879  0.00  0.00    +0.000 Br
ENDBRANCH  16  17
BRANCH  16  24
ATOM     24  O   UNL     1       0.797   8.424  21.029  0.00  0.00    +0.000 OA
ATOM     25  C   UNL     1      -0.434   8.376  21.731  0.00  0.00    +0.000 C 
ENDBRANCH  16  24
ENDBRANCH  14  16
ENDBRANCH   2  14
TORSDOF 7
ENDMDL
