MODEL 1
REMARK VINA RESULT:      -8.6      0.000      0.000
REMARK  Name = 
REMARK  8 active torsions:
REMARK  status: ('A' for Active; 'I' for Inactive)
REMARK    1  A    between atoms: C_1  and  C_2
REMARK    2  A    between atoms: C_9  and  S_10
REMARK    3  A    between atoms: S_10  and  C_13
REMARK    4  A    between atoms: C_13  and  C_14
REMARK    5  A    between atoms: C_14  and  C_15
REMARK    6  A    between atoms: N_17  and  C_18
REMARK    7  A    between atoms: C_18  and  C_19
REMARK    8  A    between atoms: C_19  and  C_20
REMARK                            x       y       z     vdW  Elec       q    Type
REMARK                         _______ _______ _______ _____ _____    ______ ____
ROOT
ATOM      1  S   UNL     1       5.573   5.370  15.308  0.00  0.00    +0.000 S 
ATOM      2  O   UNL     1       5.303   4.420  14.243  0.00  0.00    +0.000 OA
ATOM      3  O   UNL     1       5.363   6.791  15.096  0.00  0.00    +0.000 OA
ENDROOT
BRANCH   1  12
ATOM      4  C   UNL     1       1.791   1.533  20.087  0.00  0.00    +0.000 C 
ATOM      5  C   UNL     1       1.586   2.914  20.640  0.00  0.00    +0.000 C 
ATOM      6  O   UNL     1       0.916   3.054  21.669  0.00  0.00    +0.000 OA
ATOM      7  N   UNL     1       2.166   3.996  20.010  0.00  0.00    +0.000 N 
ATOM      8  C   UNL     1       2.068   5.318  20.648  0.00  0.00    +0.000 C 
ATOM      9  C   UNL     1       2.694   6.338  19.698  0.00  0.00    +0.000 C 
ATOM     10  C   UNL     1       3.330   5.454  18.671  0.00  0.00    +0.000 A 
ATOM     11  C   UNL     1       4.137   5.862  17.613  0.00  0.00    +0.000 A 
ATOM     12  C   UNL     1       4.580   4.891  16.712  0.00  0.00    +0.000 A 
ATOM     13  C   UNL     1       4.181   3.554  16.853  0.00  0.00    +0.000 A 
ATOM     14  C   UNL     1       3.371   3.162  17.931  0.00  0.00    +0.000 A 
ATOM     15  C   UNL     1       2.959   4.114  18.851  0.00  0.00    +0.000 A 
ENDBRANCH   1  12
BRANCH   1  16
ATOM     16  C   UNL     1       7.245   5.130  15.847  0.00  0.00    +0.000 C 
BRANCH  16  17
ATOM     17  C   UNL     1       7.309   4.621  17.288  0.00  0.00    +0.000 C 
BRANCH  17  18
ATOM     18  C   UNL     1       7.782   5.728  18.207  0.00  0.00    +0.000 C 
ATOM     19  O   UNL     1       8.057   5.526  19.387  0.00  0.00    +0.000 OA
ATOM     20  N   UNL     1       7.873   6.975  17.623  0.00  0.00    +0.000 N 
ATOM     21  H   UNL     1       7.756   7.071  16.621  0.00  0.00    +0.000 HD
BRANCH  20  22
ATOM     22  C   UNL     1       8.355   8.105  18.409  0.00  0.00    +0.000 C 
BRANCH  22  23
ATOM     23  C   UNL     1       8.088   9.469  17.770  0.00  0.00    +0.000 C 
BRANCH  23  24
ATOM     24  C   UNL     1       8.818  10.590  18.479  0.00  0.00    +0.000 A 
ATOM     25  C   UNL     1       9.362  10.389  19.757  0.00  0.00    +0.000 A 
ATOM     26  C   UNL     1      10.033  11.422  20.418  0.00  0.00    +0.000 A 
ATOM     27  C   UNL     1      10.160  12.667  19.808  0.00  0.00    +0.000 A 
ATOM     28 CL   UNL     1      10.991  13.938  20.619  0.00  0.00    +0.000 Cl
ATOM     29  C   UNL     1       9.618  12.888  18.544  0.00  0.00    +0.000 A 
ATOM     30  C   UNL     1       8.948  11.855  17.882  0.00  0.00    +0.000 A 
ENDBRANCH  23  24
ENDBRANCH  22  23
ENDBRANCH  20  22
ENDBRANCH  17  18
ENDBRANCH  16  17
ENDBRANCH   1  16
TORSDOF 7
ENDMDL
MODEL 2
REMARK VINA RESULT:      -8.5      0.756      1.763
REMARK  Name = 
REMARK  8 active torsions:
REMARK  status: ('A' for Active; 'I' for Inactive)
REMARK    1  A    between atoms: C_1  and  C_2
REMARK    2  A    between atoms: C_9  and  S_10
REMARK    3  A    between atoms: S_10  and  C_13
REMARK    4  A    between atoms: C_13  and  C_14
REMARK    5  A    between atoms: C_14  and  C_15
REMARK    6  A    between atoms: N_17  and  C_18
REMARK    7  A    between atoms: C_18  and  C_19
REMARK    8  A    between atoms: C_19  and  C_20
REMARK                            x       y       z     vdW  Elec       q    Type
REMARK                         _______ _______ _______ _____ _____    ______ ____
ROOT
ATOM      1  S   UNL     1       5.701   5.226  15.108  0.00  0.00    +0.000 S 
ATOM      2  O   UNL     1       5.571   4.231  14.059  0.00  0.00    +0.000 OA
ATOM      3  O   UNL     1       5.394   6.620  14.842  0.00  0.00    +0.000 OA
ENDROOT
BRANCH   1  12
ATOM      4  C   UNL     1       1.352   5.217  20.848  0.00  0.00    +0.000 C 
ATOM      5  C   UNL     1       1.563   3.740  20.678  0.00  0.00    +0.000 C 
ATOM      6  O   UNL     1       0.998   2.961  21.453  0.00  0.00    +0.000 OA
ATOM      7  N   UNL     1       2.359   3.277  19.651  0.00  0.00    +0.000 N 
ATOM      8  C   UNL     1       2.437   1.826  19.420  0.00  0.00    +0.000 C 
ATOM      9  C   UNL     1       3.457   1.589  18.307  0.00  0.00    +0.000 C 
ATOM     10  C   UNL     1       3.709   2.980  17.817  0.00  0.00    +0.000 A 
ATOM     11  C   UNL     1       4.490   3.344  16.724  0.00  0.00    +0.000 A 
ATOM     12  C   UNL     1       4.666   4.706  16.466  0.00  0.00    +0.000 A 
ATOM     13  C   UNL     1       4.103   5.670  17.315  0.00  0.00    +0.000 A 
ATOM     14  C   UNL     1       3.313   5.281  18.409  0.00  0.00    +0.000 A 
ATOM     15  C   UNL     1       3.103   3.933  18.650  0.00  0.00    +0.000 A 
ENDBRANCH   1  12
BRANCH   1  16
ATOM     16  C   UNL     1       7.352   5.134  15.751  0.00  0.00    +0.000 C 
BRANCH  16  17
ATOM     17  C   UNL     1       7.359   4.935  17.267  0.00  0.00    +0.000 C 
BRANCH  17  18
ATOM     18  C   UNL     1       7.480   6.274  17.965  0.00  0.00    +0.000 C 
ATOM     19  O   UNL     1       7.614   6.367  19.182  0.00  0.00    +0.000 OA
ATOM     20  N   UNL     1       7.421   7.374  17.134  0.00  0.00    +0.000 N 
ATOM     21  H   UNL     1       7.435   7.247  16.129  0.00  0.00    +0.000 HD
BRANCH  20  22
ATOM     22  C   UNL     1       7.566   8.711  17.699  0.00  0.00    +0.000 C 
BRANCH  22  23
ATOM     23  C   UNL     1       8.808   8.887  18.576  0.00  0.00    +0.000 C 
BRANCH  23  24
ATOM     24  C   UNL     1       9.187  10.342  18.751  0.00  0.00    +0.000 A 
ATOM     25  C   UNL     1      10.060  10.731  19.780  0.00  0.00    +0.000 A 
ATOM     26  C   UNL     1      10.411  12.074  19.948  0.00  0.00    +0.000 A 
ATOM     27  C   UNL     1       9.886  13.039  19.093  0.00  0.00    +0.000 A 
ATOM     28 CL   UNL     1      10.323  14.693  19.298  0.00  0.00    +0.000 Cl
ATOM     29  C   UNL     1       9.012  12.673  18.073  0.00  0.00    +0.000 A 
ATOM     30  C   UNL     1       8.662  11.330  17.904  0.00  0.00    +0.000 A 
ENDBRANCH  23  24
ENDBRANCH  22  23
ENDBRANCH  20  22
ENDBRANCH  17  18
ENDBRANCH  16  17
ENDBRANCH   1  16
TORSDOF 7
ENDMDL
MODEL 3
REMARK VINA RESULT:      -8.2      4.770      8.016
REMARK  Name = 
REMARK  8 active torsions:
REMARK  status: ('A' for Active; 'I' for Inactive)
REMARK    1  A    between atoms: C_1  and  C_2
REMARK    2  A    between atoms: C_9  and  S_10
REMARK    3  A    between atoms: S_10  and  C_13
REMARK    4  A    between atoms: C_13  and  C_14
REMARK    5  A    between atoms: C_14  and  C_15
REMARK    6  A    between atoms: N_17  and  C_18
REMARK    7  A    between atoms: C_18  and  C_19
REMARK    8  A    between atoms: C_19  and  C_20
REMARK                            x       y       z     vdW  Elec       q    Type
REMARK                         _______ _______ _______ _____ _____    ______ ____
ROOT
ATOM      1  S   UNL     1       2.749   3.331  20.302  0.00  0.00    +0.000 S 
ATOM      2  O   UNL     1       1.671   2.589  19.673  0.00  0.00    +0.000 OA
ATOM      3  O   UNL     1       3.548   2.721  21.349  0.00  0.00    +0.000 OA
ENDROOT
BRANCH   1  12
ATOM      4  C   UNL     1       6.109   4.005  13.968  0.00  0.00    +0.000 C 
ATOM      5  C   UNL     1       6.962   4.906  14.813  0.00  0.00    +0.000 C 
ATOM      6  O   UNL     1       7.913   5.496  14.288  0.00  0.00    +0.000 OA
ATOM      7  N   UNL     1       6.659   5.081  16.147  0.00  0.00    +0.000 N 
ATOM      8  C   UNL     1       7.422   6.074  16.918  0.00  0.00    +0.000 C 
ATOM      9  C   UNL     1       6.960   5.986  18.372  0.00  0.00    +0.000 C 
ATOM     10  C   UNL     1       5.767   5.089  18.263  0.00  0.00    +0.000 A 
ATOM     11  C   UNL     1       4.888   4.752  19.289  0.00  0.00    +0.000 A 
ATOM     12  C   UNL     1       3.871   3.837  19.008  0.00  0.00    +0.000 A 
ATOM     13  C   UNL     1       3.774   3.247  17.739  0.00  0.00    +0.000 A 
ATOM     14  C   UNL     1       4.667   3.605  16.716  0.00  0.00    +0.000 A 
ATOM     15  C   UNL     1       5.656   4.541  16.977  0.00  0.00    +0.000 A 
ENDBRANCH   1  12
BRANCH   1  16
ATOM     16  C   UNL     1       2.080   4.849  20.926  0.00  0.00    +0.000 C 
BRANCH  16  17
ATOM     17  C   UNL     1       1.545   5.738  19.802  0.00  0.00    +0.000 C 
BRANCH  17  18
ATOM     18  C   UNL     1       1.682   7.197  20.185  0.00  0.00    +0.000 C 
ATOM     19  O   UNL     1       2.062   8.050  19.388  0.00  0.00    +0.000 OA
ATOM     20  N   UNL     1       1.354   7.491  21.493  0.00  0.00    +0.000 N 
ATOM     21  H   UNL     1       0.928   6.781  22.077  0.00  0.00    +0.000 HD
BRANCH  20  22
ATOM     22  C   UNL     1       1.413   8.873  21.957  0.00  0.00    +0.000 C 
BRANCH  22  23
ATOM     23  C   UNL     1       0.265   9.267  22.890  0.00  0.00    +0.000 C 
BRANCH  23  24
ATOM     24  C   UNL     1      -0.549  10.421  22.345  0.00  0.00    +0.000 A 
ATOM     25  C   UNL     1      -0.451  10.786  20.993  0.00  0.00    +0.000 A 
ATOM     26  C   UNL     1      -1.198  11.854  20.486  0.00  0.00    +0.000 A 
ATOM     27  C   UNL     1      -2.044  12.569  21.329  0.00  0.00    +0.000 A 
ATOM     28 CL   UNL     1      -2.968  13.880  20.703  0.00  0.00    +0.000 Cl
ATOM     29  C   UNL     1      -2.147  12.227  22.675  0.00  0.00    +0.000 A 
ATOM     30  C   UNL     1      -1.401  11.159  23.182  0.00  0.00    +0.000 A 
ENDBRANCH  23  24
ENDBRANCH  22  23
ENDBRANCH  20  22
ENDBRANCH  17  18
ENDBRANCH  16  17
ENDBRANCH   1  16
TORSDOF 7
ENDMDL
MODEL 4
REMARK VINA RESULT:      -8.1      5.266      8.545
REMARK  Name = 
REMARK  8 active torsions:
REMARK  status: ('A' for Active; 'I' for Inactive)
REMARK    1  A    between atoms: C_1  and  C_2
REMARK    2  A    between atoms: C_9  and  S_10
REMARK    3  A    between atoms: S_10  and  C_13
REMARK    4  A    between atoms: C_13  and  C_14
REMARK    5  A    between atoms: C_14  and  C_15
REMARK    6  A    between atoms: N_17  and  C_18
REMARK    7  A    between atoms: C_18  and  C_19
REMARK    8  A    between atoms: C_19  and  C_20
REMARK                            x       y       z     vdW  Elec       q    Type
REMARK                         _______ _______ _______ _____ _____    ______ ____
ROOT
ATOM      1  S   UNL     1       1.765   4.152  20.329  0.00  0.00    +0.000 S 
ATOM      2  O   UNL     1       0.845   3.197  19.737  0.00  0.00    +0.000 OA
ATOM      3  O   UNL     1       2.374   3.885  21.620  0.00  0.00    +0.000 OA
ENDROOT
BRANCH   1  12
ATOM      4  C   UNL     1       5.685   4.361  14.292  0.00  0.00    +0.000 C 
ATOM      5  C   UNL     1       6.699   4.864  15.279  0.00  0.00    +0.000 C 
ATOM      6  O   UNL     1       7.824   5.177  14.875  0.00  0.00    +0.000 OA
ATOM      7  N   UNL     1       6.354   4.993  16.608  0.00  0.00    +0.000 N 
ATOM      8  C   UNL     1       7.316   5.619  17.528  0.00  0.00    +0.000 C 
ATOM      9  C   UNL     1       6.730   5.538  18.937  0.00  0.00    +0.000 C 
ATOM     10  C   UNL     1       5.333   5.072  18.664  0.00  0.00    +0.000 A 
ATOM     11  C   UNL     1       4.311   4.928  19.598  0.00  0.00    +0.000 A 
ATOM     12  C   UNL     1       3.091   4.407  19.161  0.00  0.00    +0.000 A 
ATOM     13  C   UNL     1       2.925   4.004  17.828  0.00  0.00    +0.000 A 
ATOM     14  C   UNL     1       3.967   4.165  16.900  0.00  0.00    +0.000 A 
ATOM     15  C   UNL     1       5.168   4.715  17.318  0.00  0.00    +0.000 A 
ENDBRANCH   1  12
BRANCH   1  16
ATOM     16  C   UNL     1       0.945   5.722  20.417  0.00  0.00    +0.000 C 
BRANCH  16  17
ATOM     17  C   UNL     1       1.846   6.800  21.021  0.00  0.00    +0.000 C 
BRANCH  17  18
ATOM     18  C   UNL     1       1.129   8.134  21.022  0.00  0.00    +0.000 C 
ATOM     19  O   UNL     1       0.450   8.511  21.973  0.00  0.00    +0.000 OA
ATOM     20  N   UNL     1       1.292   8.887  19.876  0.00  0.00    +0.000 N 
ATOM     21  H   UNL     1       1.958   8.593  19.172  0.00  0.00    +0.000 HD
BRANCH  20  22
ATOM     22  C   UNL     1       0.676  10.206  19.788  0.00  0.00    +0.000 C 
BRANCH  22  23
ATOM     23  C   UNL     1       0.275  10.613  18.368  0.00  0.00    +0.000 C 
BRANCH  23  24
ATOM     24  C   UNL     1      -1.225  10.737  18.207  0.00  0.00    +0.000 A 
ATOM     25  C   UNL     1      -1.944  11.690  18.947  0.00  0.00    +0.000 A 
ATOM     26  C   UNL     1      -3.330  11.806  18.804  0.00  0.00    +0.000 A 
ATOM     27  C   UNL     1      -4.009  10.967  17.925  0.00  0.00    +0.000 A 
ATOM     28 CL   UNL     1      -5.715  11.114  17.746  0.00  0.00    +0.000 Cl
ATOM     29  C   UNL     1      -3.313  10.010  17.189  0.00  0.00    +0.000 A 
ATOM     30  C   UNL     1      -1.927   9.894  17.331  0.00  0.00    +0.000 A 
ENDBRANCH  23  24
ENDBRANCH  22  23
ENDBRANCH  20  22
ENDBRANCH  17  18
ENDBRANCH  16  17
ENDBRANCH   1  16
TORSDOF 7
ENDMDL
MODEL 5
REMARK VINA RESULT:      -8.0      4.393      7.393
REMARK  Name = 
REMARK  8 active torsions:
REMARK  status: ('A' for Active; 'I' for Inactive)
REMARK    1  A    between atoms: C_1  and  C_2
REMARK    2  A    between atoms: C_9  and  S_10
REMARK    3  A    between atoms: S_10  and  C_13
REMARK    4  A    between atoms: C_13  and  C_14
REMARK    5  A    between atoms: C_14  and  C_15
REMARK    6  A    between atoms: N_17  and  C_18
REMARK    7  A    between atoms: C_18  and  C_19
REMARK    8  A    between atoms: C_19  and  C_20
REMARK                            x       y       z     vdW  Elec       q    Type
REMARK                         _______ _______ _______ _____ _____    ______ ____
ROOT
ATOM      1  S   UNL     1       2.566   2.847  20.292  0.00  0.00    +0.000 S 
ATOM      2  O   UNL     1       1.748   1.829  19.658  0.00  0.00    +0.000 OA
ATOM      3  O   UNL     1       3.329   2.537  21.488  0.00  0.00    +0.000 OA
ENDROOT
BRANCH   1  12
ATOM      4  C   UNL     1       5.983   4.096  14.078  0.00  0.00    +0.000 C 
ATOM      5  C   UNL     1       6.887   4.833  15.025  0.00  0.00    +0.000 C 
ATOM      6  O   UNL     1       7.873   5.425  14.573  0.00  0.00    +0.000 OA
ATOM      7  N   UNL     1       6.590   4.859  16.372  0.00  0.00    +0.000 N 
ATOM      8  C   UNL     1       7.408   5.702  17.256  0.00  0.00    +0.000 C 
ATOM      9  C   UNL     1       6.936   5.463  18.690  0.00  0.00    +0.000 C 
ATOM     10  C   UNL     1       5.691   4.659  18.476  0.00  0.00    +0.000 A 
ATOM     11  C   UNL     1       4.790   4.252  19.455  0.00  0.00    +0.000 A 
ATOM     12  C   UNL     1       3.721   3.441  19.067  0.00  0.00    +0.000 A 
ATOM     13  C   UNL     1       3.593   3.019  17.735  0.00  0.00    +0.000 A 
ATOM     14  C   UNL     1       4.510   3.447  16.761  0.00  0.00    +0.000 A 
ATOM     15  C   UNL     1       5.552   4.282  17.132  0.00  0.00    +0.000 A 
ENDBRANCH   1  12
BRANCH   1  16
ATOM     16  C   UNL     1       1.532   4.245  20.640  0.00  0.00    +0.000 C 
BRANCH  16  17
ATOM     17  C   UNL     1       1.529   5.248  19.486  0.00  0.00    +0.000 C 
BRANCH  17  18
ATOM     18  C   UNL     1       1.882   6.629  19.999  0.00  0.00    +0.000 C 
ATOM     19  O   UNL     1       2.657   7.371  19.401  0.00  0.00    +0.000 OA
ATOM     20  N   UNL     1       1.275   6.985  21.186  0.00  0.00    +0.000 N 
ATOM     21  H   UNL     1       0.551   6.394  21.578  0.00  0.00    +0.000 HD
BRANCH  20  22
ATOM     22  C   UNL     1       1.516   8.309  21.749  0.00  0.00    +0.000 C 
BRANCH  22  23
ATOM     23  C   UNL     1       0.241   9.111  22.023  0.00  0.00    +0.000 C 
BRANCH  23  24
ATOM     24  C   UNL     1       0.063  10.258  21.052  0.00  0.00    +0.000 A 
ATOM     25  C   UNL     1       0.124  11.587  21.501  0.00  0.00    +0.000 A 
ATOM     26  C   UNL     1      -0.044  12.650  20.609  0.00  0.00    +0.000 A 
ATOM     27  C   UNL     1      -0.280  12.393  19.261  0.00  0.00    +0.000 A 
ATOM     28 CL   UNL     1      -0.481  13.702  18.161  0.00  0.00    +0.000 Cl
ATOM     29  C   UNL     1      -0.352  11.081  18.799  0.00  0.00    +0.000 A 
ATOM     30  C   UNL     1      -0.184  10.017  19.691  0.00  0.00    +0.000 A 
ENDBRANCH  23  24
ENDBRANCH  22  23
ENDBRANCH  20  22
ENDBRANCH  17  18
ENDBRANCH  16  17
ENDBRANCH   1  16
TORSDOF 7
ENDMDL
MODEL 6
REMARK VINA RESULT:      -8.0      3.672      4.850
REMARK  Name = 
REMARK  8 active torsions:
REMARK  status: ('A' for Active; 'I' for Inactive)
REMARK    1  A    between atoms: C_1  and  C_2
REMARK    2  A    between atoms: C_9  and  S_10
REMARK    3  A    between atoms: S_10  and  C_13
REMARK    4  A    between atoms: C_13  and  C_14
REMARK    5  A    between atoms: C_14  and  C_15
REMARK    6  A    between atoms: N_17  and  C_18
REMARK    7  A    between atoms: C_18  and  C_19
REMARK    8  A    between atoms: C_19  and  C_20
REMARK                            x       y       z     vdW  Elec       q    Type
REMARK                         _______ _______ _______ _____ _____    ______ ____
ROOT
ATOM      1  S   UNL     1       3.189   5.819  18.469  0.00  0.00    +0.000 S 
ATOM      2  O   UNL     1       3.964   5.380  19.617  0.00  0.00    +0.000 OA
ATOM      3  O   UNL     1       2.232   4.925  17.843  0.00  0.00    +0.000 OA
ENDROOT
BRANCH   1  12
ATOM      4  C   UNL     1      -0.195  12.175  18.382  0.00  0.00    +0.000 C 
ATOM      5  C   UNL     1      -0.246  11.872  19.852  0.00  0.00    +0.000 C 
ATOM      6  O   UNL     1      -0.803  12.673  20.610  0.00  0.00    +0.000 OA
ATOM      7  N   UNL     1       0.304  10.700  20.329  0.00  0.00    +0.000 N 
ATOM      8  C   UNL     1       0.118  10.361  21.747  0.00  0.00    +0.000 C 
ATOM      9  C   UNL     1       0.910   9.083  22.026  0.00  0.00    +0.000 C 
ATOM     10  C   UNL     1       1.300   8.655  20.645  0.00  0.00    +0.000 A 
ATOM     11  C   UNL     1       1.955   7.477  20.298  0.00  0.00    +0.000 A 
ATOM     12  C   UNL     1       2.301   7.288  18.958  0.00  0.00    +0.000 A 
ATOM     13  C   UNL     1       2.030   8.281  18.006  0.00  0.00    +0.000 A 
ATOM     14  C   UNL     1       1.362   9.460  18.376  0.00  0.00    +0.000 A 
ATOM     15  C   UNL     1       0.983   9.638  19.697  0.00  0.00    +0.000 A 
ENDBRANCH   1  12
BRANCH   1  16
ATOM     16  C   UNL     1       4.321   6.380  17.226  0.00  0.00    +0.000 C 
BRANCH  16  17
ATOM     17  C   UNL     1       5.647   5.620  17.280  0.00  0.00    +0.000 C 
BRANCH  17  18
ATOM     18  C   UNL     1       6.797   6.561  16.989  0.00  0.00    +0.000 C 
ATOM     19  O   UNL     1       7.569   6.380  16.050  0.00  0.00    +0.000 OA
ATOM     20  N   UNL     1       6.915   7.628  17.857  0.00  0.00    +0.000 N 
ATOM     21  H   UNL     1       6.187   7.805  18.538  0.00  0.00    +0.000 HD
BRANCH  20  22
ATOM     22  C   UNL     1       7.966   8.617  17.643  0.00  0.00    +0.000 C 
BRANCH  22  23
ATOM     23  C   UNL     1       8.823   8.892  18.881  0.00  0.00    +0.000 C 
BRANCH  23  24
ATOM     24  C   UNL     1       9.129  10.364  19.053  0.00  0.00    +0.000 A 
ATOM     25  C   UNL     1       9.040  11.242  17.960  0.00  0.00    +0.000 A 
ATOM     26  C   UNL     1       9.326  12.603  18.113  0.00  0.00    +0.000 A 
ATOM     27  C   UNL     1       9.709  13.094  19.358  0.00  0.00    +0.000 A 
ATOM     28 CL   UNL     1      10.055  14.771  19.548  0.00  0.00    +0.000 Cl
ATOM     29  C   UNL     1       9.811  12.237  20.451  0.00  0.00    +0.000 A 
ATOM     30  C   UNL     1       9.525  10.876  20.299  0.00  0.00    +0.000 A 
ENDBRANCH  23  24
ENDBRANCH  22  23
ENDBRANCH  20  22
ENDBRANCH  17  18
ENDBRANCH  16  17
ENDBRANCH   1  16
TORSDOF 7
ENDMDL
MODEL 7
REMARK VINA RESULT:      -8.0      2.080      3.195
REMARK  Name = 
REMARK  8 active torsions:
REMARK  status: ('A' for Active; 'I' for Inactive)
REMARK    1  A    between atoms: C_1  and  C_2
REMARK    2  A    between atoms: C_9  and  S_10
REMARK    3  A    between atoms: S_10  and  C_13
REMARK    4  A    between atoms: C_13  and  C_14
REMARK    5  A    between atoms: C_14  and  C_15
REMARK    6  A    between atoms: N_17  and  C_18
REMARK    7  A    between atoms: C_18  and  C_19
REMARK    8  A    between atoms: C_19  and  C_20
REMARK                            x       y       z     vdW  Elec       q    Type
REMARK                         _______ _______ _______ _____ _____    ______ ____
ROOT
ATOM      1  S   UNL     1       7.428   5.100  17.205  0.00  0.00    +0.000 S 
ATOM      2  O   UNL     1       8.403   4.596  18.156  0.00  0.00    +0.000 OA
ATOM      3  O   UNL     1       7.482   4.694  15.812  0.00  0.00    +0.000 OA
ENDROOT
BRANCH   1  12
ATOM      4  C   UNL     1       1.256   5.036  20.913  0.00  0.00    +0.000 C 
ATOM      5  C   UNL     1       1.075   3.796  20.085  0.00  0.00    +0.000 C 
ATOM      6  O   UNL     1       0.032   3.144  20.202  0.00  0.00    +0.000 OA
ATOM      7  N   UNL     1       2.059   3.421  19.193  0.00  0.00    +0.000 N 
ATOM      8  C   UNL     1       1.798   2.286  18.294  0.00  0.00    +0.000 C 
ATOM      9  C   UNL     1       3.076   2.023  17.498  0.00  0.00    +0.000 C 
ATOM     10  C   UNL     1       3.909   3.216  17.848  0.00  0.00    +0.000 A 
ATOM     11  C   UNL     1       5.150   3.545  17.312  0.00  0.00    +0.000 A 
ATOM     12  C   UNL     1       5.810   4.666  17.821  0.00  0.00    +0.000 A 
ATOM     13  C   UNL     1       5.249   5.406  18.872  0.00  0.00    +0.000 A 
ATOM     14  C   UNL     1       3.992   5.061  19.395  0.00  0.00    +0.000 A 
ATOM     15  C   UNL     1       3.315   3.972  18.869  0.00  0.00    +0.000 A 
ENDBRANCH   1  12
BRANCH   1  16
ATOM     16  C   UNL     1       7.465   6.872  17.268  0.00  0.00    +0.000 C 
BRANCH  16  17
ATOM     17  C   UNL     1       8.237   7.380  18.487  0.00  0.00    +0.000 C 
BRANCH  17  18
ATOM     18  C   UNL     1       8.411   8.882  18.401  0.00  0.00    +0.000 C 
ATOM     19  O   UNL     1       7.886   9.552  17.515  0.00  0.00    +0.000 OA
ATOM     20  N   UNL     1       9.205   9.436  19.384  0.00  0.00    +0.000 N 
ATOM     21  H   UNL     1       9.514   8.866  20.162  0.00  0.00    +0.000 HD
BRANCH  20  22
ATOM     22  C   UNL     1       9.408  10.880  19.417  0.00  0.00    +0.000 C 
BRANCH  22  23
ATOM     23  C   UNL     1      10.875  11.306  19.333  0.00  0.00    +0.000 C 
BRANCH  23  24
ATOM     24  C   UNL     1      11.037  12.704  18.775  0.00  0.00    +0.000 A 
ATOM     25  C   UNL     1      11.142  13.807  19.638  0.00  0.00    +0.000 A 
ATOM     26  C   UNL     1      11.288  15.101  19.127  0.00  0.00    +0.000 A 
ATOM     27  C   UNL     1      11.325  15.302  17.750  0.00  0.00    +0.000 A 
ATOM     28 CL   UNL     1      11.510  16.894  17.121  0.00  0.00    +0.000 Cl
ATOM     29  C   UNL     1      11.214  14.220  16.879  0.00  0.00    +0.000 A 
ATOM     30  C   UNL     1      11.068  12.926  17.389  0.00  0.00    +0.000 A 
ENDBRANCH  23  24
ENDBRANCH  22  23
ENDBRANCH  20  22
ENDBRANCH  17  18
ENDBRANCH  16  17
ENDBRANCH   1  16
TORSDOF 7
ENDMDL
MODEL 8
REMARK VINA RESULT:      -8.0      3.606      4.718
REMARK  Name = 
REMARK  8 active torsions:
REMARK  status: ('A' for Active; 'I' for Inactive)
REMARK    1  A    between atoms: C_1  and  C_2
REMARK    2  A    between atoms: C_9  and  S_10
REMARK    3  A    between atoms: S_10  and  C_13
REMARK    4  A    between atoms: C_13  and  C_14
REMARK    5  A    between atoms: C_14  and  C_15
REMARK    6  A    between atoms: N_17  and  C_18
REMARK    7  A    between atoms: C_18  and  C_19
REMARK    8  A    between atoms: C_19  and  C_20
REMARK                            x       y       z     vdW  Elec       q    Type
REMARK                         _______ _______ _______ _____ _____    ______ ____
ROOT
ATOM      1  S   UNL     1       3.237   6.049  18.555  0.00  0.00    +0.000 S 
ATOM      2  O   UNL     1       4.104   5.515  19.590  0.00  0.00    +0.000 OA
ATOM      3  O   UNL     1       2.302   5.183  17.860  0.00  0.00    +0.000 OA
ENDROOT
BRANCH   1  12
ATOM      4  C   UNL     1      -0.573  10.073  23.153  0.00  0.00    +0.000 C 
ATOM      5  C   UNL     1      -0.628  10.948  21.933  0.00  0.00    +0.000 C 
ATOM      6  O   UNL     1      -1.222  12.029  21.998  0.00  0.00    +0.000 OA
ATOM      7  N   UNL     1       0.005  10.547  20.775  0.00  0.00    +0.000 N 
ATOM      8  C   UNL     1       0.057  11.482  19.641  0.00  0.00    +0.000 C 
ATOM      9  C   UNL     1       0.712  10.752  18.469  0.00  0.00    +0.000 C 
ATOM     10  C   UNL     1       1.209   9.500  19.123  0.00  0.00    +0.000 A 
ATOM     11  C   UNL     1       1.985   8.509  18.530  0.00  0.00    +0.000 A 
ATOM     12  C   UNL     1       2.290   7.374  19.285  0.00  0.00    +0.000 A 
ATOM     13  C   UNL     1       1.788   7.228  20.587  0.00  0.00    +0.000 A 
ATOM     14  C   UNL     1       1.012   8.244  21.169  0.00  0.00    +0.000 A 
ATOM     15  C   UNL     1       0.736   9.389  20.439  0.00  0.00    +0.000 A 
ENDBRANCH   1  12
BRANCH   1  16
ATOM     16  C   UNL     1       4.257   6.849  17.345  0.00  0.00    +0.000 C 
BRANCH  16  17
ATOM     17  C   UNL     1       5.287   5.890  16.748  0.00  0.00    +0.000 C 
BRANCH  17  18
ATOM     18  C   UNL     1       6.685   6.319  17.143  0.00  0.00    +0.000 C 
ATOM     19  O   UNL     1       7.657   5.580  17.016  0.00  0.00    +0.000 OA
ATOM     20  N   UNL     1       6.781   7.594  17.662  0.00  0.00    +0.000 N 
ATOM     21  H   UNL     1       5.977   8.210  17.634  0.00  0.00    +0.000 HD
BRANCH  20  22
ATOM     22  C   UNL     1       8.087   8.122  18.039  0.00  0.00    +0.000 C 
BRANCH  22  23
ATOM     23  C   UNL     1       8.444   9.447  17.362  0.00  0.00    +0.000 C 
BRANCH  23  24
ATOM     24  C   UNL     1       8.880  10.503  18.355  0.00  0.00    +0.000 A 
ATOM     25  C   UNL     1       8.955  11.852  17.973  0.00  0.00    +0.000 A 
ATOM     26  C   UNL     1       9.361  12.830  18.887  0.00  0.00    +0.000 A 
ATOM     27  C   UNL     1       9.701  12.466  20.187  0.00  0.00    +0.000 A 
ATOM     28 CL   UNL     1      10.195  13.671  21.312  0.00  0.00    +0.000 Cl
ATOM     29  C   UNL     1       9.640  11.131  20.581  0.00  0.00    +0.000 A 
ATOM     30  C   UNL     1       9.234  10.153  19.668  0.00  0.00    +0.000 A 
ENDBRANCH  23  24
ENDBRANCH  22  23
ENDBRANCH  20  22
ENDBRANCH  17  18
ENDBRANCH  16  17
ENDBRANCH   1  16
TORSDOF 7
ENDMDL
MODEL 9
REMARK VINA RESULT:      -7.9      5.273      8.296
REMARK  Name = 
REMARK  8 active torsions:
REMARK  status: ('A' for Active; 'I' for Inactive)
REMARK    1  A    between atoms: C_1  and  C_2
REMARK    2  A    between atoms: C_9  and  S_10
REMARK    3  A    between atoms: S_10  and  C_13
REMARK    4  A    between atoms: C_13  and  C_14
REMARK    5  A    between atoms: C_14  and  C_15
REMARK    6  A    between atoms: N_17  and  C_18
REMARK    7  A    between atoms: C_18  and  C_19
REMARK    8  A    between atoms: C_19  and  C_20
REMARK                            x       y       z     vdW  Elec       q    Type
REMARK                         _______ _______ _______ _____ _____    ______ ____
ROOT
ATOM      1  S   UNL     1       1.928   4.355  20.487  0.00  0.00    +0.000 S 
ATOM      2  O   UNL     1       0.737   3.896  19.793  0.00  0.00    +0.000 OA
ATOM      3  O   UNL     1       2.491   3.576  21.575  0.00  0.00    +0.000 OA
ENDROOT
BRANCH   1  12
ATOM      4  C   UNL     1       5.598   4.383  14.291  0.00  0.00    +0.000 C 
ATOM      5  C   UNL     1       6.666   4.868  15.229  0.00  0.00    +0.000 C 
ATOM      6  O   UNL     1       7.782   5.143  14.776  0.00  0.00    +0.000 OA
ATOM      7  N   UNL     1       6.380   5.022  16.570  0.00  0.00    +0.000 N 
ATOM      8  C   UNL     1       7.397   5.630  17.441  0.00  0.00    +0.000 C 
ATOM      9  C   UNL     1       6.867   5.582  18.874  0.00  0.00    +0.000 C 
ATOM     10  C   UNL     1       5.448   5.153  18.665  0.00  0.00    +0.000 A 
ATOM     11  C   UNL     1       4.462   5.049  19.642  0.00  0.00    +0.000 A 
ATOM     12  C   UNL     1       3.211   4.559  19.262  0.00  0.00    +0.000 A 
ATOM     13  C   UNL     1       2.978   4.146  17.942  0.00  0.00    +0.000 A 
ATOM     14  C   UNL     1       3.985   4.265  16.970  0.00  0.00    +0.000 A 
ATOM     15  C   UNL     1       5.218   4.786  17.331  0.00  0.00    +0.000 A 
ENDBRANCH   1  12
BRANCH   1  16
ATOM     16  C   UNL     1       1.619   5.997  21.081  0.00  0.00    +0.000 C 
BRANCH  16  17
ATOM     17  C   UNL     1       1.879   7.049  20.002  0.00  0.00    +0.000 C 
BRANCH  17  18
ATOM     18  C   UNL     1       1.475   8.419  20.506  0.00  0.00    +0.000 C 
ATOM     19  O   UNL     1       1.358   8.667  21.703  0.00  0.00    +0.000 OA
ATOM     20  N   UNL     1       1.245   9.360  19.523  0.00  0.00    +0.000 N 
ATOM     21  H   UNL     1       1.473   9.146  18.559  0.00  0.00    +0.000 HD
BRANCH  20  22
ATOM     22  C   UNL     1       0.888  10.723  19.899  0.00  0.00    +0.000 C 
BRANCH  22  23
ATOM     23  C   UNL     1      -0.537  11.124  19.513  0.00  0.00    +0.000 C 
BRANCH  23  24
ATOM     24  C   UNL     1      -1.355  11.563  20.708  0.00  0.00    +0.000 A 
ATOM     25  C   UNL     1      -0.994  11.163  22.005  0.00  0.00    +0.000 A 
ATOM     26  C   UNL     1      -1.749  11.563  23.112  0.00  0.00    +0.000 A 
ATOM     27  C   UNL     1      -2.875  12.362  22.930  0.00  0.00    +0.000 A 
ATOM     28 CL   UNL     1      -3.801  12.859  24.294  0.00  0.00    +0.000 Cl
ATOM     29  C   UNL     1      -3.254  12.761  21.651  0.00  0.00    +0.000 A 
ATOM     30  C   UNL     1      -2.499  12.362  20.544  0.00  0.00    +0.000 A 
ENDBRANCH  23  24
ENDBRANCH  22  23
ENDBRANCH  20  22
ENDBRANCH  17  18
ENDBRANCH  16  17
ENDBRANCH   1  16
TORSDOF 7
ENDMDL
