MODEL 1
REMARK VINA RESULT:      -8.6      0.000      0.000
REMARK  Name = 
REMARK  7 active torsions:
REMARK  status: ('A' for Active; 'I' for Inactive)
REMARK    1  A    between atoms: C_1  and  O_2
REMARK    2  A    between atoms: O_2  and  C_3
REMARK    3  A    between atoms: C_7  and  N_8
REMARK    4  A    between atoms: N_8  and  C_9
REMARK    5  A    between atoms: C_9  and  C_10
REMARK    6  A    between atoms: C_9  and  C_21
REMARK    7  A    between atoms: C_10  and  C_12
REMARK                            x       y       z     vdW  Elec       q    Type
REMARK                         _______ _______ _______ _____ _____    ______ ____
ROOT
ATOM      1  C   UNL     1       3.335   5.751  18.756  0.00  0.00    +0.000 C 
ENDROOT
BRANCH   1   2
ATOM      2  C   UNL     1       2.467   4.477  18.849  0.00  0.00    +0.000 A 
ATOM      3  C   UNL     1       1.633   4.198  19.937  0.00  0.00    +0.000 A 
ATOM      4  C   UNL     1       0.807   3.072  19.910  0.00  0.00    +0.000 A 
ATOM      5  C   UNL     1       0.848   2.234  18.800  0.00  0.00    +0.000 A 
ATOM      6  N   UNL     1       1.658   2.456  17.747  0.00  0.00    +0.000 NA
ATOM      7  C   UNL     1       2.439   3.569  17.793  0.00  0.00    +0.000 A 
ENDBRANCH   1   2
BRANCH   1   8
ATOM      8  N   UNL     1       2.918   6.647  19.858  0.00  0.00    +0.000 N 
ATOM      9  H   UNL     1       2.422   6.130  20.583  0.00  0.00    +0.000 HD
BRANCH   8  14
ATOM     10  C   UNL     1       0.530   9.491  20.057  0.00  0.00    +0.000 A 
ATOM     11  C   UNL     1       0.519   9.904  18.728  0.00  0.00    +0.000 A 
ATOM     12  C   UNL     1       1.390   9.326  17.807  0.00  0.00    +0.000 A 
ATOM     13  C   UNL     1       2.237   8.288  18.205  0.00  0.00    +0.000 A 
ATOM     14  C   UNL     1       2.239   7.833  19.530  0.00  0.00    +0.000 A 
ATOM     15  C   UNL     1       1.396   8.473  20.447  0.00  0.00    +0.000 A 
BRANCH  10  17
ATOM     16  C   UNL     1      -0.178  10.039  22.261  0.00  0.00    +0.000 C 
ATOM     17  O   UNL     1      -0.431  10.040  20.860  0.00  0.00    +0.000 OA
ENDBRANCH  10  17
ENDBRANCH   8  14
ENDBRANCH   1   8
BRANCH   1  18
ATOM     18  C   UNL     1       4.851   5.459  18.812  0.00  0.00    +0.000 C 
ATOM     19  O   UNL     1       5.372   5.242  19.912  0.00  0.00    +0.000 OA
BRANCH  18  20
ATOM     20  C   UNL     1       5.754   5.415  17.623  0.00  0.00    +0.000 A 
ATOM     21  C   UNL     1       7.019   5.984  17.767  0.00  0.00    +0.000 A 
ATOM     22  N   UNL     1       7.416   6.375  16.530  0.00  0.00    +0.000 N 
ATOM     23  C   UNL     1       6.880   5.503  15.626  0.00  0.00    +0.000 A 
ATOM     24  C   UNL     1       7.297   5.252  14.312  0.00  0.00    +0.000 A 
ATOM     25  C   UNL     1       6.599   4.293  13.595  0.00  0.00    +0.000 A 
ATOM     26  C   UNL     1       5.469   3.696  14.147  0.00  0.00    +0.000 A 
ATOM     27  C   UNL     1       5.021   4.020  15.450  0.00  0.00    +0.000 A 
ATOM     28  C   UNL     1       5.777   4.899  16.261  0.00  0.00    +0.000 A 
ATOM     29  H   UNL     1       8.106   7.085  16.324  0.00  0.00    +0.000 HD
ENDBRANCH  18  20
ENDBRANCH   1  18
TORSDOF 6
ENDMDL
MODEL 2
REMARK VINA RESULT:      -8.5      0.697      1.019
REMARK  Name = 
REMARK  7 active torsions:
REMARK  status: ('A' for Active; 'I' for Inactive)
REMARK    1  A    between atoms: C_1  and  O_2
REMARK    2  A    between atoms: O_2  and  C_3
REMARK    3  A    between atoms: C_7  and  N_8
REMARK    4  A    between atoms: N_8  and  C_9
REMARK    5  A    between atoms: C_9  and  C_10
REMARK    6  A    between atoms: C_9  and  C_21
REMARK    7  A    between atoms: C_10  and  C_12
REMARK                            x       y       z     vdW  Elec       q    Type
REMARK                         _______ _______ _______ _____ _____    ______ ____
ROOT
ATOM      1  C   UNL     1       3.366   5.702  18.632  0.00  0.00    +0.000 C 
ENDROOT
BRANCH   1   2
ATOM      2  C   UNL     1       2.538   4.399  18.651  0.00  0.00    +0.000 A 
ATOM      3  C   UNL     1       2.806   3.312  17.813  0.00  0.00    +0.000 A 
ATOM      4  C   UNL     1       2.072   2.131  17.949  0.00  0.00    +0.000 A 
ATOM      5  C   UNL     1       1.068   2.070  18.911  0.00  0.00    +0.000 A 
ATOM      6  N   UNL     1       0.764   3.106  19.716  0.00  0.00    +0.000 NA
ATOM      7  C   UNL     1       1.506   4.237  19.573  0.00  0.00    +0.000 A 
ENDBRANCH   1   2
BRANCH   1   8
ATOM      8  N   UNL     1       2.902   6.533  19.766  0.00  0.00    +0.000 N 
ATOM      9  H   UNL     1       2.359   5.979  20.428  0.00  0.00    +0.000 HD
BRANCH   8  14
ATOM     10  C   UNL     1       0.627   9.458  20.086  0.00  0.00    +0.000 A 
ATOM     11  C   UNL     1       0.597   9.899  18.766  0.00  0.00    +0.000 A 
ATOM     12  C   UNL     1       1.422   9.308  17.810  0.00  0.00    +0.000 A 
ATOM     13  C   UNL     1       2.240   8.232  18.165  0.00  0.00    +0.000 A 
ATOM     14  C   UNL     1       2.259   7.750  19.480  0.00  0.00    +0.000 A 
ATOM     15  C   UNL     1       1.465   8.401  20.432  0.00  0.00    +0.000 A 
BRANCH  10  17
ATOM     16  C   UNL     1      -0.868  11.258  20.510  0.00  0.00    +0.000 C 
ATOM     17  O   UNL     1      -0.291  10.024  20.925  0.00  0.00    +0.000 OA
ENDBRANCH  10  17
ENDBRANCH   8  14
ENDBRANCH   1   8
BRANCH   1  18
ATOM     18  C   UNL     1       4.890   5.456  18.702  0.00  0.00    +0.000 C 
ATOM     19  O   UNL     1       5.412   5.288  19.811  0.00  0.00    +0.000 OA
BRANCH  18  20
ATOM     20  C   UNL     1       5.799   5.402  17.519  0.00  0.00    +0.000 A 
ATOM     21  C   UNL     1       7.078   5.937  17.677  0.00  0.00    +0.000 A 
ATOM     22  N   UNL     1       7.493   6.331  16.447  0.00  0.00    +0.000 N 
ATOM     23  C   UNL     1       6.940   5.483  15.529  0.00  0.00    +0.000 A 
ATOM     24  C   UNL     1       7.359   5.236  14.216  0.00  0.00    +0.000 A 
ATOM     25  C   UNL     1       6.641   4.304  13.483  0.00  0.00    +0.000 A 
ATOM     26  C   UNL     1       5.492   3.730  14.022  0.00  0.00    +0.000 A 
ATOM     27  C   UNL     1       5.044   4.051  15.325  0.00  0.00    +0.000 A 
ATOM     28  C   UNL     1       5.817   4.901  16.151  0.00  0.00    +0.000 A 
ATOM     29  H   UNL     1       8.202   7.024  16.253  0.00  0.00    +0.000 HD
ENDBRANCH  18  20
ENDBRANCH   1  18
TORSDOF 6
ENDMDL
MODEL 3
REMARK VINA RESULT:      -8.5      2.505      7.796
REMARK  Name = 
REMARK  7 active torsions:
REMARK  status: ('A' for Active; 'I' for Inactive)
REMARK    1  A    between atoms: C_1  and  O_2
REMARK    2  A    between atoms: O_2  and  C_3
REMARK    3  A    between atoms: C_7  and  N_8
REMARK    4  A    between atoms: N_8  and  C_9
REMARK    5  A    between atoms: C_9  and  C_10
REMARK    6  A    between atoms: C_9  and  C_21
REMARK    7  A    between atoms: C_10  and  C_12
REMARK                            x       y       z     vdW  Elec       q    Type
REMARK                         _______ _______ _______ _____ _____    ______ ____
ROOT
ATOM      1  C   UNL     1       5.066   5.439  16.542  0.00  0.00    +0.000 C 
ENDROOT
BRANCH   1   2
ATOM      2  C   UNL     1       6.186   6.175  17.309  0.00  0.00    +0.000 A 
ATOM      3  C   UNL     1       6.888   5.602  18.374  0.00  0.00    +0.000 A 
ATOM      4  C   UNL     1       7.951   6.293  18.960  0.00  0.00    +0.000 A 
ATOM      5  C   UNL     1       8.276   7.558  18.481  0.00  0.00    +0.000 A 
ATOM      6  N   UNL     1       7.605   8.153  17.476  0.00  0.00    +0.000 NA
ATOM      7  C   UNL     1       6.586   7.450  16.912  0.00  0.00    +0.000 A 
ENDBRANCH   1   2
BRANCH   1   8
ATOM      8  N   UNL     1       5.676   4.244  15.917  0.00  0.00    +0.000 N 
ATOM      9  H   UNL     1       6.490   3.929  16.444  0.00  0.00    +0.000 HD
BRANCH   8  14
ATOM     10  C   UNL     1       5.568   3.410  12.293  0.00  0.00    +0.000 A 
ATOM     11  C   UNL     1       6.777   3.958  11.873  0.00  0.00    +0.000 A 
ATOM     12  C   UNL     1       7.554   4.704  12.758  0.00  0.00    +0.000 A 
ATOM     13  C   UNL     1       7.147   4.855  14.086  0.00  0.00    +0.000 A 
ATOM     14  C   UNL     1       5.952   4.282  14.538  0.00  0.00    +0.000 A 
ATOM     15  C   UNL     1       5.162   3.588  13.613  0.00  0.00    +0.000 A 
BRANCH  10  17
ATOM     16  C   UNL     1       3.737   3.117  10.805  0.00  0.00    +0.000 C 
ATOM     17  O   UNL     1       4.931   2.607  11.389  0.00  0.00    +0.000 OA
ENDBRANCH  10  17
ENDBRANCH   8  14
ENDBRANCH   1   8
BRANCH   1  18
ATOM     18  C   UNL     1       3.867   5.055  17.437  0.00  0.00    +0.000 C 
ATOM     19  O   UNL     1       3.362   3.934  17.301  0.00  0.00    +0.000 OA
BRANCH  18  20
ATOM     20  C   UNL     1       3.258   5.942  18.473  0.00  0.00    +0.000 A 
ATOM     21  C   UNL     1       3.392   5.546  19.803  0.00  0.00    +0.000 A 
ATOM     22  N   UNL     1       2.343   6.081  20.479  0.00  0.00    +0.000 N 
ATOM     23  C   UNL     1       2.027   7.269  19.883  0.00  0.00    +0.000 A 
ATOM     24  C   UNL     1       1.308   8.343  20.422  0.00  0.00    +0.000 A 
ATOM     25  C   UNL     1       1.136   9.461  19.620  0.00  0.00    +0.000 A 
ATOM     26  C   UNL     1       1.582   9.446  18.301  0.00  0.00    +0.000 A 
ATOM     27  C   UNL     1       2.240   8.319  17.753  0.00  0.00    +0.000 A 
ATOM     28  C   UNL     1       2.546   7.209  18.574  0.00  0.00    +0.000 A 
ATOM     29  H   UNL     1       1.966   5.743  21.353  0.00  0.00    +0.000 HD
ENDBRANCH  18  20
ENDBRANCH   1  18
TORSDOF 6
ENDMDL
MODEL 4
REMARK VINA RESULT:      -8.5      2.486      7.397
REMARK  Name = 
REMARK  7 active torsions:
REMARK  status: ('A' for Active; 'I' for Inactive)
REMARK    1  A    between atoms: C_1  and  O_2
REMARK    2  A    between atoms: O_2  and  C_3
REMARK    3  A    between atoms: C_7  and  N_8
REMARK    4  A    between atoms: N_8  and  C_9
REMARK    5  A    between atoms: C_9  and  C_10
REMARK    6  A    between atoms: C_9  and  C_21
REMARK    7  A    between atoms: C_10  and  C_12
REMARK                            x       y       z     vdW  Elec       q    Type
REMARK                         _______ _______ _______ _____ _____    ______ ____
ROOT
ATOM      1  C   UNL     1       5.112   6.354  16.660  0.00  0.00    +0.000 C 
ENDROOT
BRANCH   1   2
ATOM      2  C   UNL     1       6.212   6.177  17.729  0.00  0.00    +0.000 A 
ATOM      3  C   UNL     1       7.357   6.977  17.787  0.00  0.00    +0.000 A 
ATOM      4  C   UNL     1       8.265   6.819  18.837  0.00  0.00    +0.000 A 
ATOM      5  C   UNL     1       8.017   5.844  19.799  0.00  0.00    +0.000 A 
ATOM      6  N   UNL     1       6.940   5.037  19.760  0.00  0.00    +0.000 NA
ATOM      7  C   UNL     1       6.064   5.225  18.735  0.00  0.00    +0.000 A 
ENDBRANCH   1   2
BRANCH   1   8
ATOM      8  N   UNL     1       4.918   5.040  16.008  0.00  0.00    +0.000 N 
ATOM      9  H   UNL     1       5.115   4.277  16.655  0.00  0.00    +0.000 HD
BRANCH   8  14
ATOM     10  C   UNL     1       5.634   3.590  12.658  0.00  0.00    +0.000 A 
ATOM     11  C   UNL     1       6.962   3.976  12.496  0.00  0.00    +0.000 A 
ATOM     12  C   UNL     1       7.568   4.814  13.430  0.00  0.00    +0.000 A 
ATOM     13  C   UNL     1       6.860   5.223  14.563  0.00  0.00    +0.000 A 
ATOM     14  C   UNL     1       5.534   4.817  14.763  0.00  0.00    +0.000 A 
ATOM     15  C   UNL     1       4.931   4.024  13.779  0.00  0.00    +0.000 A 
BRANCH  10  17
ATOM     16  C   UNL     1       3.968   3.032  11.055  0.00  0.00    +0.000 C 
ATOM     17  O   UNL     1       5.161   2.684  11.750  0.00  0.00    +0.000 OA
ENDBRANCH  10  17
ENDBRANCH   8  14
ENDBRANCH   1   8
BRANCH   1  18
ATOM     18  C   UNL     1       3.785   6.898  17.236  0.00  0.00    +0.000 C 
ATOM     19  O   UNL     1       3.352   7.975  16.809  0.00  0.00    +0.000 OA
BRANCH  18  20
ATOM     20  C   UNL     1       2.967   6.215  18.282  0.00  0.00    +0.000 A 
ATOM     21  C   UNL     1       2.622   6.965  19.405  0.00  0.00    +0.000 A 
ATOM     22  N   UNL     1       2.443   6.085  20.424  0.00  0.00    +0.000 N 
ATOM     23  C   UNL     1       1.963   4.923  19.890  0.00  0.00    +0.000 A 
ATOM     24  C   UNL     1       1.275   3.891  20.541  0.00  0.00    +0.000 A 
ATOM     25  C   UNL     1       0.866   2.814  19.770  0.00  0.00    +0.000 A 
ATOM     26  C   UNL     1       1.230   2.739  18.428  0.00  0.00    +0.000 A 
ATOM     27  C   UNL     1       1.992   3.759  17.809  0.00  0.00    +0.000 A 
ATOM     28  C   UNL     1       2.321   4.933  18.527  0.00  0.00    +0.000 A 
ATOM     29  H   UNL     1       2.504   6.298  21.410  0.00  0.00    +0.000 HD
ENDBRANCH  18  20
ENDBRANCH   1  18
TORSDOF 6
ENDMDL
MODEL 5
REMARK VINA RESULT:      -8.1      2.547      7.925
REMARK  Name = 
REMARK  7 active torsions:
REMARK  status: ('A' for Active; 'I' for Inactive)
REMARK    1  A    between atoms: C_1  and  O_2
REMARK    2  A    between atoms: O_2  and  C_3
REMARK    3  A    between atoms: C_7  and  N_8
REMARK    4  A    between atoms: N_8  and  C_9
REMARK    5  A    between atoms: C_9  and  C_10
REMARK    6  A    between atoms: C_9  and  C_21
REMARK    7  A    between atoms: C_10  and  C_12
REMARK                            x       y       z     vdW  Elec       q    Type
REMARK                         _______ _______ _______ _____ _____    ______ ____
ROOT
ATOM      1  C   UNL     1       5.221   4.793  16.657  0.00  0.00    +0.000 C 
ENDROOT
BRANCH   1   2
ATOM      2  C   UNL     1       6.230   5.735  17.348  0.00  0.00    +0.000 A 
ATOM      3  C   UNL     1       7.050   5.333  18.406  0.00  0.00    +0.000 A 
ATOM      4  C   UNL     1       8.005   6.213  18.922  0.00  0.00    +0.000 A 
ATOM      5  C   UNL     1       8.103   7.491  18.379  0.00  0.00    +0.000 A 
ATOM      6  N   UNL     1       7.312   7.922  17.379  0.00  0.00    +0.000 NA
ATOM      7  C   UNL     1       6.403   7.038  16.885  0.00  0.00    +0.000 A 
ENDBRANCH   1   2
BRANCH   1   8
ATOM      8  N   UNL     1       6.004   3.781  15.913  0.00  0.00    +0.000 N 
ATOM      9  H   UNL     1       6.884   3.579  16.386  0.00  0.00    +0.000 HD
BRANCH   8  14
ATOM     10  C   UNL     1       5.939   3.195  12.241  0.00  0.00    +0.000 A 
ATOM     11  C   UNL     1       6.970   4.037  11.834  0.00  0.00    +0.000 A 
ATOM     12  C   UNL     1       7.590   4.882  12.752  0.00  0.00    +0.000 A 
ATOM     13  C   UNL     1       7.216   4.843  14.098  0.00  0.00    +0.000 A 
ATOM     14  C   UNL     1       6.206   3.977  14.535  0.00  0.00    +0.000 A 
ATOM     15  C   UNL     1       5.559   3.183  13.580  0.00  0.00    +0.000 A 
BRANCH  10  17
ATOM     16  C   UNL     1       6.156   1.092  11.151  0.00  0.00    +0.000 C 
ATOM     17  O   UNL     1       5.467   2.329  11.294  0.00  0.00    +0.000 OA
ENDBRANCH  10  17
ENDBRANCH   8  14
ENDBRANCH   1   8
BRANCH   1  18
ATOM     18  C   UNL     1       4.235   4.127  17.643  0.00  0.00    +0.000 C 
ATOM     19  O   UNL     1       4.025   2.913  17.541  0.00  0.00    +0.000 OA
BRANCH  18  20
ATOM     20  C   UNL     1       3.504   4.844  18.731  0.00  0.00    +0.000 A 
ATOM     21  C   UNL     1       3.393   4.188  19.957  0.00  0.00    +0.000 A 
ATOM     22  N   UNL     1       2.272   4.665  20.556  0.00  0.00    +0.000 N 
ATOM     23  C   UNL     1       2.118   5.967  20.173  0.00  0.00    +0.000 A 
ATOM     24  C   UNL     1       1.371   6.972  20.801  0.00  0.00    +0.000 A 
ATOM     25  C   UNL     1       1.390   8.233  20.227  0.00  0.00    +0.000 A 
ATOM     26  C   UNL     1       2.050   8.438  19.018  0.00  0.00    +0.000 A 
ATOM     27  C   UNL     1       2.737   7.389  18.361  0.00  0.00    +0.000 A 
ATOM     28  C   UNL     1       2.846   6.120  18.976  0.00  0.00    +0.000 A 
ATOM     29  H   UNL     1       1.738   4.196  21.274  0.00  0.00    +0.000 HD
ENDBRANCH  18  20
ENDBRANCH   1  18
TORSDOF 6
ENDMDL
MODEL 6
REMARK VINA RESULT:      -8.0      1.143      1.883
REMARK  Name = 
REMARK  7 active torsions:
REMARK  status: ('A' for Active; 'I' for Inactive)
REMARK    1  A    between atoms: C_1  and  O_2
REMARK    2  A    between atoms: O_2  and  C_3
REMARK    3  A    between atoms: C_7  and  N_8
REMARK    4  A    between atoms: N_8  and  C_9
REMARK    5  A    between atoms: C_9  and  C_10
REMARK    6  A    between atoms: C_9  and  C_21
REMARK    7  A    between atoms: C_10  and  C_12
REMARK                            x       y       z     vdW  Elec       q    Type
REMARK                         _______ _______ _______ _____ _____    ______ ____
ROOT
ATOM      1  C   UNL     1       3.582   5.543  18.789  0.00  0.00    +0.000 C 
ENDROOT
BRANCH   1   2
ATOM      2  C   UNL     1       2.809   4.207  18.806  0.00  0.00    +0.000 A 
ATOM      3  C   UNL     1       2.865   3.278  17.761  0.00  0.00    +0.000 A 
ATOM      4  C   UNL     1       2.212   2.049  17.886  0.00  0.00    +0.000 A 
ATOM      5  C   UNL     1       1.496   1.784  19.049  0.00  0.00    +0.000 A 
ATOM      6  N   UNL     1       1.397   2.664  20.063  0.00  0.00    +0.000 NA
ATOM      7  C   UNL     1       2.057   3.845  19.922  0.00  0.00    +0.000 A 
ENDBRANCH   1   2
BRANCH   1   8
ATOM      8  N   UNL     1       3.140   6.320  19.969  0.00  0.00    +0.000 N 
ATOM      9  H   UNL     1       2.798   5.704  20.706  0.00  0.00    +0.000 HD
BRANCH   8  14
ATOM     10  C   UNL     1       1.668   9.422  18.539  0.00  0.00    +0.000 A 
ATOM     11  C   UNL     1       0.847   9.818  19.591  0.00  0.00    +0.000 A 
ATOM     12  C   UNL     1       0.690   8.997  20.706  0.00  0.00    +0.000 A 
ATOM     13  C   UNL     1       1.403   7.799  20.796  0.00  0.00    +0.000 A 
ATOM     14  C   UNL     1       2.262   7.398  19.764  0.00  0.00    +0.000 A 
ATOM     15  C   UNL     1       2.354   8.214  18.629  0.00  0.00    +0.000 A 
BRANCH  10  17
ATOM     16  C   UNL     1       2.349  11.615  17.919  0.00  0.00    +0.000 C 
ATOM     17  O   UNL     1       1.843  10.339  17.541  0.00  0.00    +0.000 OA
ENDBRANCH  10  17
ENDBRANCH   8  14
ENDBRANCH   1   8
BRANCH   1  18
ATOM     18  C   UNL     1       5.116   5.359  18.780  0.00  0.00    +0.000 C 
ATOM     19  O   UNL     1       5.702   5.214  19.860  0.00  0.00    +0.000 OA
BRANCH  18  20
ATOM     20  C   UNL     1       5.965   5.338  17.551  0.00  0.00    +0.000 A 
ATOM     21  C   UNL     1       7.234   5.906  17.648  0.00  0.00    +0.000 A 
ATOM     22  N   UNL     1       7.574   6.321  16.401  0.00  0.00    +0.000 N 
ATOM     23  C   UNL     1       6.998   5.465  15.506  0.00  0.00    +0.000 A 
ATOM     24  C   UNL     1       7.355   5.239  14.171  0.00  0.00    +0.000 A 
ATOM     25  C   UNL     1       6.626   4.292  13.468  0.00  0.00    +0.000 A 
ATOM     26  C   UNL     1       5.522   3.683  14.060  0.00  0.00    +0.000 A 
ATOM     27  C   UNL     1       5.134   3.983  15.388  0.00  0.00    +0.000 A 
ATOM     28  C   UNL     1       5.925   4.848  16.180  0.00  0.00    +0.000 A 
ATOM     29  H   UNL     1       8.254   7.035  16.178  0.00  0.00    +0.000 HD
ENDBRANCH  18  20
ENDBRANCH   1  18
TORSDOF 6
ENDMDL
MODEL 7
REMARK VINA RESULT:      -8.0      2.961      7.659
REMARK  Name = 
REMARK  7 active torsions:
REMARK  status: ('A' for Active; 'I' for Inactive)
REMARK    1  A    between atoms: C_1  and  O_2
REMARK    2  A    between atoms: O_2  and  C_3
REMARK    3  A    between atoms: C_7  and  N_8
REMARK    4  A    between atoms: N_8  and  C_9
REMARK    5  A    between atoms: C_9  and  C_10
REMARK    6  A    between atoms: C_9  and  C_21
REMARK    7  A    between atoms: C_10  and  C_12
REMARK                            x       y       z     vdW  Elec       q    Type
REMARK                         _______ _______ _______ _____ _____    ______ ____
ROOT
ATOM      1  C   UNL     1       5.038   5.861  16.765  0.00  0.00    +0.000 C 
ENDROOT
BRANCH   1   2
ATOM      2  C   UNL     1       6.225   5.972  17.745  0.00  0.00    +0.000 A 
ATOM      3  C   UNL     1       7.235   6.931  17.617  0.00  0.00    +0.000 A 
ATOM      4  C   UNL     1       8.229   7.031  18.594  0.00  0.00    +0.000 A 
ATOM      5  C   UNL     1       8.203   6.152  19.671  0.00  0.00    +0.000 A 
ATOM      6  N   UNL     1       7.263   5.198  19.814  0.00  0.00    +0.000 NA
ATOM      7  C   UNL     1       6.298   5.135  18.857  0.00  0.00    +0.000 A 
ENDBRANCH   1   2
BRANCH   1   8
ATOM      8  N   UNL     1       5.150   4.550  16.088  0.00  0.00    +0.000 N 
ATOM      9  H   UNL     1       5.624   3.870  16.681  0.00  0.00    +0.000 HD
BRANCH   8  14
ATOM     10  C   UNL     1       5.646   3.556  12.538  0.00  0.00    +0.000 A 
ATOM     11  C   UNL     1       6.925   4.056  12.313  0.00  0.00    +0.000 A 
ATOM     12  C   UNL     1       7.560   4.823  13.288  0.00  0.00    +0.000 A 
ATOM     13  C   UNL     1       6.934   5.043  14.518  0.00  0.00    +0.000 A 
ATOM     14  C   UNL     1       5.662   4.519  14.778  0.00  0.00    +0.000 A 
ATOM     15  C   UNL     1       5.023   3.803  13.758  0.00  0.00    +0.000 A 
BRANCH  10  17
ATOM     16  C   UNL     1       3.863   3.043  11.050  0.00  0.00    +0.000 C 
ATOM     17  O   UNL     1       5.150   2.728  11.569  0.00  0.00    +0.000 OA
ENDBRANCH  10  17
ENDBRANCH   8  14
ENDBRANCH   1   8
BRANCH   1  18
ATOM     18  C   UNL     1       3.663   6.022  17.453  0.00  0.00    +0.000 C 
ATOM     19  O   UNL     1       3.166   7.153  17.523  0.00  0.00    +0.000 OA
BRANCH  18  20
ATOM     20  C   UNL     1       2.871   4.905  18.047  0.00  0.00    +0.000 A 
ATOM     21  C   UNL     1       2.299   3.993  17.160  0.00  0.00    +0.000 A 
ATOM     22  N   UNL     1       1.209   3.474  17.781  0.00  0.00    +0.000 N 
ATOM     23  C   UNL     1       1.471   3.438  19.122  0.00  0.00    +0.000 A 
ATOM     24  C   UNL     1       0.849   2.658  20.105  0.00  0.00    +0.000 A 
ATOM     25  C   UNL     1       1.313   2.784  21.405  0.00  0.00    +0.000 A 
ATOM     26  C   UNL     1       2.289   3.730  21.708  0.00  0.00    +0.000 A 
ATOM     27  C   UNL     1       2.851   4.562  20.709  0.00  0.00    +0.000 A 
ATOM     28  C   UNL     1       2.495   4.379  19.352  0.00  0.00    +0.000 A 
ATOM     29  H   UNL     1       0.413   3.048  17.327  0.00  0.00    +0.000 HD
ENDBRANCH  18  20
ENDBRANCH   1  18
TORSDOF 6
ENDMDL
MODEL 8
REMARK VINA RESULT:      -8.0      2.444      7.378
REMARK  Name = 
REMARK  7 active torsions:
REMARK  status: ('A' for Active; 'I' for Inactive)
REMARK    1  A    between atoms: C_1  and  O_2
REMARK    2  A    between atoms: O_2  and  C_3
REMARK    3  A    between atoms: C_7  and  N_8
REMARK    4  A    between atoms: N_8  and  C_9
REMARK    5  A    between atoms: C_9  and  C_10
REMARK    6  A    between atoms: C_9  and  C_21
REMARK    7  A    between atoms: C_10  and  C_12
REMARK                            x       y       z     vdW  Elec       q    Type
REMARK                         _______ _______ _______ _____ _____    ______ ____
ROOT
ATOM      1  C   UNL     1       5.017   6.294  16.703  0.00  0.00    +0.000 C 
ENDROOT
BRANCH   1   2
ATOM      2  C   UNL     1       6.151   6.145  17.739  0.00  0.00    +0.000 A 
ATOM      3  C   UNL     1       7.285   6.965  17.755  0.00  0.00    +0.000 A 
ATOM      4  C   UNL     1       8.226   6.831  18.779  0.00  0.00    +0.000 A 
ATOM      5  C   UNL     1       8.023   5.863  19.757  0.00  0.00    +0.000 A 
ATOM      6  N   UNL     1       6.959   5.038  19.759  0.00  0.00    +0.000 NA
ATOM      7  C   UNL     1       6.049   5.202  18.760  0.00  0.00    +0.000 A 
ENDBRANCH   1   2
BRANCH   1   8
ATOM      8  N   UNL     1       4.789   4.959  16.108  0.00  0.00    +0.000 N 
ATOM      9  H   UNL     1       4.787   4.233  16.824  0.00  0.00    +0.000 HD
BRANCH   8  14
ATOM     10  C   UNL     1       7.465   5.007  13.524  0.00  0.00    +0.000 A 
ATOM     11  C   UNL     1       6.903   4.169  12.565  0.00  0.00    +0.000 A 
ATOM     12  C   UNL     1       5.711   3.498  12.831  0.00  0.00    +0.000 A 
ATOM     13  C   UNL     1       5.047   3.711  14.042  0.00  0.00    +0.000 A 
ATOM     14  C   UNL     1       5.576   4.578  15.006  0.00  0.00    +0.000 A 
ATOM     15  C   UNL     1       6.805   5.192  14.737  0.00  0.00    +0.000 A 
BRANCH  10  17
ATOM     16  C   UNL     1       8.493   6.404  11.897  0.00  0.00    +0.000 C 
ATOM     17  O   UNL     1       8.575   5.702  13.133  0.00  0.00    +0.000 OA
ENDBRANCH  10  17
ENDBRANCH   8  14
ENDBRANCH   1   8
BRANCH   1  18
ATOM     18  C   UNL     1       3.716   6.872  17.303  0.00  0.00    +0.000 C 
ATOM     19  O   UNL     1       3.313   7.969  16.897  0.00  0.00    +0.000 OA
BRANCH  18  20
ATOM     20  C   UNL     1       2.889   6.201  18.349  0.00  0.00    +0.000 A 
ATOM     21  C   UNL     1       2.538   6.962  19.464  0.00  0.00    +0.000 A 
ATOM     22  N   UNL     1       2.350   6.092  20.489  0.00  0.00    +0.000 N 
ATOM     23  C   UNL     1       1.870   4.927  19.963  0.00  0.00    +0.000 A 
ATOM     24  C   UNL     1       1.173   3.904  20.618  0.00  0.00    +0.000 A 
ATOM     25  C   UNL     1       0.766   2.821  19.854  0.00  0.00    +0.000 A 
ATOM     26  C   UNL     1       1.138   2.733  18.516  0.00  0.00    +0.000 A 
ATOM     27  C   UNL     1       1.908   3.744  17.892  0.00  0.00    +0.000 A 
ATOM     28  C   UNL     1       2.236   4.923  18.602  0.00  0.00    +0.000 A 
ATOM     29  H   UNL     1       2.405   6.314  21.473  0.00  0.00    +0.000 HD
ENDBRANCH  18  20
ENDBRANCH   1  18
TORSDOF 6
ENDMDL
MODEL 9
REMARK VINA RESULT:      -8.0      1.571      1.938
REMARK  Name = 
REMARK  7 active torsions:
REMARK  status: ('A' for Active; 'I' for Inactive)
REMARK    1  A    between atoms: C_1  and  O_2
REMARK    2  A    between atoms: O_2  and  C_3
REMARK    3  A    between atoms: C_7  and  N_8
REMARK    4  A    between atoms: N_8  and  C_9
REMARK    5  A    between atoms: C_9  and  C_10
REMARK    6  A    between atoms: C_9  and  C_21
REMARK    7  A    between atoms: C_10  and  C_12
REMARK                            x       y       z     vdW  Elec       q    Type
REMARK                         _______ _______ _______ _____ _____    ______ ____
ROOT
ATOM      1  C   UNL     1       3.494   4.559  17.654  0.00  0.00    +0.000 C 
ENDROOT
BRANCH   1   2
ATOM      2  C   UNL     1       2.736   3.877  18.813  0.00  0.00    +0.000 A 
ATOM      3  C   UNL     1       3.344   3.528  20.023  0.00  0.00    +0.000 A 
ATOM      4  C   UNL     1       2.575   2.997  21.062  0.00  0.00    +0.000 A 
ATOM      5  C   UNL     1       1.212   2.806  20.859  0.00  0.00    +0.000 A 
ATOM      6  N   UNL     1       0.597   3.104  19.699  0.00  0.00    +0.000 NA
ATOM      7  C   UNL     1       1.367   3.636  18.711  0.00  0.00    +0.000 A 
ENDBRANCH   1   2
BRANCH   1   8
ATOM      8  N   UNL     1       4.169   5.752  18.213  0.00  0.00    +0.000 N 
ATOM      9  H   UNL     1       4.768   5.499  18.998  0.00  0.00    +0.000 HD
BRANCH   8  14
ATOM     10  C   UNL     1       1.746   7.968  19.961  0.00  0.00    +0.000 A 
ATOM     11  C   UNL     1       1.446   8.866  18.941  0.00  0.00    +0.000 A 
ATOM     12  C   UNL     1       2.136   8.810  17.732  0.00  0.00    +0.000 A 
ATOM     13  C   UNL     1       3.092   7.814  17.520  0.00  0.00    +0.000 A 
ATOM     14  C   UNL     1       3.384   6.878  18.520  0.00  0.00    +0.000 A 
ATOM     15  C   UNL     1       2.718   6.994  19.747  0.00  0.00    +0.000 A 
BRANCH  10  17
ATOM     16  C   UNL     1       0.359   9.294  21.365  0.00  0.00    +0.000 C 
ATOM     17  O   UNL     1       0.945   8.032  21.067  0.00  0.00    +0.000 OA
ENDBRANCH  10  17
ENDBRANCH   8  14
ENDBRANCH   1   8
BRANCH   1  18
ATOM     18  C   UNL     1       4.500   3.622  16.949  0.00  0.00    +0.000 C 
ATOM     19  O   UNL     1       4.399   2.403  17.129  0.00  0.00    +0.000 OA
BRANCH  18  20
ATOM     20  C   UNL     1       5.602   4.077  16.050  0.00  0.00    +0.000 A 
ATOM     21  C   UNL     1       6.716   4.656  16.657  0.00  0.00    +0.000 A 
ATOM     22  N   UNL     1       7.269   5.494  15.742  0.00  0.00    +0.000 N 
ATOM     23  C   UNL     1       7.048   4.962  14.504  0.00  0.00    +0.000 A 
ATOM     24  C   UNL     1       7.733   5.230  13.312  0.00  0.00    +0.000 A 
ATOM     25  C   UNL     1       7.334   4.538  12.179  0.00  0.00    +0.000 A 
ATOM     26  C   UNL     1       6.227   3.695  12.231  0.00  0.00    +0.000 A 
ATOM     27  C   UNL     1       5.503   3.496  13.431  0.00  0.00    +0.000 A 
ATOM     28  C   UNL     1       5.953   4.085  14.636  0.00  0.00    +0.000 A 
ATOM     29  H   UNL     1       7.867   6.282  15.945  0.00  0.00    +0.000 HD
ENDBRANCH  18  20
ENDBRANCH   1  18
TORSDOF 6
ENDMDL
