MODEL 1
REMARK VINA RESULT:      -9.1      0.000      0.000
REMARK  Name = 
REMARK  8 active torsions:
REMARK  status: ('A' for Active; 'I' for Inactive)
REMARK    1  A    between atoms: C_1  and  O_2
REMARK    2  A    between atoms: O_2  and  C_3
REMARK    3  A    between atoms: C_6  and  O_7
REMARK    4  A    between atoms: O_7  and  C_8
REMARK    5  A    between atoms: C_11  and  S_12
REMARK    6  A    between atoms: S_12  and  C_15
REMARK    7  A    between atoms: C_15  and  C_16
REMARK    8  A    between atoms: N_18  and  O_19
REMARK                            x       y       z     vdW  Elec       q    Type
REMARK                         _______ _______ _______ _____ _____    ______ ____
ROOT
ATOM      1  S   UNL     1       2.321   4.026  19.650  0.00  0.00    +0.000 S 
ATOM      2  O   UNL     1       2.457   3.700  21.056  0.00  0.00    +0.000 OA
ATOM      3  O   UNL     1       1.254   3.417  18.872  0.00  0.00    +0.000 OA
ENDROOT
BRANCH   1   4
ATOM      4  C   UNL     1       3.890   3.663  18.843  0.00  0.00    +0.000 C 
ATOM      5  C   UNL     1       4.973   4.652  19.292  0.00  0.00    +0.000 C 
ATOM      6  C   UNL     1       5.931   4.784  18.119  0.00  0.00    +0.000 C 
ATOM      7  C   UNL     1       5.099   4.563  16.839  0.00  0.00    +0.000 C 
ATOM      8  C   UNL     1       5.863   3.667  15.838  0.00  0.00    +0.000 C 
ATOM      9  C   UNL     1       7.087   4.371  15.250  0.00  0.00    +0.000 C 
ATOM     10  N   UNL     1       6.724   5.619  14.579  0.00  0.00    +0.000 NA
ATOM     11  C   UNL     1       6.024   6.534  15.480  0.00  0.00    +0.000 C 
ATOM     12  C   UNL     1       4.783   5.891  16.111  0.00  0.00    +0.000 C 
ATOM     13  C   UNL     1       3.789   3.882  17.314  0.00  0.00    +0.000 C 
ATOM     14  H   UNL     1       6.123   5.408  13.781  0.00  0.00    +0.000 HD
BRANCH   4  15
ATOM     15  C   UNL     1       4.236   2.214  19.176  0.00  0.00    +0.000 C 
ATOM     16  O   UNL     1       3.772   1.251  18.562  0.00  0.00    +0.000 OA
ATOM     17  N   UNL     1       5.103   2.014  20.228  0.00  0.00    +0.000 N 
ATOM     18  H   UNL     1       5.781   2.724  20.519  0.00  0.00    +0.000 HD
BRANCH  17  19
ATOM     19  O   UNL     1       5.499   0.670  20.440  0.00  0.00    +0.000 OA
ATOM     20  H   UNL     1       4.796   0.159  19.984  0.00  0.00    +0.000 HD
ENDBRANCH  17  19
ENDBRANCH   4  15
ENDBRANCH   1   4
BRANCH   1  24
ATOM     21  C   UNL     1       1.710   8.547  19.271  0.00  0.00    +0.000 A 
ATOM     22  C   UNL     1       2.069   7.777  18.155  0.00  0.00    +0.000 A 
ATOM     23  C   UNL     1       2.218   6.397  18.270  0.00  0.00    +0.000 A 
ATOM     24  C   UNL     1       2.100   5.791  19.522  0.00  0.00    +0.000 A 
ATOM     25  C   UNL     1       1.759   6.552  20.648  0.00  0.00    +0.000 A 
ATOM     26  C   UNL     1       1.577   7.931  20.517  0.00  0.00    +0.000 A 
BRANCH  21  27
ATOM     27  O   UNL     1       1.480   9.909  19.204  0.00  0.00    +0.000 OA
BRANCH  27  31
ATOM     28  C   UNL     1      -2.365  11.383  18.500  0.00  0.00    +0.000 A 
ATOM     29  C   UNL     1      -1.809  10.461  17.617  0.00  0.00    +0.000 A 
ATOM     30  C   UNL     1      -0.562   9.897  17.878  0.00  0.00    +0.000 A 
ATOM     31  C   UNL     1       0.184  10.327  18.980  0.00  0.00    +0.000 A 
ATOM     32  C   UNL     1      -0.384  11.218  19.891  0.00  0.00    +0.000 A 
ATOM     33  C   UNL     1      -1.662  11.744  19.653  0.00  0.00    +0.000 A 
BRANCH  28  35
ATOM     34  C   UNL     1      -4.192  11.243  17.013  0.00  0.00    +0.000 C 
ATOM     35  O   UNL     1      -3.562  11.906  18.101  0.00  0.00    +0.000 OA
ENDBRANCH  28  35
ENDBRANCH  27  31
ENDBRANCH  21  27
ENDBRANCH   1  24
TORSDOF 7
ENDMDL
MODEL 2
REMARK VINA RESULT:      -9.0      0.248      1.231
REMARK  Name = 
REMARK  8 active torsions:
REMARK  status: ('A' for Active; 'I' for Inactive)
REMARK    1  A    between atoms: C_1  and  O_2
REMARK    2  A    between atoms: O_2  and  C_3
REMARK    3  A    between atoms: C_6  and  O_7
REMARK    4  A    between atoms: O_7  and  C_8
REMARK    5  A    between atoms: C_11  and  S_12
REMARK    6  A    between atoms: S_12  and  C_15
REMARK    7  A    between atoms: C_15  and  C_16
REMARK    8  A    between atoms: N_18  and  O_19
REMARK                            x       y       z     vdW  Elec       q    Type
REMARK                         _______ _______ _______ _____ _____    ______ ____
ROOT
ATOM      1  S   UNL     1       2.305   4.116  19.705  0.00  0.00    +0.000 S 
ATOM      2  O   UNL     1       2.457   3.856  21.124  0.00  0.00    +0.000 OA
ATOM      3  O   UNL     1       1.236   3.466  18.966  0.00  0.00    +0.000 OA
ENDROOT
BRANCH   1   4
ATOM      4  C   UNL     1       3.869   3.729  18.900  0.00  0.00    +0.000 C 
ATOM      5  C   UNL     1       4.966   4.707  19.343  0.00  0.00    +0.000 C 
ATOM      6  C   UNL     1       5.924   4.819  18.170  0.00  0.00    +0.000 C 
ATOM      7  C   UNL     1       5.090   4.601  16.891  0.00  0.00    +0.000 C 
ATOM      8  C   UNL     1       5.842   3.689  15.895  0.00  0.00    +0.000 C 
ATOM      9  C   UNL     1       7.075   4.374  15.303  0.00  0.00    +0.000 C 
ATOM     10  N   UNL     1       6.728   5.623  14.624  0.00  0.00    +0.000 NA
ATOM     11  C   UNL     1       6.039   6.552  15.520  0.00  0.00    +0.000 C 
ATOM     12  C   UNL     1       4.790   5.929  16.155  0.00  0.00    +0.000 C 
ATOM     13  C   UNL     1       3.771   3.940  17.371  0.00  0.00    +0.000 C 
ATOM     14  H   UNL     1       6.124   5.415  13.828  0.00  0.00    +0.000 HD
BRANCH   4  15
ATOM     15  C   UNL     1       4.197   2.278  19.242  0.00  0.00    +0.000 C 
ATOM     16  O   UNL     1       3.695   1.317  18.657  0.00  0.00    +0.000 OA
ATOM     17  N   UNL     1       5.095   2.074  20.269  0.00  0.00    +0.000 N 
ATOM     18  H   UNL     1       5.795   2.773  20.528  0.00  0.00    +0.000 HD
BRANCH  17  19
ATOM     19  O   UNL     1       5.470   0.726  20.486  0.00  0.00    +0.000 OA
ATOM     20  H   UNL     1       4.610   0.280  20.646  0.00  0.00    +0.000 HD
ENDBRANCH  17  19
ENDBRANCH   4  15
ENDBRANCH   1   4
BRANCH   1  24
ATOM     21  C   UNL     1       1.744   8.635  19.233  0.00  0.00    +0.000 A 
ATOM     22  C   UNL     1       1.543   8.015  20.475  0.00  0.00    +0.000 A 
ATOM     23  C   UNL     1       1.750   6.645  20.619  0.00  0.00    +0.000 A 
ATOM     24  C   UNL     1       2.070   5.873  19.501  0.00  0.00    +0.000 A 
ATOM     25  C   UNL     1       2.257   6.479  18.252  0.00  0.00    +0.000 A 
ATOM     26  C   UNL     1       2.081   7.859  18.123  0.00  0.00    +0.000 A 
BRANCH  21  27
ATOM     27  O   UNL     1       1.621  10.000  19.045  0.00  0.00    +0.000 OA
BRANCH  27  31
ATOM     28  C   UNL     1      -2.313  11.346  18.641  0.00  0.00    +0.000 A 
ATOM     29  C   UNL     1      -1.492  11.902  19.619  0.00  0.00    +0.000 A 
ATOM     30  C   UNL     1      -0.154  11.525  19.715  0.00  0.00    +0.000 A 
ATOM     31  C   UNL     1       0.348  10.512  18.893  0.00  0.00    +0.000 A 
ATOM     32  C   UNL     1      -0.455   9.980  17.885  0.00  0.00    +0.000 A 
ATOM     33  C   UNL     1      -1.787  10.400  17.755  0.00  0.00    +0.000 A 
BRANCH  28  35
ATOM     34  C   UNL     1      -4.529  10.991  17.911  0.00  0.00    +0.000 C 
ATOM     35  O   UNL     1      -3.616  11.753  18.690  0.00  0.00    +0.000 OA
ENDBRANCH  28  35
ENDBRANCH  27  31
ENDBRANCH  21  27
ENDBRANCH   1  24
TORSDOF 7
ENDMDL
MODEL 3
REMARK VINA RESULT:      -8.9      0.586      1.143
REMARK  Name = 
REMARK  8 active torsions:
REMARK  status: ('A' for Active; 'I' for Inactive)
REMARK    1  A    between atoms: C_1  and  O_2
REMARK    2  A    between atoms: O_2  and  C_3
REMARK    3  A    between atoms: C_6  and  O_7
REMARK    4  A    between atoms: O_7  and  C_8
REMARK    5  A    between atoms: C_11  and  S_12
REMARK    6  A    between atoms: S_12  and  C_15
REMARK    7  A    between atoms: C_15  and  C_16
REMARK    8  A    between atoms: N_18  and  O_19
REMARK                            x       y       z     vdW  Elec       q    Type
REMARK                         _______ _______ _______ _____ _____    ______ ____
ROOT
ATOM      1  S   UNL     1       2.319   4.035  19.712  0.00  0.00    +0.000 S 
ATOM      2  O   UNL     1       2.478   3.759  21.126  0.00  0.00    +0.000 OA
ATOM      3  O   UNL     1       1.249   3.388  18.970  0.00  0.00    +0.000 OA
ENDROOT
BRANCH   1   4
ATOM      4  C   UNL     1       3.881   3.664  18.895  0.00  0.00    +0.000 C 
ATOM      5  C   UNL     1       4.976   4.638  19.349  0.00  0.00    +0.000 C 
ATOM      6  C   UNL     1       5.930   4.771  18.174  0.00  0.00    +0.000 C 
ATOM      7  C   UNL     1       5.091   4.571  16.895  0.00  0.00    +0.000 C 
ATOM      8  C   UNL     1       5.842   3.677  15.882  0.00  0.00    +0.000 C 
ATOM      9  C   UNL     1       7.071   4.374  15.296  0.00  0.00    +0.000 C 
ATOM     10  N   UNL     1       6.718   5.632  14.638  0.00  0.00    +0.000 NA
ATOM     11  C   UNL     1       6.030   6.545  15.551  0.00  0.00    +0.000 C 
ATOM     12  C   UNL     1       4.786   5.909  16.181  0.00  0.00    +0.000 C 
ATOM     13  C   UNL     1       3.776   3.898  17.369  0.00  0.00    +0.000 C 
ATOM     14  H   UNL     1       6.111   5.434  13.841  0.00  0.00    +0.000 HD
BRANCH   4  15
ATOM     15  C   UNL     1       4.214   2.209  19.213  0.00  0.00    +0.000 C 
ATOM     16  O   UNL     1       3.740   1.257  18.590  0.00  0.00    +0.000 OA
ATOM     17  N   UNL     1       5.081   1.990  20.262  0.00  0.00    +0.000 N 
ATOM     18  H   UNL     1       5.766   2.690  20.559  0.00  0.00    +0.000 HD
BRANCH  17  19
ATOM     19  O   UNL     1       5.465   0.641  20.459  0.00  0.00    +0.000 OA
ATOM     20  H   UNL     1       5.201   0.211  19.616  0.00  0.00    +0.000 HD
ENDBRANCH  17  19
ENDBRANCH   4  15
ENDBRANCH   1   4
BRANCH   1  24
ATOM     21  C   UNL     1       1.735   8.556  19.293  0.00  0.00    +0.000 A 
ATOM     22  C   UNL     1       1.567   7.925  20.534  0.00  0.00    +0.000 A 
ATOM     23  C   UNL     1       1.781   6.554  20.662  0.00  0.00    +0.000 A 
ATOM     24  C   UNL     1       2.074   5.792  19.529  0.00  0.00    +0.000 A 
ATOM     25  C   UNL     1       2.228   6.409  18.281  0.00  0.00    +0.000 A 
ATOM     26  C   UNL     1       2.045   7.790  18.168  0.00  0.00    +0.000 A 
BRANCH  21  27
ATOM     27  O   UNL     1       1.605   9.922  19.120  0.00  0.00    +0.000 OA
BRANCH  27  31
ATOM     28  C   UNL     1      -2.150  11.743  19.321  0.00  0.00    +0.000 A 
ATOM     29  C   UNL     1      -1.889  10.810  18.320  0.00  0.00    +0.000 A 
ATOM     30  C   UNL     1      -0.673  10.133  18.286  0.00  0.00    +0.000 A 
ATOM     31  C   UNL     1       0.334  10.457  19.200  0.00  0.00    +0.000 A 
ATOM     32  C   UNL     1       0.067  11.359  20.230  0.00  0.00    +0.000 A 
ATOM     33  C   UNL     1      -1.179  12.001  20.293  0.00  0.00    +0.000 A 
BRANCH  28  35
ATOM     34  C   UNL     1      -3.985  12.725  20.434  0.00  0.00    +0.000 C 
ATOM     35  O   UNL     1      -3.353  12.381  19.208  0.00  0.00    +0.000 OA
ENDBRANCH  28  35
ENDBRANCH  27  31
ENDBRANCH  21  27
ENDBRANCH   1  24
TORSDOF 7
ENDMDL
MODEL 4
REMARK VINA RESULT:      -8.4      1.158      1.833
REMARK  Name = 
REMARK  8 active torsions:
REMARK  status: ('A' for Active; 'I' for Inactive)
REMARK    1  A    between atoms: C_1  and  O_2
REMARK    2  A    between atoms: O_2  and  C_3
REMARK    3  A    between atoms: C_6  and  O_7
REMARK    4  A    between atoms: O_7  and  C_8
REMARK    5  A    between atoms: C_11  and  S_12
REMARK    6  A    between atoms: S_12  and  C_15
REMARK    7  A    between atoms: C_15  and  C_16
REMARK    8  A    between atoms: N_18  and  O_19
REMARK                            x       y       z     vdW  Elec       q    Type
REMARK                         _______ _______ _______ _____ _____    ______ ____
ROOT
ATOM      1  S   UNL     1       2.293   4.357  19.628  0.00  0.00    +0.000 S 
ATOM      2  O   UNL     1       2.420   4.118  21.052  0.00  0.00    +0.000 OA
ATOM      3  O   UNL     1       1.202   3.740  18.891  0.00  0.00    +0.000 OA
ENDROOT
BRANCH   1   4
ATOM      4  C   UNL     1       3.845   3.886  18.845  0.00  0.00    +0.000 C 
ATOM      5  C   UNL     1       4.979   4.825  19.279  0.00  0.00    +0.000 C 
ATOM      6  C   UNL     1       5.952   4.871  18.113  0.00  0.00    +0.000 C 
ATOM      7  C   UNL     1       5.120   4.664  16.831  0.00  0.00    +0.000 C 
ATOM      8  C   UNL     1       5.840   3.701  15.861  0.00  0.00    +0.000 C 
ATOM      9  C   UNL     1       7.107   4.319  15.266  0.00  0.00    +0.000 C 
ATOM     10  N   UNL     1       6.820   5.568  14.560  0.00  0.00    +0.000 NA
ATOM     11  C   UNL     1       6.165   6.544  15.431  0.00  0.00    +0.000 C 
ATOM     12  C   UNL     1       4.885   5.989  16.066  0.00  0.00    +0.000 C 
ATOM     13  C   UNL     1       3.769   4.070  17.311  0.00  0.00    +0.000 C 
ATOM     14  H   UNL     1       6.214   5.370  13.762  0.00  0.00    +0.000 HD
BRANCH   4  15
ATOM     15  C   UNL     1       4.106   2.430  19.219  0.00  0.00    +0.000 C 
ATOM     16  O   UNL     1       3.507   1.483  18.706  0.00  0.00    +0.000 OA
ATOM     17  N   UNL     1       5.059   2.203  20.190  0.00  0.00    +0.000 N 
ATOM     18  H   UNL     1       5.818   2.865  20.374  0.00  0.00    +0.000 HD
BRANCH  17  19
ATOM     19  O   UNL     1       5.366   0.842  20.432  0.00  0.00    +0.000 OA
ATOM     20  H   UNL     1       5.871   0.876  21.274  0.00  0.00    +0.000 HD
ENDBRANCH  17  19
ENDBRANCH   4  15
ENDBRANCH   1   4
BRANCH   1  24
ATOM     21  C   UNL     1       1.847   8.865  18.964  0.00  0.00    +0.000 A 
ATOM     22  C   UNL     1       2.129   8.008  17.890  0.00  0.00    +0.000 A 
ATOM     23  C   UNL     1       2.228   6.633  18.094  0.00  0.00    +0.000 A 
ATOM     24  C   UNL     1       2.137   6.118  19.388  0.00  0.00    +0.000 A 
ATOM     25  C   UNL     1       1.872   6.966  20.471  0.00  0.00    +0.000 A 
ATOM     26  C   UNL     1       1.740   8.340  20.253  0.00  0.00    +0.000 A 
BRANCH  21  27
ATOM     27  O   UNL     1       1.668  10.228  18.812  0.00  0.00    +0.000 OA
BRANCH  27  31
ATOM     28  C   UNL     1      -1.438  11.843  21.091  0.00  0.00    +0.000 A 
ATOM     29  C   UNL     1      -0.130  11.907  21.566  0.00  0.00    +0.000 A 
ATOM     30  C   UNL     1       0.928  11.448  20.784  0.00  0.00    +0.000 A 
ATOM     31  C   UNL     1       0.673  10.829  19.557  0.00  0.00    +0.000 A 
ATOM     32  C   UNL     1      -0.628  10.799  19.057  0.00  0.00    +0.000 A 
ATOM     33  C   UNL     1      -1.686  11.310  19.823  0.00  0.00    +0.000 A 
BRANCH  28  35
ATOM     34  C   UNL     1      -1.901  12.962  23.117  0.00  0.00    +0.000 C 
ATOM     35  O   UNL     1      -2.388  12.269  21.976  0.00  0.00    +0.000 OA
ENDBRANCH  28  35
ENDBRANCH  27  31
ENDBRANCH  21  27
ENDBRANCH   1  24
TORSDOF 7
ENDMDL
MODEL 5
REMARK VINA RESULT:      -8.2      0.912      1.012
REMARK  Name = 
REMARK  8 active torsions:
REMARK  status: ('A' for Active; 'I' for Inactive)
REMARK    1  A    between atoms: C_1  and  O_2
REMARK    2  A    between atoms: O_2  and  C_3
REMARK    3  A    between atoms: C_6  and  O_7
REMARK    4  A    between atoms: O_7  and  C_8
REMARK    5  A    between atoms: C_11  and  S_12
REMARK    6  A    between atoms: S_12  and  C_15
REMARK    7  A    between atoms: C_15  and  C_16
REMARK    8  A    between atoms: N_18  and  O_19
REMARK                            x       y       z     vdW  Elec       q    Type
REMARK                         _______ _______ _______ _____ _____    ______ ____
ROOT
ATOM      1  S   UNL     1       2.069   3.583  19.184  0.00  0.00    +0.000 S 
ATOM      2  O   UNL     1       1.900   2.798  20.391  0.00  0.00    +0.000 OA
ATOM      3  O   UNL     1       1.162   3.385  18.065  0.00  0.00    +0.000 OA
ENDROOT
BRANCH   1   4
ATOM      4  C   UNL     1       3.755   3.343  18.598  0.00  0.00    +0.000 C 
ATOM      5  C   UNL     1       4.712   4.335  19.273  0.00  0.00    +0.000 C 
ATOM      6  C   UNL     1       5.823   4.592  18.269  0.00  0.00    +0.000 C 
ATOM      7  C   UNL     1       5.200   4.440  16.866  0.00  0.00    +0.000 C 
ATOM      8  C   UNL     1       6.145   3.652  15.931  0.00  0.00    +0.000 C 
ATOM      9  C   UNL     1       7.407   4.445  15.584  0.00  0.00    +0.000 C 
ATOM     10  N   UNL     1       7.086   5.727  14.955  0.00  0.00    +0.000 NA
ATOM     11  C   UNL     1       6.217   6.543  15.804  0.00  0.00    +0.000 C 
ATOM     12  C   UNL     1       4.930   5.807  16.195  0.00  0.00    +0.000 C 
ATOM     13  C   UNL     1       3.869   3.675  17.091  0.00  0.00    +0.000 C 
ATOM     14  H   UNL     1       6.620   5.555  14.064  0.00  0.00    +0.000 HD
BRANCH   4  15
ATOM     15  C   UNL     1       4.118   1.887  18.876  0.00  0.00    +0.000 C 
ATOM     16  O   UNL     1       3.655   0.942  18.235  0.00  0.00    +0.000 OA
ATOM     17  N   UNL     1       5.002   1.659  19.909  0.00  0.00    +0.000 N 
ATOM     18  H   UNL     1       5.677   2.364  20.216  0.00  0.00    +0.000 HD
BRANCH  17  19
ATOM     19  O   UNL     1       5.413   0.313  20.069  0.00  0.00    +0.000 OA
ATOM     20  H   UNL     1       5.847   0.112  19.211  0.00  0.00    +0.000 HD
ENDBRANCH  17  19
ENDBRANCH   4  15
ENDBRANCH   1   4
BRANCH   1  24
ATOM     21  C   UNL     1       1.721   8.011  20.294  0.00  0.00    +0.000 A 
ATOM     22  C   UNL     1       2.192   7.625  19.030  0.00  0.00    +0.000 A 
ATOM     23  C   UNL     1       2.261   6.276  18.687  0.00  0.00    +0.000 A 
ATOM     24  C   UNL     1       1.948   5.304  19.638  0.00  0.00    +0.000 A 
ATOM     25  C   UNL     1       1.493   5.678  20.909  0.00  0.00    +0.000 A 
ATOM     26  C   UNL     1       1.393   7.033  21.234  0.00  0.00    +0.000 A 
BRANCH  21  27
ATOM     27  O   UNL     1       1.565   9.334  20.666  0.00  0.00    +0.000 OA
BRANCH  27  31
ATOM     28  C   UNL     1      -1.076  11.585  18.341  0.00  0.00    +0.000 A 
ATOM     29  C   UNL     1      -1.535  10.444  18.993  0.00  0.00    +0.000 A 
ATOM     30  C   UNL     1      -0.691   9.727  19.838  0.00  0.00    +0.000 A 
ATOM     31  C   UNL     1       0.653  10.092  19.959  0.00  0.00    +0.000 A 
ATOM     32  C   UNL     1       1.109  11.258  19.342  0.00  0.00    +0.000 A 
ATOM     33  C   UNL     1       0.242  12.008  18.534  0.00  0.00    +0.000 A 
BRANCH  28  35
ATOM     34  C   UNL     1      -3.100  11.358  17.147  0.00  0.00    +0.000 C 
ATOM     35  O   UNL     1      -1.981  12.163  17.495  0.00  0.00    +0.000 OA
ENDBRANCH  28  35
ENDBRANCH  27  31
ENDBRANCH  21  27
ENDBRANCH   1  24
TORSDOF 7
ENDMDL
MODEL 6
REMARK VINA RESULT:      -8.2      1.703      2.160
REMARK  Name = 
REMARK  8 active torsions:
REMARK  status: ('A' for Active; 'I' for Inactive)
REMARK    1  A    between atoms: C_1  and  O_2
REMARK    2  A    between atoms: O_2  and  C_3
REMARK    3  A    between atoms: C_6  and  O_7
REMARK    4  A    between atoms: O_7  and  C_8
REMARK    5  A    between atoms: C_11  and  S_12
REMARK    6  A    between atoms: S_12  and  C_15
REMARK    7  A    between atoms: C_15  and  C_16
REMARK    8  A    between atoms: N_18  and  O_19
REMARK                            x       y       z     vdW  Elec       q    Type
REMARK                         _______ _______ _______ _____ _____    ______ ____
ROOT
ATOM      1  S   UNL     1       2.042   3.883  19.202  0.00  0.00    +0.000 S 
ATOM      2  O   UNL     1       1.917   3.231  20.491  0.00  0.00    +0.000 OA
ATOM      3  O   UNL     1       1.095   3.570  18.144  0.00  0.00    +0.000 OA
ENDROOT
BRANCH   1   4
ATOM      4  C   UNL     1       3.706   3.578  18.585  0.00  0.00    +0.000 C 
ATOM      5  C   UNL     1       4.688   4.623  19.130  0.00  0.00    +0.000 C 
ATOM      6  C   UNL     1       5.766   4.776  18.070  0.00  0.00    +0.000 C 
ATOM      7  C   UNL     1       5.095   4.495  16.710  0.00  0.00    +0.000 C 
ATOM      8  C   UNL     1       6.004   3.616  15.822  0.00  0.00    +0.000 C 
ATOM      9  C   UNL     1       7.256   4.364  15.359  0.00  0.00    +0.000 C 
ATOM     10  N   UNL     1       6.918   5.582  14.622  0.00  0.00    +0.000 NA
ATOM     11  C   UNL     1       6.082   6.481  15.418  0.00  0.00    +0.000 C 
ATOM     12  C   UNL     1       4.806   5.794  15.921  0.00  0.00    +0.000 C 
ATOM     13  C   UNL     1       3.769   3.764  17.050  0.00  0.00    +0.000 C 
ATOM     14  H   UNL     1       6.421   5.330  13.768  0.00  0.00    +0.000 HD
BRANCH   4  15
ATOM     15  C   UNL     1       4.074   2.152  18.988  0.00  0.00    +0.000 C 
ATOM     16  O   UNL     1       3.599   1.153  18.444  0.00  0.00    +0.000 OA
ATOM     17  N   UNL     1       4.975   2.017  20.023  0.00  0.00    +0.000 N 
ATOM     18  H   UNL     1       5.655   2.746  20.252  0.00  0.00    +0.000 HD
BRANCH  17  19
ATOM     19  O   UNL     1       5.388   0.690  20.297  0.00  0.00    +0.000 OA
ATOM     20  H   UNL     1       5.284   0.624  21.271  0.00  0.00    +0.000 HD
ENDBRANCH  17  19
ENDBRANCH   4  15
ENDBRANCH   1   4
BRANCH   1  24
ATOM     21  C   UNL     1       1.725   8.405  19.850  0.00  0.00    +0.000 A 
ATOM     22  C   UNL     1       2.060   7.883  18.592  0.00  0.00    +0.000 A 
ATOM     23  C   UNL     1       2.120   6.506  18.393  0.00  0.00    +0.000 A 
ATOM     24  C   UNL     1       1.935   5.643  19.475  0.00  0.00    +0.000 A 
ATOM     25  C   UNL     1       1.617   6.152  20.741  0.00  0.00    +0.000 A 
ATOM     26  C   UNL     1       1.525   7.534  20.924  0.00  0.00    +0.000 A 
BRANCH  21  27
ATOM     27  O   UNL     1       1.583   9.759  20.090  0.00  0.00    +0.000 OA
BRANCH  27  31
ATOM     28  C   UNL     1      -1.419  11.065  22.684  0.00  0.00    +0.000 A 
ATOM     29  C   UNL     1      -1.402  11.518  21.367  0.00  0.00    +0.000 A 
ATOM     30  C   UNL     1      -0.459  11.031  20.466  0.00  0.00    +0.000 A 
ATOM     31  C   UNL     1       0.541  10.157  20.903  0.00  0.00    +0.000 A 
ATOM     32  C   UNL     1       0.506   9.668  22.209  0.00  0.00    +0.000 A 
ATOM     33  C   UNL     1      -0.478  10.120  23.101  0.00  0.00    +0.000 A 
BRANCH  28  35
ATOM     34  C   UNL     1      -2.602  13.037  23.216  0.00  0.00    +0.000 C 
ATOM     35  O   UNL     1      -2.353  11.663  23.482  0.00  0.00    +0.000 OA
ENDBRANCH  28  35
ENDBRANCH  27  31
ENDBRANCH  21  27
ENDBRANCH   1  24
TORSDOF 7
ENDMDL
MODEL 7
REMARK VINA RESULT:      -7.8      4.574     10.557
REMARK  Name = 
REMARK  8 active torsions:
REMARK  status: ('A' for Active; 'I' for Inactive)
REMARK    1  A    between atoms: C_1  and  O_2
REMARK    2  A    between atoms: O_2  and  C_3
REMARK    3  A    between atoms: C_6  and  O_7
REMARK    4  A    between atoms: O_7  and  C_8
REMARK    5  A    between atoms: C_11  and  S_12
REMARK    6  A    between atoms: S_12  and  C_15
REMARK    7  A    between atoms: C_15  and  C_16
REMARK    8  A    between atoms: N_18  and  O_19
REMARK                            x       y       z     vdW  Elec       q    Type
REMARK                         _______ _______ _______ _____ _____    ______ ____
ROOT
ATOM      1  S   UNL     1       0.937  12.834  20.120  0.00  0.00    +0.000 S 
ATOM      2  O   UNL     1       1.497  12.941  21.453  0.00  0.00    +0.000 OA
ATOM      3  O   UNL     1       1.387  13.742  19.077  0.00  0.00    +0.000 OA
ENDROOT
BRANCH   1   4
ATOM      4  C   UNL     1      -0.854  12.972  20.258  0.00  0.00    +0.000 C 
ATOM      5  C   UNL     1      -1.282  14.444  20.331  0.00  0.00    +0.000 C 
ATOM      6  C   UNL     1      -2.557  14.468  21.157  0.00  0.00    +0.000 C 
ATOM      7  C   UNL     1      -2.463  13.295  22.154  0.00  0.00    +0.000 C 
ATOM      8  C   UNL     1      -3.814  12.551  22.254  0.00  0.00    +0.000 C 
ATOM      9  C   UNL     1      -4.892  13.400  22.931  0.00  0.00    +0.000 C 
ATOM     10  N   UNL     1      -4.488  13.818  24.274  0.00  0.00    +0.000 NA
ATOM     11  C   UNL     1      -3.227  14.560  24.252  0.00  0.00    +0.000 C 
ATOM     12  C   UNL     1      -2.098  13.768  23.581  0.00  0.00    +0.000 C 
ATOM     13  C   UNL     1      -1.353  12.367  21.592  0.00  0.00    +0.000 C 
ATOM     14  H   UNL     1      -4.381  12.992  24.864  0.00  0.00    +0.000 HD
BRANCH   4  15
ATOM     15  C   UNL     1      -1.450  12.240  19.059  0.00  0.00    +0.000 C 
ATOM     16  O   UNL     1      -2.119  11.211  19.160  0.00  0.00    +0.000 OA
ATOM     17  N   UNL     1      -1.194  12.783  17.817  0.00  0.00    +0.000 N 
ATOM     18  H   UNL     1      -0.985  13.777  17.688  0.00  0.00    +0.000 HD
BRANCH  17  19
ATOM     19  O   UNL     1      -1.855  12.154  16.733  0.00  0.00    +0.000 OA
ATOM     20  H   UNL     1      -1.991  11.238  17.060  0.00  0.00    +0.000 HD
ENDBRANCH  17  19
ENDBRANCH   4  15
ENDBRANCH   1   4
BRANCH   1  24
ATOM     21  C   UNL     1       1.697   8.575  18.623  0.00  0.00    +0.000 A 
ATOM     22  C   UNL     1       1.220   8.803  19.923  0.00  0.00    +0.000 A 
ATOM     23  C   UNL     1       0.957  10.099  20.359  0.00  0.00    +0.000 A 
ATOM     24  C   UNL     1       1.257  11.182  19.530  0.00  0.00    +0.000 A 
ATOM     25  C   UNL     1       1.750  10.967  18.236  0.00  0.00    +0.000 A 
ATOM     26  C   UNL     1       1.978   9.662  17.794  0.00  0.00    +0.000 A 
BRANCH  21  27
ATOM     27  O   UNL     1       1.909   7.308  18.111  0.00  0.00    +0.000 OA
BRANCH  27  31
ATOM     28  C   UNL     1       5.614   5.435  18.576  0.00  0.00    +0.000 A 
ATOM     29  C   UNL     1       5.413   6.307  17.509  0.00  0.00    +0.000 A 
ATOM     30  C   UNL     1       4.212   7.003  17.384  0.00  0.00    +0.000 A 
ATOM     31  C   UNL     1       3.164   6.756  18.275  0.00  0.00    +0.000 A 
ATOM     32  C   UNL     1       3.373   5.916  19.369  0.00  0.00    +0.000 A 
ATOM     33  C   UNL     1       4.601   5.257  19.522  0.00  0.00    +0.000 A 
BRANCH  28  35
ATOM     34  C   UNL     1       7.903   5.447  19.152  0.00  0.00    +0.000 C 
ATOM     35  O   UNL     1       6.807   4.769  18.552  0.00  0.00    +0.000 OA
ENDBRANCH  28  35
ENDBRANCH  27  31
ENDBRANCH  21  27
ENDBRANCH   1  24
TORSDOF 7
ENDMDL
MODEL 8
REMARK VINA RESULT:      -7.8      4.301     10.139
REMARK  Name = 
REMARK  8 active torsions:
REMARK  status: ('A' for Active; 'I' for Inactive)
REMARK    1  A    between atoms: C_1  and  O_2
REMARK    2  A    between atoms: O_2  and  C_3
REMARK    3  A    between atoms: C_6  and  O_7
REMARK    4  A    between atoms: O_7  and  C_8
REMARK    5  A    between atoms: C_11  and  S_12
REMARK    6  A    between atoms: S_12  and  C_15
REMARK    7  A    between atoms: C_15  and  C_16
REMARK    8  A    between atoms: N_18  and  O_19
REMARK                            x       y       z     vdW  Elec       q    Type
REMARK                         _______ _______ _______ _____ _____    ______ ____
ROOT
ATOM      1  S   UNL     1       1.084  12.163  19.826  0.00  0.00    +0.000 S 
ATOM      2  O   UNL     1       1.737  12.778  20.966  0.00  0.00    +0.000 OA
ATOM      3  O   UNL     1       1.525  12.494  18.481  0.00  0.00    +0.000 OA
ENDROOT
BRANCH   1   4
ATOM      4  C   UNL     1      -0.680  12.505  19.946  0.00  0.00    +0.000 C 
ATOM      5  C   UNL     1      -0.938  14.017  19.990  0.00  0.00    +0.000 C 
ATOM      6  C   UNL     1      -2.208  14.201  20.803  0.00  0.00    +0.000 C 
ATOM      7  C   UNL     1      -2.256  13.043  21.821  0.00  0.00    +0.000 C 
ATOM      8  C   UNL     1      -3.683  12.459  21.921  0.00  0.00    +0.000 C 
ATOM      9  C   UNL     1      -4.663  13.437  22.574  0.00  0.00    +0.000 C 
ATOM     10  N   UNL     1      -4.223  13.830  23.913  0.00  0.00    +0.000 NA
ATOM     11  C   UNL     1      -2.886  14.424  23.890  0.00  0.00    +0.000 C 
ATOM     12  C   UNL     1      -1.849  13.498  23.243  0.00  0.00    +0.000 C 
ATOM     13  C   UNL     1      -1.254  11.985  21.285  0.00  0.00    +0.000 C 
ATOM     14  H   UNL     1      -4.215  13.009  24.518  0.00  0.00    +0.000 HD
BRANCH   4  15
ATOM     15  C   UNL     1      -1.346  11.825  18.753  0.00  0.00    +0.000 C 
ATOM     16  O   UNL     1      -1.940  10.748  18.835  0.00  0.00    +0.000 OA
ATOM     17  N   UNL     1      -1.247  12.472  17.540  0.00  0.00    +0.000 N 
ATOM     18  H   UNL     1      -1.112  13.484  17.471  0.00  0.00    +0.000 HD
BRANCH  17  19
ATOM     19  O   UNL     1      -1.973  11.881  16.477  0.00  0.00    +0.000 OA
ATOM     20  H   UNL     1      -1.267  11.626  15.843  0.00  0.00    +0.000 HD
ENDBRANCH  17  19
ENDBRANCH   4  15
ENDBRANCH   1   4
BRANCH   1  24
ATOM     21  C   UNL     1       1.580   7.630  20.233  0.00  0.00    +0.000 A 
ATOM     22  C   UNL     1       1.717   8.256  18.986  0.00  0.00    +0.000 A 
ATOM     23  C   UNL     1       1.600   9.640  18.875  0.00  0.00    +0.000 A 
ATOM     24  C   UNL     1       1.254  10.395  19.997  0.00  0.00    +0.000 A 
ATOM     25  C   UNL     1       1.097   9.779  21.245  0.00  0.00    +0.000 A 
ATOM     26  C   UNL     1       1.250   8.395  21.354  0.00  0.00    +0.000 A 
BRANCH  21  27
ATOM     27  O   UNL     1       1.753   6.270  20.416  0.00  0.00    +0.000 OA
BRANCH  27  31
ATOM     28  C   UNL     1       4.009   4.352  17.470  0.00  0.00    +0.000 A 
ATOM     29  C   UNL     1       4.650   5.137  18.425  0.00  0.00    +0.000 A 
ATOM     30  C   UNL     1       3.924   5.718  19.462  0.00  0.00    +0.000 A 
ATOM     31  C   UNL     1       2.532   5.597  19.496  0.00  0.00    +0.000 A 
ATOM     32  C   UNL     1       1.889   4.778  18.568  0.00  0.00    +0.000 A 
ATOM     33  C   UNL     1       2.629   4.151  17.555  0.00  0.00    +0.000 A 
BRANCH  28  35
ATOM     34  C   UNL     1       5.367   4.882  15.613  0.00  0.00    +0.000 C 
ATOM     35  O   UNL     1       4.821   3.890  16.472  0.00  0.00    +0.000 OA
ENDBRANCH  28  35
ENDBRANCH  27  31
ENDBRANCH  21  27
ENDBRANCH   1  24
TORSDOF 7
ENDMDL
MODEL 9
REMARK VINA RESULT:      -7.8      3.736      9.357
REMARK  Name = 
REMARK  8 active torsions:
REMARK  status: ('A' for Active; 'I' for Inactive)
REMARK    1  A    between atoms: C_1  and  O_2
REMARK    2  A    between atoms: O_2  and  C_3
REMARK    3  A    between atoms: C_6  and  O_7
REMARK    4  A    between atoms: O_7  and  C_8
REMARK    5  A    between atoms: C_11  and  S_12
REMARK    6  A    between atoms: S_12  and  C_15
REMARK    7  A    between atoms: C_15  and  C_16
REMARK    8  A    between atoms: N_18  and  O_19
REMARK                            x       y       z     vdW  Elec       q    Type
REMARK                         _______ _______ _______ _____ _____    ______ ____
ROOT
ATOM      1  S   UNL     1       0.990  11.123  19.584  0.00  0.00    +0.000 S 
ATOM      2  O   UNL     1       1.414  11.647  20.867  0.00  0.00    +0.000 OA
ATOM      3  O   UNL     1       1.443  11.766  18.361  0.00  0.00    +0.000 OA
ENDROOT
BRANCH   1   4
ATOM      4  C   UNL     1      -0.811  11.080  19.569  0.00  0.00    +0.000 C 
ATOM      5  C   UNL     1      -1.318   9.674  19.222  0.00  0.00    +0.000 C 
ATOM      6  C   UNL     1      -2.651   9.873  18.520  0.00  0.00    +0.000 C 
ATOM      7  C   UNL     1      -2.571  11.229  17.790  0.00  0.00    +0.000 C 
ATOM      8  C   UNL     1      -3.885  12.023  17.964  0.00  0.00    +0.000 C 
ATOM      9  C   UNL     1      -5.053  11.378  17.214  0.00  0.00    +0.000 C 
ATOM     10  N   UNL     1      -4.771  11.245  15.784  0.00  0.00    +0.000 NA
ATOM     11  C   UNL     1      -3.552  10.473  15.542  0.00  0.00    +0.000 C 
ATOM     12  C   UNL     1      -2.338  11.062  16.269  0.00  0.00    +0.000 C 
ATOM     13  C   UNL     1      -1.376  11.975  18.441  0.00  0.00    +0.000 C 
ATOM     14  H   UNL     1      -4.666  12.174  15.376  0.00  0.00    +0.000 HD
BRANCH   4  15
ATOM     15  C   UNL     1      -1.277  11.556  20.943  0.00  0.00    +0.000 C 
ATOM     16  O   UNL     1      -1.884  12.614  21.120  0.00  0.00    +0.000 OA
ATOM     17  N   UNL     1      -0.975  10.741  22.013  0.00  0.00    +0.000 N 
ATOM     18  H   UNL     1      -0.823   9.734  21.906  0.00  0.00    +0.000 HD
BRANCH  17  19
ATOM     19  O   UNL     1      -1.521  11.145  23.256  0.00  0.00    +0.000 OA
ATOM     20  H   UNL     1      -1.540  12.124  23.179  0.00  0.00    +0.000 HD
ENDBRANCH  17  19
ENDBRANCH   4  15
ENDBRANCH   1   4
BRANCH   1  24
ATOM     21  C   UNL     1       2.415   6.780  19.322  0.00  0.00    +0.000 A 
ATOM     22  C   UNL     1       2.439   7.611  18.192  0.00  0.00    +0.000 A 
ATOM     23  C   UNL     1       2.037   8.941  18.287  0.00  0.00    +0.000 A 
ATOM     24  C   UNL     1       1.522   9.423  19.492  0.00  0.00    +0.000 A 
ATOM     25  C   UNL     1       1.477   8.598  20.623  0.00  0.00    +0.000 A 
ATOM     26  C   UNL     1       1.915   7.274  20.528  0.00  0.00    +0.000 A 
BRANCH  21  27
ATOM     27  O   UNL     1       2.866   5.473  19.305  0.00  0.00    +0.000 OA
BRANCH  27  31
ATOM     28  C   UNL     1       6.199   4.792  16.881  0.00  0.00    +0.000 A 
ATOM     29  C   UNL     1       6.377   5.258  18.181  0.00  0.00    +0.000 A 
ATOM     30  C   UNL     1       5.284   5.413  19.031  0.00  0.00    +0.000 A 
ATOM     31  C   UNL     1       3.989   5.195  18.552  0.00  0.00    +0.000 A 
ATOM     32  C   UNL     1       3.806   4.688  17.265  0.00  0.00    +0.000 A 
ATOM     33  C   UNL     1       4.913   4.483  16.429  0.00  0.00    +0.000 A 
BRANCH  28  35
ATOM     34  C   UNL     1       7.153   4.752  14.722  0.00  0.00    +0.000 C 
ATOM     35  O   UNL     1       7.341   4.741  16.131  0.00  0.00    +0.000 OA
ENDBRANCH  28  35
ENDBRANCH  27  31
ENDBRANCH  21  27
ENDBRANCH   1  24
TORSDOF 7
ENDMDL
