MODEL 1
REMARK VINA RESULT:      -7.6      0.000      0.000
REMARK  Name = 
REMARK  6 active torsions:
REMARK  status: ('A' for Active; 'I' for Inactive)
REMARK    1  A    between atoms: C_1  and  C_2
REMARK    2  A    between atoms: C_2  and  C_4
REMARK    3  A    between atoms: C_7  and  S_8
REMARK    4  A    between atoms: S_8  and  N_11
REMARK    5  A    between atoms: C_12  and  C_14
REMARK    6  A    between atoms: C_17  and  C_18
REMARK                            x       y       z     vdW  Elec       q    Type
REMARK                         _______ _______ _______ _____ _____    ______ ____
ROOT
ATOM      1  S   UNL     1       7.133   5.230  17.864  0.00  0.00    +0.000 S 
ATOM      2  O   UNL     1       7.266   6.668  17.920  0.00  0.00    +0.000 OA
ATOM      3  O   UNL     1       8.054   4.375  18.583  0.00  0.00    +0.000 OA
ENDROOT
BRANCH   1   7
ATOM      4  C   UNL     1       2.922   4.043  19.230  0.00  0.00    +0.000 A 
ATOM      5  C   UNL     1       3.653   3.207  18.376  0.00  0.00    +0.000 A 
ATOM      6  C   UNL     1       4.938   3.571  17.960  0.00  0.00    +0.000 A 
ATOM      7  C   UNL     1       5.487   4.786  18.384  0.00  0.00    +0.000 A 
ATOM      8  C   UNL     1       4.779   5.607  19.268  0.00  0.00    +0.000 A 
ATOM      9  C   UNL     1       3.493   5.238  19.686  0.00  0.00    +0.000 A 
BRANCH   4  11
ATOM     10  C   UNL     1       0.854   2.563  18.807  0.00  0.00    +0.000 C 
ATOM     11  C   UNL     1       1.542   3.636  19.611  0.00  0.00    +0.000 C 
ATOM     12  O   UNL     1       0.987   4.190  20.558  0.00  0.00    +0.000 OA
ENDBRANCH   4  11
ENDBRANCH   1   7
BRANCH   1  13
ATOM     13  N   UNL     1       7.204   4.721  16.283  0.00  0.00    +0.000 N 
ATOM     14  C   UNL     1       6.487   5.314  15.247  0.00  0.00    +0.000 C 
ATOM     15  O   UNL     1       5.670   6.203  15.427  0.00  0.00    +0.000 OA
ATOM     16  H   UNL     1       7.913   4.017  16.116  0.00  0.00    +0.000 HD
BRANCH  14  17
ATOM     17  C   UNL     1       6.741   4.773  13.929  0.00  0.00    +0.000 A 
ATOM     18  C   UNL     1       7.512   5.189  12.854  0.00  0.00    +0.000 A 
ATOM     19  C   UNL     1       7.396   4.211  11.825  0.00  0.00    +0.000 A 
ATOM     20  C   UNL     1       6.548   3.227  12.281  0.00  0.00    +0.000 A 
ATOM     21  N   UNL     1       6.151   3.580  13.543  0.00  0.00    +0.000 N 
ATOM     22  H   UNL     1       5.527   3.045  14.137  0.00  0.00    +0.000 HD
BRANCH  20  23
ATOM     23  C   UNL     1       6.125   2.039  11.620  0.00  0.00    +0.000 C 
ATOM     24  N   UNL     1       5.757   1.079  11.081  0.00  0.00    +0.000 NA
ENDBRANCH  20  23
ENDBRANCH  14  17
ENDBRANCH   1  13
TORSDOF 5
ENDMDL
MODEL 2
REMARK VINA RESULT:      -7.6      4.086      6.259
REMARK  Name = 
REMARK  6 active torsions:
REMARK  status: ('A' for Active; 'I' for Inactive)
REMARK    1  A    between atoms: C_1  and  C_2
REMARK    2  A    between atoms: C_2  and  C_4
REMARK    3  A    between atoms: C_7  and  S_8
REMARK    4  A    between atoms: S_8  and  N_11
REMARK    5  A    between atoms: C_12  and  C_14
REMARK    6  A    between atoms: C_17  and  C_18
REMARK                            x       y       z     vdW  Elec       q    Type
REMARK                         _______ _______ _______ _____ _____    ______ ____
ROOT
ATOM      1  S   UNL     1       6.755   5.600  16.510  0.00  0.00    +0.000 S 
ATOM      2  O   UNL     1       7.780   4.650  16.875  0.00  0.00    +0.000 OA
ATOM      3  O   UNL     1       6.280   5.686  15.145  0.00  0.00    +0.000 OA
ENDROOT
BRANCH   1   7
ATOM      4  C   UNL     1       3.059   4.904  19.130  0.00  0.00    +0.000 A 
ATOM      5  C   UNL     1       3.097   5.974  18.226  0.00  0.00    +0.000 A 
ATOM      6  C   UNL     1       4.226   6.185  17.427  0.00  0.00    +0.000 A 
ATOM      7  C   UNL     1       5.330   5.335  17.547  0.00  0.00    +0.000 A 
ATOM      8  C   UNL     1       5.285   4.242  18.419  0.00  0.00    +0.000 A 
ATOM      9  C   UNL     1       4.151   4.031  19.216  0.00  0.00    +0.000 A 
BRANCH   4  11
ATOM     10  C   UNL     1       1.033   3.488  19.862  0.00  0.00    +0.000 C 
ATOM     11  C   UNL     1       1.856   4.745  19.991  0.00  0.00    +0.000 C 
ATOM     12  O   UNL     1       1.549   5.641  20.776  0.00  0.00    +0.000 OA
ENDBRANCH   4  11
ENDBRANCH   1   7
BRANCH   1  13
ATOM     13  N   UNL     1       7.251   7.139  16.898  0.00  0.00    +0.000 N 
ATOM     14  C   UNL     1       7.932   7.458  18.070  0.00  0.00    +0.000 C 
ATOM     15  O   UNL     1       8.142   6.648  18.960  0.00  0.00    +0.000 OA
ATOM     16  H   UNL     1       7.124   7.807  16.148  0.00  0.00    +0.000 HD
BRANCH  14  17
ATOM     17  C   UNL     1       8.342   8.840  18.191  0.00  0.00    +0.000 A 
ATOM     18  C   UNL     1       8.173   9.964  17.396  0.00  0.00    +0.000 A 
ATOM     19  C   UNL     1       8.775  11.070  18.061  0.00  0.00    +0.000 A 
ATOM     20  C   UNL     1       9.313  10.602  19.239  0.00  0.00    +0.000 A 
ATOM     21  N   UNL     1       9.057   9.259  19.302  0.00  0.00    +0.000 N 
ATOM     22  H   UNL     1       9.328   8.641  20.059  0.00  0.00    +0.000 HD
BRANCH  20  23
ATOM     23  C   UNL     1      10.011  11.325  20.247  0.00  0.00    +0.000 C 
ATOM     24  N   UNL     1      10.581  11.934  21.054  0.00  0.00    +0.000 NA
ENDBRANCH  20  23
ENDBRANCH  14  17
ENDBRANCH   1  13
TORSDOF 5
ENDMDL
MODEL 3
REMARK VINA RESULT:      -7.6      0.668      1.274
REMARK  Name = 
REMARK  6 active torsions:
REMARK  status: ('A' for Active; 'I' for Inactive)
REMARK    1  A    between atoms: C_1  and  C_2
REMARK    2  A    between atoms: C_2  and  C_4
REMARK    3  A    between atoms: C_7  and  S_8
REMARK    4  A    between atoms: S_8  and  N_11
REMARK    5  A    between atoms: C_12  and  C_14
REMARK    6  A    between atoms: C_17  and  C_18
REMARK                            x       y       z     vdW  Elec       q    Type
REMARK                         _______ _______ _______ _____ _____    ______ ____
ROOT
ATOM      1  S   UNL     1       6.919   5.215  17.765  0.00  0.00    +0.000 S 
ATOM      2  O   UNL     1       6.875   6.658  17.798  0.00  0.00    +0.000 OA
ATOM      3  O   UNL     1       7.937   4.490  18.497  0.00  0.00    +0.000 OA
ENDROOT
BRANCH   1   7
ATOM      4  C   UNL     1       2.831   3.634  19.106  0.00  0.00    +0.000 A 
ATOM      5  C   UNL     1       3.440   4.696  19.787  0.00  0.00    +0.000 A 
ATOM      6  C   UNL     1       4.687   5.178  19.377  0.00  0.00    +0.000 A 
ATOM      7  C   UNL     1       5.340   4.581  18.293  0.00  0.00    +0.000 A 
ATOM      8  C   UNL     1       4.722   3.545  17.584  0.00  0.00    +0.000 A 
ATOM      9  C   UNL     1       3.470   3.067  17.995  0.00  0.00    +0.000 A 
BRANCH   4  11
ATOM     10  C   UNL     1       1.258   3.146  21.089  0.00  0.00    +0.000 C 
ATOM     11  C   UNL     1       1.525   3.126  19.605  0.00  0.00    +0.000 C 
ATOM     12  O   UNL     1       0.700   2.687  18.806  0.00  0.00    +0.000 OA
ENDBRANCH   4  11
ENDBRANCH   1   7
BRANCH   1  13
ATOM     13  N   UNL     1       7.055   4.693  16.192  0.00  0.00    +0.000 N 
ATOM     14  C   UNL     1       6.393   5.288  15.121  0.00  0.00    +0.000 C 
ATOM     15  O   UNL     1       5.581   6.189  15.258  0.00  0.00    +0.000 OA
ATOM     16  H   UNL     1       7.760   3.978  16.063  0.00  0.00    +0.000 HD
BRANCH  14  17
ATOM     17  C   UNL     1       6.698   4.733  13.820  0.00  0.00    +0.000 A 
ATOM     18  C   UNL     1       7.492   5.150  12.761  0.00  0.00    +0.000 A 
ATOM     19  C   UNL     1       7.429   4.155  11.744  0.00  0.00    +0.000 A 
ATOM     20  C   UNL     1       6.589   3.159  12.191  0.00  0.00    +0.000 A 
ATOM     21  N   UNL     1       6.147   3.521  13.434  0.00  0.00    +0.000 N 
ATOM     22  H   UNL     1       5.518   2.981  14.018  0.00  0.00    +0.000 HD
BRANCH  20  23
ATOM     23  C   UNL     1       6.214   1.952  11.535  0.00  0.00    +0.000 C 
ATOM     24  N   UNL     1       5.915   0.956  11.021  0.00  0.00    +0.000 NA
ENDBRANCH  20  23
ENDBRANCH  14  17
ENDBRANCH   1  13
TORSDOF 5
ENDMDL
MODEL 4
REMARK VINA RESULT:      -7.5      3.945      8.149
REMARK  Name = 
REMARK  6 active torsions:
REMARK  status: ('A' for Active; 'I' for Inactive)
REMARK    1  A    between atoms: C_1  and  C_2
REMARK    2  A    between atoms: C_2  and  C_4
REMARK    3  A    between atoms: C_7  and  S_8
REMARK    4  A    between atoms: S_8  and  N_11
REMARK    5  A    between atoms: C_12  and  C_14
REMARK    6  A    between atoms: C_17  and  C_18
REMARK                            x       y       z     vdW  Elec       q    Type
REMARK                         _______ _______ _______ _____ _____    ______ ____
ROOT
ATOM      1  S   UNL     1       4.394   3.863  18.403  0.00  0.00    +0.000 S 
ATOM      2  O   UNL     1       3.450   2.808  18.112  0.00  0.00    +0.000 OA
ATOM      3  O   UNL     1       5.344   3.726  19.487  0.00  0.00    +0.000 OA
ENDROOT
BRANCH   1   7
ATOM      4  C   UNL     1       6.830   4.736  14.619  0.00  0.00    +0.000 A 
ATOM      5  C   UNL     1       7.416   4.860  15.885  0.00  0.00    +0.000 A 
ATOM      6  C   UNL     1       6.672   4.593  17.039  0.00  0.00    +0.000 A 
ATOM      7  C   UNL     1       5.328   4.220  16.928  0.00  0.00    +0.000 A 
ATOM      8  C   UNL     1       4.746   4.056  15.666  0.00  0.00    +0.000 A 
ATOM      9  C   UNL     1       5.496   4.320  14.511  0.00  0.00    +0.000 A 
BRANCH   4  11
ATOM     10  C   UNL     1       7.274   4.461  12.095  0.00  0.00    +0.000 C 
ATOM     11  C   UNL     1       7.646   5.072  13.422  0.00  0.00    +0.000 C 
ATOM     12  O   UNL     1       8.612   5.825  13.539  0.00  0.00    +0.000 OA
ENDBRANCH   4  11
ENDBRANCH   1   7
BRANCH   1  13
ATOM     13  N   UNL     1       3.577   5.278  18.711  0.00  0.00    +0.000 N 
ATOM     14  C   UNL     1       2.865   5.519  19.883  0.00  0.00    +0.000 C 
ATOM     15  O   UNL     1       2.701   4.673  20.748  0.00  0.00    +0.000 OA
ATOM     16  H   UNL     1       3.745   6.001  18.022  0.00  0.00    +0.000 HD
BRANCH  14  17
ATOM     17  C   UNL     1       2.283   6.839  19.993  0.00  0.00    +0.000 A 
ATOM     18  C   UNL     1       2.047   7.862  19.086  0.00  0.00    +0.000 A 
ATOM     19  C   UNL     1       1.404   8.926  19.779  0.00  0.00    +0.000 A 
ATOM     20  C   UNL     1       1.271   8.544  21.095  0.00  0.00    +0.000 A 
ATOM     21  N   UNL     1       1.813   7.292  21.215  0.00  0.00    +0.000 N 
ATOM     22  H   UNL     1       1.856   6.747  22.069  0.00  0.00    +0.000 HD
BRANCH  20  23
ATOM     23  C   UNL     1       0.688   9.262  22.177  0.00  0.00    +0.000 C 
ATOM     24  N   UNL     1       0.222   9.832  23.074  0.00  0.00    +0.000 NA
ENDBRANCH  20  23
ENDBRANCH  14  17
ENDBRANCH   1  13
TORSDOF 5
ENDMDL
MODEL 5
REMARK VINA RESULT:      -7.5      4.106      6.234
REMARK  Name = 
REMARK  6 active torsions:
REMARK  status: ('A' for Active; 'I' for Inactive)
REMARK    1  A    between atoms: C_1  and  C_2
REMARK    2  A    between atoms: C_2  and  C_4
REMARK    3  A    between atoms: C_7  and  S_8
REMARK    4  A    between atoms: S_8  and  N_11
REMARK    5  A    between atoms: C_12  and  C_14
REMARK    6  A    between atoms: C_17  and  C_18
REMARK                            x       y       z     vdW  Elec       q    Type
REMARK                         _______ _______ _______ _____ _____    ______ ____
ROOT
ATOM      1  S   UNL     1       6.796   5.603  16.526  0.00  0.00    +0.000 S 
ATOM      2  O   UNL     1       7.874   4.677  16.785  0.00  0.00    +0.000 OA
ATOM      3  O   UNL     1       6.204   5.697  15.208  0.00  0.00    +0.000 OA
ENDROOT
BRANCH   1   7
ATOM      4  C   UNL     1       3.431   4.782  19.527  0.00  0.00    +0.000 A 
ATOM      5  C   UNL     1       4.508   3.893  19.407  0.00  0.00    +0.000 A 
ATOM      6  C   UNL     1       5.534   4.145  18.491  0.00  0.00    +0.000 A 
ATOM      7  C   UNL     1       5.474   5.281  17.676  0.00  0.00    +0.000 A 
ATOM      8  C   UNL     1       4.422   6.192  17.816  0.00  0.00    +0.000 A 
ATOM      9  C   UNL     1       3.397   5.939  18.739  0.00  0.00    +0.000 A 
BRANCH   4  11
ATOM     10  C   UNL     1       2.420   3.157  21.255  0.00  0.00    +0.000 C 
ATOM     11  C   UNL     1       2.341   4.450  20.484  0.00  0.00    +0.000 C 
ATOM     12  O   UNL     1       1.393   5.224  20.615  0.00  0.00    +0.000 OA
ENDBRANCH   4  11
ENDBRANCH   1   7
BRANCH   1  13
ATOM     13  N   UNL     1       7.282   7.149  16.899  0.00  0.00    +0.000 N 
ATOM     14  C   UNL     1       7.945   7.488  18.075  0.00  0.00    +0.000 C 
ATOM     15  O   UNL     1       8.145   6.693  18.980  0.00  0.00    +0.000 OA
ATOM     16  H   UNL     1       7.164   7.805  16.136  0.00  0.00    +0.000 HD
BRANCH  14  17
ATOM     17  C   UNL     1       8.349   8.874  18.181  0.00  0.00    +0.000 A 
ATOM     18  C   UNL     1       8.119  10.001  17.407  0.00  0.00    +0.000 A 
ATOM     19  C   UNL     1       8.751  11.108  18.042  0.00  0.00    +0.000 A 
ATOM     20  C   UNL     1       9.367  10.637  19.180  0.00  0.00    +0.000 A 
ATOM     21  N   UNL     1       9.128   9.291  19.249  0.00  0.00    +0.000 N 
ATOM     22  H   UNL     1       9.452   8.670  19.982  0.00  0.00    +0.000 HD
BRANCH  20  23
ATOM     23  C   UNL     1      10.120  11.359  20.148  0.00  0.00    +0.000 C 
ATOM     24  N   UNL     1      10.751  11.930  20.938  0.00  0.00    +0.000 NA
ENDBRANCH  20  23
ENDBRANCH  14  17
ENDBRANCH   1  13
TORSDOF 5
ENDMDL
MODEL 6
REMARK VINA RESULT:      -7.4      2.971      7.325
REMARK  Name = 
REMARK  6 active torsions:
REMARK  status: ('A' for Active; 'I' for Inactive)
REMARK    1  A    between atoms: C_1  and  C_2
REMARK    2  A    between atoms: C_2  and  C_4
REMARK    3  A    between atoms: C_7  and  S_8
REMARK    4  A    between atoms: S_8  and  N_11
REMARK    5  A    between atoms: C_12  and  C_14
REMARK    6  A    between atoms: C_17  and  C_18
REMARK                            x       y       z     vdW  Elec       q    Type
REMARK                         _______ _______ _______ _____ _____    ______ ____
ROOT
ATOM      1  S   UNL     1       6.920   5.659  17.706  0.00  0.00    +0.000 S 
ATOM      2  O   UNL     1       7.760   4.760  18.463  0.00  0.00    +0.000 OA
ATOM      3  O   UNL     1       7.303   7.042  17.515  0.00  0.00    +0.000 OA
ENDROOT
BRANCH   1   7
ATOM      4  C   UNL     1       6.161   3.903  13.541  0.00  0.00    +0.000 A 
ATOM      5  C   UNL     1       5.226   3.722  14.569  0.00  0.00    +0.000 A 
ATOM      6  C   UNL     1       5.459   4.259  15.840  0.00  0.00    +0.000 A 
ATOM      7  C   UNL     1       6.642   4.963  16.090  0.00  0.00    +0.000 A 
ATOM      8  C   UNL     1       7.563   5.180  15.059  0.00  0.00    +0.000 A 
ATOM      9  C   UNL     1       7.325   4.644  13.786  0.00  0.00    +0.000 A 
BRANCH   4  11
ATOM     10  C   UNL     1       4.487   3.307  11.674  0.00  0.00    +0.000 C 
ATOM     11  C   UNL     1       5.893   3.277  12.219  0.00  0.00    +0.000 C 
ATOM     12  O   UNL     1       6.811   2.736  11.606  0.00  0.00    +0.000 OA
ENDBRANCH   4  11
ENDBRANCH   1   7
BRANCH   1  13
ATOM     13  N   UNL     1       5.403   5.714  18.384  0.00  0.00    +0.000 N 
ATOM     14  C   UNL     1       4.874   4.700  19.178  0.00  0.00    +0.000 C 
ATOM     15  O   UNL     1       5.445   3.638  19.368  0.00  0.00    +0.000 OA
ATOM     16  H   UNL     1       4.941   6.609  18.271  0.00  0.00    +0.000 HD
BRANCH  14  17
ATOM     17  C   UNL     1       3.565   4.968  19.735  0.00  0.00    +0.000 A 
ATOM     18  C   UNL     1       2.509   4.161  20.133  0.00  0.00    +0.000 A 
ATOM     19  C   UNL     1       1.481   5.003  20.644  0.00  0.00    +0.000 A 
ATOM     20  C   UNL     1       1.918   6.304  20.536  0.00  0.00    +0.000 A 
ATOM     21  N   UNL     1       3.167   6.273  19.978  0.00  0.00    +0.000 N 
ATOM     22  H   UNL     1       3.747   7.081  19.780  0.00  0.00    +0.000 HD
BRANCH  20  23
ATOM     23  C   UNL     1       1.250   7.502  20.918  0.00  0.00    +0.000 C 
ATOM     24  N   UNL     1       0.688   8.474  21.211  0.00  0.00    +0.000 NA
ENDBRANCH  20  23
ENDBRANCH  14  17
ENDBRANCH   1  13
TORSDOF 5
ENDMDL
MODEL 7
REMARK VINA RESULT:      -7.4      3.859      6.058
REMARK  Name = 
REMARK  6 active torsions:
REMARK  status: ('A' for Active; 'I' for Inactive)
REMARK    1  A    between atoms: C_1  and  C_2
REMARK    2  A    between atoms: C_2  and  C_4
REMARK    3  A    between atoms: C_7  and  S_8
REMARK    4  A    between atoms: S_8  and  N_11
REMARK    5  A    between atoms: C_12  and  C_14
REMARK    6  A    between atoms: C_17  and  C_18
REMARK                            x       y       z     vdW  Elec       q    Type
REMARK                         _______ _______ _______ _____ _____    ______ ____
ROOT
ATOM      1  S   UNL     1       7.292   4.774  16.892  0.00  0.00    +0.000 S 
ATOM      2  O   UNL     1       8.240   3.993  17.652  0.00  0.00    +0.000 OA
ATOM      3  O   UNL     1       7.189   4.620  15.456  0.00  0.00    +0.000 OA
ENDROOT
BRANCH   1   7
ATOM      4  C   UNL     1       3.108   4.149  18.658  0.00  0.00    +0.000 A 
ATOM      5  C   UNL     1       4.245   4.039  19.470  0.00  0.00    +0.000 A 
ATOM      6  C   UNL     1       5.521   4.230  18.930  0.00  0.00    +0.000 A 
ATOM      7  C   UNL     1       5.663   4.513  17.566  0.00  0.00    +0.000 A 
ATOM      8  C   UNL     1       4.531   4.662  16.758  0.00  0.00    +0.000 A 
ATOM      9  C   UNL     1       3.253   4.474  17.303  0.00  0.00    +0.000 A 
BRANCH   4  11
ATOM     10  C   UNL     1       0.979   2.703  18.797  0.00  0.00    +0.000 C 
ATOM     11  C   UNL     1       1.775   3.894  19.266  0.00  0.00    +0.000 C 
ATOM     12  O   UNL     1       1.342   4.663  20.123  0.00  0.00    +0.000 OA
ENDBRANCH   4  11
ENDBRANCH   1   7
BRANCH   1  13
ATOM     13  N   UNL     1       7.572   6.394  17.141  0.00  0.00    +0.000 N 
ATOM     14  C   UNL     1       8.026   6.924  18.345  0.00  0.00    +0.000 C 
ATOM     15  O   UNL     1       8.169   6.254  19.356  0.00  0.00    +0.000 OA
ATOM     16  H   UNL     1       7.501   6.951  16.297  0.00  0.00    +0.000 HD
BRANCH  14  17
ATOM     17  C   UNL     1       8.278   8.349  18.339  0.00  0.00    +0.000 A 
ATOM     18  C   UNL     1       7.893   9.387  17.503  0.00  0.00    +0.000 A 
ATOM     19  C   UNL     1       8.425  10.598  18.032  0.00  0.00    +0.000 A 
ATOM     20  C   UNL     1       9.134  10.279  19.168  0.00  0.00    +0.000 A 
ATOM     21  N   UNL     1       9.049   8.923  19.337  0.00  0.00    +0.000 N 
ATOM     22  H   UNL     1       9.469   8.395  20.094  0.00  0.00    +0.000 HD
BRANCH  20  23
ATOM     23  C   UNL     1       9.842  11.145  20.048  0.00  0.00    +0.000 C 
ATOM     24  N   UNL     1      10.425  11.832  20.779  0.00  0.00    +0.000 NA
ENDBRANCH  20  23
ENDBRANCH  14  17
ENDBRANCH   1  13
TORSDOF 5
ENDMDL
MODEL 8
REMARK VINA RESULT:      -7.3      2.832      6.847
REMARK  Name = 
REMARK  6 active torsions:
REMARK  status: ('A' for Active; 'I' for Inactive)
REMARK    1  A    between atoms: C_1  and  C_2
REMARK    2  A    between atoms: C_2  and  C_4
REMARK    3  A    between atoms: C_7  and  S_8
REMARK    4  A    between atoms: S_8  and  N_11
REMARK    5  A    between atoms: C_12  and  C_14
REMARK    6  A    between atoms: C_17  and  C_18
REMARK                            x       y       z     vdW  Elec       q    Type
REMARK                         _______ _______ _______ _____ _____    ______ ____
ROOT
ATOM      1  S   UNL     1       7.270   5.265  17.027  0.00  0.00    +0.000 S 
ATOM      2  O   UNL     1       8.289   4.385  17.551  0.00  0.00    +0.000 OA
ATOM      3  O   UNL     1       7.551   6.666  16.794  0.00  0.00    +0.000 OA
ENDROOT
BRANCH   1   7
ATOM      4  C   UNL     1       5.663   3.562  13.086  0.00  0.00    +0.000 A 
ATOM      5  C   UNL     1       4.967   3.356  14.285  0.00  0.00    +0.000 A 
ATOM      6  C   UNL     1       5.458   3.876  15.487  0.00  0.00    +0.000 A 
ATOM      7  C   UNL     1       6.663   4.589  15.494  0.00  0.00    +0.000 A 
ATOM      8  C   UNL     1       7.343   4.832  14.296  0.00  0.00    +0.000 A 
ATOM      9  C   UNL     1       6.846   4.312  13.092  0.00  0.00    +0.000 A 
BRANCH   4  11
ATOM     10  C   UNL     1       3.974   3.629  11.139  0.00  0.00    +0.000 C 
ATOM     11  C   UNL     1       5.126   2.953  11.840  0.00  0.00    +0.000 C 
ATOM     12  O   UNL     1       5.616   1.908  11.415  0.00  0.00    +0.000 OA
ENDBRANCH   4  11
ENDBRANCH   1   7
BRANCH   1  13
ATOM     13  N   UNL     1       5.942   5.244  18.027  0.00  0.00    +0.000 N 
ATOM     14  C   UNL     1       4.865   6.118  17.901  0.00  0.00    +0.000 C 
ATOM     15  O   UNL     1       4.846   7.039  17.100  0.00  0.00    +0.000 OA
ATOM     16  H   UNL     1       5.926   4.455  18.663  0.00  0.00    +0.000 HD
BRANCH  14  17
ATOM     17  C   UNL     1       3.773   5.892  18.823  0.00  0.00    +0.000 A 
ATOM     18  C   UNL     1       2.622   6.600  19.137  0.00  0.00    +0.000 A 
ATOM     19  C   UNL     1       1.897   5.852  20.109  0.00  0.00    +0.000 A 
ATOM     20  C   UNL     1       2.622   4.713  20.381  0.00  0.00    +0.000 A 
ATOM     21  N   UNL     1       3.753   4.753  19.611  0.00  0.00    +0.000 N 
ATOM     22  H   UNL     1       4.479   4.045  19.591  0.00  0.00    +0.000 HD
BRANCH  20  23
ATOM     23  C   UNL     1       2.310   3.653  21.279  0.00  0.00    +0.000 C 
ATOM     24  N   UNL     1       2.075   2.796  22.025  0.00  0.00    +0.000 NA
ENDBRANCH  20  23
ENDBRANCH  14  17
ENDBRANCH   1  13
TORSDOF 5
ENDMDL
MODEL 9
REMARK VINA RESULT:      -7.3      1.482      1.850
REMARK  Name = 
REMARK  6 active torsions:
REMARK  status: ('A' for Active; 'I' for Inactive)
REMARK    1  A    between atoms: C_1  and  C_2
REMARK    2  A    between atoms: C_2  and  C_4
REMARK    3  A    between atoms: C_7  and  S_8
REMARK    4  A    between atoms: S_8  and  N_11
REMARK    5  A    between atoms: C_12  and  C_14
REMARK    6  A    between atoms: C_17  and  C_18
REMARK                            x       y       z     vdW  Elec       q    Type
REMARK                         _______ _______ _______ _____ _____    ______ ____
ROOT
ATOM      1  S   UNL     1       6.170   5.574  16.471  0.00  0.00    +0.000 S 
ATOM      2  O   UNL     1       6.136   6.993  16.200  0.00  0.00    +0.000 OA
ATOM      3  O   UNL     1       7.397   4.932  16.895  0.00  0.00    +0.000 OA
ENDROOT
BRANCH   1   7
ATOM      4  C   UNL     1       3.012   4.607  19.649  0.00  0.00    +0.000 A 
ATOM      5  C   UNL     1       4.164   3.817  19.529  0.00  0.00    +0.000 A 
ATOM      6  C   UNL     1       5.127   4.114  18.559  0.00  0.00    +0.000 A 
ATOM      7  C   UNL     1       4.928   5.193  17.690  0.00  0.00    +0.000 A 
ATOM      8  C   UNL     1       3.800   6.008  17.828  0.00  0.00    +0.000 A 
ATOM      9  C   UNL     1       2.838   5.711  18.804  0.00  0.00    +0.000 A 
BRANCH   4  11
ATOM     10  C   UNL     1       2.272   3.050  21.566  0.00  0.00    +0.000 C 
ATOM     11  C   UNL     1       1.994   4.227  20.666  0.00  0.00    +0.000 C 
ATOM     12  O   UNL     1       0.946   4.866  20.742  0.00  0.00    +0.000 OA
ENDBRANCH   4  11
ENDBRANCH   1   7
BRANCH   1  13
ATOM     13  N   UNL     1       5.679   4.734  15.123  0.00  0.00    +0.000 N 
ATOM     14  C   UNL     1       6.435   4.631  13.958  0.00  0.00    +0.000 C 
ATOM     15  O   UNL     1       7.486   5.230  13.792  0.00  0.00    +0.000 OA
ATOM     16  H   UNL     1       4.832   4.196  15.267  0.00  0.00    +0.000 HD
BRANCH  14  17
ATOM     17  C   UNL     1       5.866   3.795  12.922  0.00  0.00    +0.000 A 
ATOM     18  C   UNL     1       4.859   3.979  11.987  0.00  0.00    +0.000 A 
ATOM     19  C   UNL     1       4.770   2.798  11.197  0.00  0.00    +0.000 A 
ATOM     20  C   UNL     1       5.710   1.910  11.672  0.00  0.00    +0.000 A 
ATOM     21  N   UNL     1       6.356   2.515  12.716  0.00  0.00    +0.000 N 
ATOM     22  H   UNL     1       7.105   2.107  13.263  0.00  0.00    +0.000 HD
BRANCH  20  23
ATOM     23  C   UNL     1       6.008   0.598  11.208  0.00  0.00    +0.000 C 
ATOM     24  N   UNL     1       6.267  -0.475  10.849  0.00  0.00    +0.000 NA
ENDBRANCH  20  23
ENDBRANCH  14  17
ENDBRANCH   1  13
TORSDOF 5
ENDMDL
