MODEL 1
REMARK VINA RESULT:      -7.9      0.000      0.000
REMARK  Name = 
REMARK  7 active torsions:
REMARK  status: ('A' for Active; 'I' for Inactive)
REMARK    1  A    between atoms: C_1  and  C_2
REMARK    2  A    between atoms: C_4  and  C_5
REMARK    3  A    between atoms: C_13  and  C_14
REMARK    4  A    between atoms: C_14  and  C_15
REMARK    5  A    between atoms: C_15  and  N_16
REMARK    6  A    between atoms: C_17  and  C_19
REMARK    7  A    between atoms: C_19  and  C_20
REMARK                            x       y       z     vdW  Elec       q    Type
REMARK                         _______ _______ _______ _____ _____    ______ ____
ROOT
ATOM      1  C   UNL     1       4.343   3.421  19.127  0.00  0.00    +0.000 C 
ENDROOT
BRANCH   1   7
ATOM      2  C   UNL     1       2.118   3.489  21.525  0.00  0.00    +0.000 C 
ATOM      3  C   UNL     1       2.488   4.574  20.575  0.00  0.00    +0.000 A 
ATOM      4  N   UNL     1       1.823   5.784  20.690  0.00  0.00    +0.000 NA
ATOM      5  C   UNL     1       2.261   6.649  19.797  0.00  0.00    +0.000 A 
ATOM      6  S   UNL     1       3.469   6.033  18.742  0.00  0.00    +0.000 S 
ATOM      7  C   UNL     1       3.433   4.529  19.562  0.00  0.00    +0.000 A 
BRANCH   5   8
ATOM      8  C   UNL     1       1.748   8.020  19.655  0.00  0.00    +0.000 A 
ATOM      9  C   UNL     1       1.846   8.746  18.455  0.00  0.00    +0.000 A 
ATOM     10  C   UNL     1       1.344  10.045  18.362  0.00  0.00    +0.000 A 
ATOM     11  C   UNL     1       0.743  10.638  19.469  0.00  0.00    +0.000 A 
ATOM     12 CL   UNL     1       0.122  12.236  19.347  0.00  0.00    +0.000 Cl
ATOM     13  C   UNL     1       0.647   9.945  20.671  0.00  0.00    +0.000 A 
ATOM     14  C   UNL     1       1.150   8.643  20.764  0.00  0.00    +0.000 A 
ENDBRANCH   5   8
ENDBRANCH   1   7
BRANCH   1  15
ATOM     15  C   UNL     1       5.750   3.941  18.806  0.00  0.00    +0.000 C 
BRANCH  15  16
ATOM     16  N   UNL     1       5.858   4.583  17.505  0.00  0.00    +0.000 N 
ATOM     17  C   UNL     1       7.077   4.720  16.873  0.00  0.00    +0.000 C 
ATOM     18  O   UNL     1       8.109   4.210  17.302  0.00  0.00    +0.000 OA
ATOM     19  H   UNL     1       5.064   5.111  17.164  0.00  0.00    +0.000 HD
BRANCH  17  20
ATOM     20  C   UNL     1       7.057   5.551  15.604  0.00  0.00    +0.000 C 
BRANCH  20  21
ATOM     21  C   UNL     1       6.598   4.801  14.376  0.00  0.00    +0.000 A 
ATOM     22  C   UNL     1       7.457   4.645  13.277  0.00  0.00    +0.000 A 
ATOM     23  C   UNL     1       7.058   3.900  12.165  0.00  0.00    +0.000 A 
ATOM     24  C   UNL     1       5.801   3.308  12.150  0.00  0.00    +0.000 A 
ATOM     25  F   UNL     1       5.424   2.588  11.085  0.00  0.00    +0.000 F 
ATOM     26  C   UNL     1       4.936   3.444  13.229  0.00  0.00    +0.000 A 
ATOM     27  C   UNL     1       5.335   4.186  14.342  0.00  0.00    +0.000 A 
ENDBRANCH  20  21
ENDBRANCH  17  20
ENDBRANCH  15  16
ENDBRANCH   1  15
TORSDOF 6
ENDMDL
MODEL 2
REMARK VINA RESULT:      -7.9      4.610      8.562
REMARK  Name = 
REMARK  7 active torsions:
REMARK  status: ('A' for Active; 'I' for Inactive)
REMARK    1  A    between atoms: C_1  and  C_2
REMARK    2  A    between atoms: C_4  and  C_5
REMARK    3  A    between atoms: C_13  and  C_14
REMARK    4  A    between atoms: C_14  and  C_15
REMARK    5  A    between atoms: C_15  and  N_16
REMARK    6  A    between atoms: C_17  and  C_19
REMARK    7  A    between atoms: C_19  and  C_20
REMARK                            x       y       z     vdW  Elec       q    Type
REMARK                         _______ _______ _______ _____ _____    ______ ____
ROOT
ATOM      1  C   UNL     1       1.234   6.530  20.830  0.00  0.00    +0.000 C 
ENDROOT
BRANCH   1   7
ATOM      2  C   UNL     1       1.535   3.290  20.487  0.00  0.00    +0.000 C 
ATOM      3  C   UNL     1       2.194   4.368  19.701  0.00  0.00    +0.000 A 
ATOM      4  N   UNL     1       3.055   3.990  18.683  0.00  0.00    +0.000 NA
ATOM      5  C   UNL     1       3.552   5.044  18.069  0.00  0.00    +0.000 A 
ATOM      6  S   UNL     1       3.039   6.552  18.714  0.00  0.00    +0.000 S 
ATOM      7  C   UNL     1       2.056   5.739  19.860  0.00  0.00    +0.000 A 
BRANCH   5   8
ATOM      8  C   UNL     1       4.505   4.975  16.951  0.00  0.00    +0.000 A 
ATOM      9  C   UNL     1       5.096   3.769  16.533  0.00  0.00    +0.000 A 
ATOM     10  C   UNL     1       5.994   3.746  15.465  0.00  0.00    +0.000 A 
ATOM     11  C   UNL     1       6.320   4.929  14.806  0.00  0.00    +0.000 A 
ATOM     12 CL   UNL     1       7.424   4.895  13.488  0.00  0.00    +0.000 Cl
ATOM     13  C   UNL     1       5.759   6.136  15.211  0.00  0.00    +0.000 A 
ATOM     14  C   UNL     1       4.859   6.158  16.281  0.00  0.00    +0.000 A 
ENDBRANCH   5   8
ENDBRANCH   1   7
BRANCH   1  15
ATOM     15  C   UNL     1       1.639   8.009  20.836  0.00  0.00    +0.000 C 
BRANCH  15  16
ATOM     16  N   UNL     1       0.516   8.927  20.720  0.00  0.00    +0.000 N 
ATOM     17  C   UNL     1       0.465   9.873  19.716  0.00  0.00    +0.000 C 
ATOM     18  O   UNL     1       1.285   9.917  18.803  0.00  0.00    +0.000 OA
ATOM     19  H   UNL     1      -0.122   9.004  21.502  0.00  0.00    +0.000 HD
BRANCH  17  20
ATOM     20  C   UNL     1      -0.680  10.862  19.818  0.00  0.00    +0.000 C 
BRANCH  20  21
ATOM     21  C   UNL     1      -1.659  10.803  18.669  0.00  0.00    +0.000 A 
ATOM     22  C   UNL     1      -1.405   9.976  17.563  0.00  0.00    +0.000 A 
ATOM     23  C   UNL     1      -2.336   9.873  16.527  0.00  0.00    +0.000 A 
ATOM     24  C   UNL     1      -3.523  10.592  16.597  0.00  0.00    +0.000 A 
ATOM     25  F   UNL     1      -4.418  10.485  15.605  0.00  0.00    +0.000 F 
ATOM     26  C   UNL     1      -3.798  11.411  17.684  0.00  0.00    +0.000 A 
ATOM     27  C   UNL     1      -2.869  11.515  18.721  0.00  0.00    +0.000 A 
ENDBRANCH  20  21
ENDBRANCH  17  20
ENDBRANCH  15  16
ENDBRANCH   1  15
TORSDOF 6
ENDMDL
MODEL 3
REMARK VINA RESULT:      -7.9      2.773      3.434
REMARK  Name = 
REMARK  7 active torsions:
REMARK  status: ('A' for Active; 'I' for Inactive)
REMARK    1  A    between atoms: C_1  and  C_2
REMARK    2  A    between atoms: C_4  and  C_5
REMARK    3  A    between atoms: C_13  and  C_14
REMARK    4  A    between atoms: C_14  and  C_15
REMARK    5  A    between atoms: C_15  and  N_16
REMARK    6  A    between atoms: C_17  and  C_19
REMARK    7  A    between atoms: C_19  and  C_20
REMARK                            x       y       z     vdW  Elec       q    Type
REMARK                         _______ _______ _______ _____ _____    ______ ____
ROOT
ATOM      1  C   UNL     1       4.104   2.711  20.425  0.00  0.00    +0.000 C 
ENDROOT
BRANCH   1   7
ATOM      2  C   UNL     1       1.043   2.889  21.565  0.00  0.00    +0.000 C 
ATOM      3  C   UNL     1       1.856   3.960  20.928  0.00  0.00    +0.000 A 
ATOM      4  N   UNL     1       1.273   5.209  20.779  0.00  0.00    +0.000 NA
ATOM      5  C   UNL     1       2.110   6.055  20.214  0.00  0.00    +0.000 A 
ATOM      6  S   UNL     1       3.632   5.378  19.793  0.00  0.00    +0.000 S 
ATOM      7  C   UNL     1       3.153   3.868  20.448  0.00  0.00    +0.000 A 
BRANCH   5   8
ATOM      8  C   UNL     1       1.786   7.457  19.912  0.00  0.00    +0.000 A 
ATOM      9  C   UNL     1       2.070   8.050  18.668  0.00  0.00    +0.000 A 
ATOM     10  C   UNL     1       1.745   9.384  18.421  0.00  0.00    +0.000 A 
ATOM     11  C   UNL     1       1.136  10.146  19.415  0.00  0.00    +0.000 A 
ATOM     12 CL   UNL     1       0.733  11.788  19.103  0.00  0.00    +0.000 Cl
ATOM     13  C   UNL     1       0.858   9.586  20.657  0.00  0.00    +0.000 A 
ATOM     14  C   UNL     1       1.185   8.249  20.905  0.00  0.00    +0.000 A 
ENDBRANCH   5   8
ENDBRANCH   1   7
BRANCH   1  15
ATOM     15  C   UNL     1       4.150   2.049  19.042  0.00  0.00    +0.000 C 
BRANCH  15  16
ATOM     16  N   UNL     1       4.778   2.869  18.017  0.00  0.00    +0.000 N 
ATOM     17  C   UNL     1       4.061   3.333  16.933  0.00  0.00    +0.000 C 
ATOM     18  O   UNL     1       2.846   3.191  16.830  0.00  0.00    +0.000 OA
ATOM     19  H   UNL     1       5.789   2.922  17.998  0.00  0.00    +0.000 HD
BRANCH  17  20
ATOM     20  C   UNL     1       4.883   4.035  15.868  0.00  0.00    +0.000 C 
BRANCH  20  21
ATOM     21  C   UNL     1       5.637   5.247  16.362  0.00  0.00    +0.000 A 
ATOM     22  C   UNL     1       5.002   6.497  16.437  0.00  0.00    +0.000 A 
ATOM     23  C   UNL     1       5.678   7.606  16.950  0.00  0.00    +0.000 A 
ATOM     24  C   UNL     1       6.988   7.468  17.392  0.00  0.00    +0.000 A 
ATOM     25  F   UNL     1       7.631   8.532  17.891  0.00  0.00    +0.000 F 
ATOM     26  C   UNL     1       7.634   6.239  17.334  0.00  0.00    +0.000 A 
ATOM     27  C   UNL     1       6.959   5.129  16.823  0.00  0.00    +0.000 A 
ENDBRANCH  20  21
ENDBRANCH  17  20
ENDBRANCH  15  16
ENDBRANCH   1  15
TORSDOF 6
ENDMDL
MODEL 4
REMARK VINA RESULT:      -7.9      4.464      8.478
REMARK  Name = 
REMARK  7 active torsions:
REMARK  status: ('A' for Active; 'I' for Inactive)
REMARK    1  A    between atoms: C_1  and  C_2
REMARK    2  A    between atoms: C_4  and  C_5
REMARK    3  A    between atoms: C_13  and  C_14
REMARK    4  A    between atoms: C_14  and  C_15
REMARK    5  A    between atoms: C_15  and  N_16
REMARK    6  A    between atoms: C_17  and  C_19
REMARK    7  A    between atoms: C_19  and  C_20
REMARK                            x       y       z     vdW  Elec       q    Type
REMARK                         _______ _______ _______ _____ _____    ______ ____
ROOT
ATOM      1  C   UNL     1       3.103   2.688  21.028  0.00  0.00    +0.000 C 
ENDROOT
BRANCH   1   7
ATOM      2  C   UNL     1       1.099   2.498  18.449  0.00  0.00    +0.000 C 
ATOM      3  C   UNL     1       2.527   2.917  18.482  0.00  0.00    +0.000 A 
ATOM      4  N   UNL     1       3.119   3.280  17.283  0.00  0.00    +0.000 NA
ATOM      5  C   UNL     1       4.374   3.637  17.466  0.00  0.00    +0.000 A 
ATOM      6  S   UNL     1       4.919   3.515  19.091  0.00  0.00    +0.000 S 
ATOM      7  C   UNL     1       3.364   2.991  19.584  0.00  0.00    +0.000 A 
BRANCH   5   8
ATOM      8  C   UNL     1       5.276   4.066  16.387  0.00  0.00    +0.000 A 
ATOM      9  C   UNL     1       6.524   4.666  16.635  0.00  0.00    +0.000 A 
ATOM     10  C   UNL     1       7.351   5.057  15.582  0.00  0.00    +0.000 A 
ATOM     11  C   UNL     1       6.940   4.860  14.266  0.00  0.00    +0.000 A 
ATOM     12 CL   UNL     1       7.965   5.339  12.971  0.00  0.00    +0.000 Cl
ATOM     13  C   UNL     1       5.704   4.282  13.995  0.00  0.00    +0.000 A 
ATOM     14  C   UNL     1       4.875   3.891  15.052  0.00  0.00    +0.000 A 
ENDBRANCH   5   8
ENDBRANCH   1   7
BRANCH   1  15
ATOM     15  C   UNL     1       2.171   3.728  21.662  0.00  0.00    +0.000 C 
BRANCH  15  16
ATOM     16  N   UNL     1       2.493   5.101  21.305  0.00  0.00    +0.000 N 
ATOM     17  C   UNL     1       1.604   5.884  20.596  0.00  0.00    +0.000 C 
ATOM     18  O   UNL     1       0.460   5.521  20.335  0.00  0.00    +0.000 OA
ATOM     19  H   UNL     1       3.453   5.408  21.399  0.00  0.00    +0.000 HD
BRANCH  17  20
ATOM     20  C   UNL     1       2.140   7.233  20.157  0.00  0.00    +0.000 C 
BRANCH  20  21
ATOM     21  C   UNL     1       1.349   8.414  20.669  0.00  0.00    +0.000 A 
ATOM     22  C   UNL     1       1.083   8.549  22.041  0.00  0.00    +0.000 A 
ATOM     23  C   UNL     1       0.405   9.670  22.525  0.00  0.00    +0.000 A 
ATOM     24  C   UNL     1      -0.005  10.660  21.639  0.00  0.00    +0.000 A 
ATOM     25  F   UNL     1      -0.648  11.738  22.107  0.00  0.00    +0.000 F 
ATOM     26  C   UNL     1       0.254  10.551  20.279  0.00  0.00    +0.000 A 
ATOM     27  C   UNL     1       0.932   9.431  19.794  0.00  0.00    +0.000 A 
ENDBRANCH  20  21
ENDBRANCH  17  20
ENDBRANCH  15  16
ENDBRANCH   1  15
TORSDOF 6
ENDMDL
MODEL 5
REMARK VINA RESULT:      -7.8      3.403      5.001
REMARK  Name = 
REMARK  7 active torsions:
REMARK  status: ('A' for Active; 'I' for Inactive)
REMARK    1  A    between atoms: C_1  and  C_2
REMARK    2  A    between atoms: C_4  and  C_5
REMARK    3  A    between atoms: C_13  and  C_14
REMARK    4  A    between atoms: C_14  and  C_15
REMARK    5  A    between atoms: C_15  and  N_16
REMARK    6  A    between atoms: C_17  and  C_19
REMARK    7  A    between atoms: C_19  and  C_20
REMARK                            x       y       z     vdW  Elec       q    Type
REMARK                         _______ _______ _______ _____ _____    ______ ____
ROOT
ATOM      1  C   UNL     1       2.410   8.053  17.428  0.00  0.00    +0.000 C 
ENDROOT
BRANCH   1   7
ATOM      2  C   UNL     1       2.154   6.522  20.308  0.00  0.00    +0.000 C 
ATOM      3  C   UNL     1       1.729   7.903  19.954  0.00  0.00    +0.000 A 
ATOM      4  N   UNL     1       1.144   8.672  20.948  0.00  0.00    +0.000 NA
ATOM      5  C   UNL     1       0.832   9.870  20.496  0.00  0.00    +0.000 A 
ATOM      6  S   UNL     1       1.192  10.120  18.834  0.00  0.00    +0.000 S 
ATOM      7  C   UNL     1       1.844   8.538  18.727  0.00  0.00    +0.000 A 
BRANCH   5   8
ATOM      8  C   UNL     1       0.188  10.915  21.305  0.00  0.00    +0.000 A 
ATOM      9  C   UNL     1       0.440  12.285  21.114  0.00  0.00    +0.000 A 
ATOM     10  C   UNL     1      -0.195  13.246  21.902  0.00  0.00    +0.000 A 
ATOM     11  C   UNL     1      -1.085  12.850  22.897  0.00  0.00    +0.000 A 
ATOM     12 CL   UNL     1      -1.868  14.037  23.863  0.00  0.00    +0.000 Cl
ATOM     13  C   UNL     1      -1.339  11.500  23.115  0.00  0.00    +0.000 A 
ATOM     14  C   UNL     1      -0.702  10.537  22.325  0.00  0.00    +0.000 A 
ENDBRANCH   5   8
ENDBRANCH   1   7
BRANCH   1  15
ATOM     15  C   UNL     1       3.926   7.836  17.521  0.00  0.00    +0.000 C 
BRANCH  15  16
ATOM     16  N   UNL     1       4.317   6.437  17.601  0.00  0.00    +0.000 N 
ATOM     17  C   UNL     1       4.903   5.794  16.530  0.00  0.00    +0.000 C 
ATOM     18  O   UNL     1       5.239   6.382  15.505  0.00  0.00    +0.000 OA
ATOM     19  H   UNL     1       3.966   5.885  18.374  0.00  0.00    +0.000 HD
BRANCH  17  20
ATOM     20  C   UNL     1       5.105   4.301  16.704  0.00  0.00    +0.000 C 
BRANCH  20  21
ATOM     21  C   UNL     1       4.132   3.648  17.657  0.00  0.00    +0.000 A 
ATOM     22  C   UNL     1       2.833   3.324  17.234  0.00  0.00    +0.000 A 
ATOM     23  C   UNL     1       1.951   2.665  18.093  0.00  0.00    +0.000 A 
ATOM     24  C   UNL     1       2.365   2.327  19.375  0.00  0.00    +0.000 A 
ATOM     25  F   UNL     1       1.520   1.688  20.195  0.00  0.00    +0.000 F 
ATOM     26  C   UNL     1       3.648   2.632  19.814  0.00  0.00    +0.000 A 
ATOM     27  C   UNL     1       4.531   3.288  18.956  0.00  0.00    +0.000 A 
ENDBRANCH  20  21
ENDBRANCH  17  20
ENDBRANCH  15  16
ENDBRANCH   1  15
TORSDOF 6
ENDMDL
MODEL 6
REMARK VINA RESULT:      -7.7      1.038      1.137
REMARK  Name = 
REMARK  7 active torsions:
REMARK  status: ('A' for Active; 'I' for Inactive)
REMARK    1  A    between atoms: C_1  and  C_2
REMARK    2  A    between atoms: C_4  and  C_5
REMARK    3  A    between atoms: C_13  and  C_14
REMARK    4  A    between atoms: C_14  and  C_15
REMARK    5  A    between atoms: C_15  and  N_16
REMARK    6  A    between atoms: C_17  and  C_19
REMARK    7  A    between atoms: C_19  and  C_20
REMARK                            x       y       z     vdW  Elec       q    Type
REMARK                         _______ _______ _______ _____ _____    ______ ____
ROOT
ATOM      1  C   UNL     1       4.044   4.367  18.440  0.00  0.00    +0.000 C 
ENDROOT
BRANCH   1   7
ATOM      2  C   UNL     1       2.239   3.652  21.073  0.00  0.00    +0.000 C 
ATOM      3  C   UNL     1       2.377   4.958  20.374  0.00  0.00    +0.000 A 
ATOM      4  N   UNL     1       1.662   6.035  20.873  0.00  0.00    +0.000 NA
ATOM      5  C   UNL     1       1.891   7.122  20.165  0.00  0.00    +0.000 A 
ATOM      6  S   UNL     1       2.950   6.893  18.831  0.00  0.00    +0.000 S 
ATOM      7  C   UNL     1       3.146   5.245  19.257  0.00  0.00    +0.000 A 
BRANCH   5   8
ATOM      8  C   UNL     1       1.273   8.428  20.436  0.00  0.00    +0.000 A 
ATOM      9  C   UNL     1       1.040   9.381  19.427  0.00  0.00    +0.000 A 
ATOM     10  C   UNL     1       0.449  10.609  19.726  0.00  0.00    +0.000 A 
ATOM     11  C   UNL     1       0.087  10.905  21.038  0.00  0.00    +0.000 A 
ATOM     12 CL   UNL     1      -0.645  12.417  21.401  0.00  0.00    +0.000 Cl
ATOM     13  C   UNL     1       0.320   9.984  22.055  0.00  0.00    +0.000 A 
ATOM     14  C   UNL     1       0.913   8.754  21.754  0.00  0.00    +0.000 A 
ENDBRANCH   5   8
ENDBRANCH   1   7
BRANCH   1  15
ATOM     15  C   UNL     1       5.508   4.497  18.878  0.00  0.00    +0.000 C 
BRANCH  15  16
ATOM     16  N   UNL     1       6.460   4.411  17.781  0.00  0.00    +0.000 N 
ATOM     17  C   UNL     1       6.628   5.456  16.894  0.00  0.00    +0.000 C 
ATOM     18  O   UNL     1       6.087   6.548  17.045  0.00  0.00    +0.000 OA
ATOM     19  H   UNL     1       6.845   3.503  17.550  0.00  0.00    +0.000 HD
BRANCH  17  20
ATOM     20  C   UNL     1       7.531   5.161  15.712  0.00  0.00    +0.000 C 
BRANCH  20  21
ATOM     21  C   UNL     1       6.811   4.628  14.496  0.00  0.00    +0.000 A 
ATOM     22  C   UNL     1       7.456   4.591  13.249  0.00  0.00    +0.000 A 
ATOM     23  C   UNL     1       6.816   4.043  12.136  0.00  0.00    +0.000 A 
ATOM     24  C   UNL     1       5.532   3.528  12.267  0.00  0.00    +0.000 A 
ATOM     25  F   UNL     1       4.922   2.996  11.199  0.00  0.00    +0.000 F 
ATOM     26  C   UNL     1       4.877   3.548  13.492  0.00  0.00    +0.000 A 
ATOM     27  C   UNL     1       5.517   4.094  14.606  0.00  0.00    +0.000 A 
ENDBRANCH  20  21
ENDBRANCH  17  20
ENDBRANCH  15  16
ENDBRANCH   1  15
TORSDOF 6
ENDMDL
MODEL 7
REMARK VINA RESULT:      -7.7      2.912      4.256
REMARK  Name = 
REMARK  7 active torsions:
REMARK  status: ('A' for Active; 'I' for Inactive)
REMARK    1  A    between atoms: C_1  and  C_2
REMARK    2  A    between atoms: C_4  and  C_5
REMARK    3  A    between atoms: C_13  and  C_14
REMARK    4  A    between atoms: C_14  and  C_15
REMARK    5  A    between atoms: C_15  and  N_16
REMARK    6  A    between atoms: C_17  and  C_19
REMARK    7  A    between atoms: C_19  and  C_20
REMARK                            x       y       z     vdW  Elec       q    Type
REMARK                         _______ _______ _______ _____ _____    ______ ____
ROOT
ATOM      1  C   UNL     1       2.134   5.735  20.815  0.00  0.00    +0.000 C 
ENDROOT
BRANCH   1   7
ATOM      2  C   UNL     1       3.101   7.198  18.053  0.00  0.00    +0.000 C 
ATOM      3  C   UNL     1       2.203   7.728  19.115  0.00  0.00    +0.000 A 
ATOM      4  N   UNL     1       1.691   9.005  18.947  0.00  0.00    +0.000 NA
ATOM      5  C   UNL     1       0.907   9.335  19.954  0.00  0.00    +0.000 A 
ATOM      6  S   UNL     1       0.778   8.136  21.178  0.00  0.00    +0.000 S 
ATOM      7  C   UNL     1       1.803   7.095  20.281  0.00  0.00    +0.000 A 
BRANCH   5   8
ATOM      8  C   UNL     1       0.221  10.630  20.075  0.00  0.00    +0.000 A 
ATOM      9  C   UNL     1      -0.995  10.907  19.424  0.00  0.00    +0.000 A 
ATOM     10  C   UNL     1      -1.616  12.149  19.567  0.00  0.00    +0.000 A 
ATOM     11  C   UNL     1      -1.027  13.133  20.357  0.00  0.00    +0.000 A 
ATOM     12 CL   UNL     1      -1.797  14.659  20.533  0.00  0.00    +0.000 Cl
ATOM     13  C   UNL     1       0.182  12.887  20.999  0.00  0.00    +0.000 A 
ATOM     14  C   UNL     1       0.804  11.642  20.855  0.00  0.00    +0.000 A 
ENDBRANCH   5   8
ENDBRANCH   1   7
BRANCH   1  15
ATOM     15  C   UNL     1       1.424   4.631  20.021  0.00  0.00    +0.000 C 
BRANCH  15  16
ATOM     16  N   UNL     1       2.146   4.203  18.833  0.00  0.00    +0.000 N 
ATOM     17  C   UNL     1       3.026   3.140  18.874  0.00  0.00    +0.000 C 
ATOM     18  O   UNL     1       3.158   2.425  19.863  0.00  0.00    +0.000 OA
ATOM     19  H   UNL     1       2.156   4.820  18.031  0.00  0.00    +0.000 HD
BRANCH  17  20
ATOM     20  C   UNL     1       3.824   2.915  17.604  0.00  0.00    +0.000 C 
BRANCH  20  21
ATOM     21  C   UNL     1       4.904   3.942  17.356  0.00  0.00    +0.000 A 
ATOM     22  C   UNL     1       5.098   4.471  16.070  0.00  0.00    +0.000 A 
ATOM     23  C   UNL     1       6.053   5.465  15.850  0.00  0.00    +0.000 A 
ATOM     24  C   UNL     1       6.814   5.935  16.914  0.00  0.00    +0.000 A 
ATOM     25  F   UNL     1       7.725   6.894  16.701  0.00  0.00    +0.000 F 
ATOM     26  C   UNL     1       6.635   5.430  18.196  0.00  0.00    +0.000 A 
ATOM     27  C   UNL     1       5.679   4.438  18.418  0.00  0.00    +0.000 A 
ENDBRANCH  20  21
ENDBRANCH  17  20
ENDBRANCH  15  16
ENDBRANCH   1  15
TORSDOF 6
ENDMDL
MODEL 8
REMARK VINA RESULT:      -7.6      4.520      7.005
REMARK  Name = 
REMARK  7 active torsions:
REMARK  status: ('A' for Active; 'I' for Inactive)
REMARK    1  A    between atoms: C_1  and  C_2
REMARK    2  A    between atoms: C_4  and  C_5
REMARK    3  A    between atoms: C_13  and  C_14
REMARK    4  A    between atoms: C_14  and  C_15
REMARK    5  A    between atoms: C_15  and  N_16
REMARK    6  A    between atoms: C_17  and  C_19
REMARK    7  A    between atoms: C_19  and  C_20
REMARK                            x       y       z     vdW  Elec       q    Type
REMARK                         _______ _______ _______ _____ _____    ______ ____
ROOT
ATOM      1  C   UNL     1       1.098   9.375  17.748  0.00  0.00    +0.000 C 
ENDROOT
BRANCH   1   7
ATOM      2  C   UNL     1       2.481  12.323  18.068  0.00  0.00    +0.000 C 
ATOM      3  C   UNL     1       1.302  11.771  18.790  0.00  0.00    +0.000 A 
ATOM      4  N   UNL     1       0.685  12.581  19.730  0.00  0.00    +0.000 NA
ATOM      5  C   UNL     1      -0.346  11.969  20.277  0.00  0.00    +0.000 A 
ATOM      6  S   UNL     1      -0.599  10.364  19.717  0.00  0.00    +0.000 S 
ATOM      7  C   UNL     1       0.729  10.518  18.644  0.00  0.00    +0.000 A 
BRANCH   5   8
ATOM      8  C   UNL     1      -1.200  12.560  21.316  0.00  0.00    +0.000 A 
ATOM      9  C   UNL     1      -2.602  12.611  21.207  0.00  0.00    +0.000 A 
ATOM     10  C   UNL     1      -3.378  13.180  22.218  0.00  0.00    +0.000 A 
ATOM     11  C   UNL     1      -2.763  13.712  23.349  0.00  0.00    +0.000 A 
ATOM     12 CL   UNL     1      -3.724  14.408  24.593  0.00  0.00    +0.000 Cl
ATOM     13  C   UNL     1      -1.378  13.686  23.473  0.00  0.00    +0.000 A 
ATOM     14  C   UNL     1      -0.601  13.116  22.459  0.00  0.00    +0.000 A 
ENDBRANCH   5   8
ENDBRANCH   1   7
BRANCH   1  15
ATOM     15  C   UNL     1       2.402   8.705  18.200  0.00  0.00    +0.000 C 
BRANCH  15  16
ATOM     16  N   UNL     1       2.358   7.251  18.167  0.00  0.00    +0.000 N 
ATOM     17  C   UNL     1       3.453   6.510  17.770  0.00  0.00    +0.000 C 
ATOM     18  O   UNL     1       4.550   7.014  17.544  0.00  0.00    +0.000 OA
ATOM     19  H   UNL     1       1.456   6.797  18.238  0.00  0.00    +0.000 HD
BRANCH  17  20
ATOM     20  C   UNL     1       3.208   5.020  17.631  0.00  0.00    +0.000 C 
BRANCH  20  21
ATOM     21  C   UNL     1       2.526   4.387  18.821  0.00  0.00    +0.000 A 
ATOM     22  C   UNL     1       1.439   3.518  18.637  0.00  0.00    +0.000 A 
ATOM     23  C   UNL     1       0.845   2.883  19.730  0.00  0.00    +0.000 A 
ATOM     24  C   UNL     1       1.339   3.113  21.008  0.00  0.00    +0.000 A 
ATOM     25  F   UNL     1       0.772   2.498  22.055  0.00  0.00    +0.000 F 
ATOM     26  C   UNL     1       2.417   3.964  21.214  0.00  0.00    +0.000 A 
ATOM     27  C   UNL     1       3.013   4.598  20.122  0.00  0.00    +0.000 A 
ENDBRANCH  20  21
ENDBRANCH  17  20
ENDBRANCH  15  16
ENDBRANCH   1  15
TORSDOF 6
ENDMDL
MODEL 9
REMARK VINA RESULT:      -7.6      1.124      1.563
REMARK  Name = 
REMARK  7 active torsions:
REMARK  status: ('A' for Active; 'I' for Inactive)
REMARK    1  A    between atoms: C_1  and  C_2
REMARK    2  A    between atoms: C_4  and  C_5
REMARK    3  A    between atoms: C_13  and  C_14
REMARK    4  A    between atoms: C_14  and  C_15
REMARK    5  A    between atoms: C_15  and  N_16
REMARK    6  A    between atoms: C_17  and  C_19
REMARK    7  A    between atoms: C_19  and  C_20
REMARK                            x       y       z     vdW  Elec       q    Type
REMARK                         _______ _______ _______ _____ _____    ______ ____
ROOT
ATOM      1  C   UNL     1       3.686   4.360  18.390  0.00  0.00    +0.000 C 
ENDROOT
BRANCH   1   7
ATOM      2  C   UNL     1       1.937   3.603  21.049  0.00  0.00    +0.000 C 
ATOM      3  C   UNL     1       2.118   4.934  20.410  0.00  0.00    +0.000 A 
ATOM      4  N   UNL     1       1.477   6.019  20.988  0.00  0.00    +0.000 NA
ATOM      5  C   UNL     1       1.737   7.128  20.326  0.00  0.00    +0.000 A 
ATOM      6  S   UNL     1       2.737   6.915  18.944  0.00  0.00    +0.000 S 
ATOM      7  C   UNL     1       2.863   5.239  19.281  0.00  0.00    +0.000 A 
BRANCH   5   8
ATOM      8  C   UNL     1       1.197   8.448  20.683  0.00  0.00    +0.000 A 
ATOM      9  C   UNL     1       0.854   8.795  22.002  0.00  0.00    +0.000 A 
ATOM     10  C   UNL     1       0.346  10.060  22.300  0.00  0.00    +0.000 A 
ATOM     11  C   UNL     1       0.167  10.993  21.282  0.00  0.00    +0.000 A 
ATOM     12 CL   UNL     1      -0.456  12.552  21.655  0.00  0.00    +0.000 Cl
ATOM     13  C   UNL     1       0.485  10.668  19.968  0.00  0.00    +0.000 A 
ATOM     14  C   UNL     1       0.994   9.400  19.670  0.00  0.00    +0.000 A 
ENDBRANCH   5   8
ENDBRANCH   1   7
BRANCH   1  15
ATOM     15  C   UNL     1       5.114   4.196  18.924  0.00  0.00    +0.000 C 
BRANCH  15  16
ATOM     16  N   UNL     1       6.138   4.240  17.891  0.00  0.00    +0.000 N 
ATOM     17  C   UNL     1       6.444   5.415  17.234  0.00  0.00    +0.000 C 
ATOM     18  O   UNL     1       5.971   6.500  17.560  0.00  0.00    +0.000 OA
ATOM     19  H   UNL     1       6.475   3.363  17.513  0.00  0.00    +0.000 HD
BRANCH  17  20
ATOM     20  C   UNL     1       7.411   5.274  16.075  0.00  0.00    +0.000 C 
BRANCH  20  21
ATOM     21  C   UNL     1       6.785   4.753  14.802  0.00  0.00    +0.000 A 
ATOM     22  C   UNL     1       7.513   4.755  13.601  0.00  0.00    +0.000 A 
ATOM     23  C   UNL     1       6.960   4.219  12.436  0.00  0.00    +0.000 A 
ATOM     24  C   UNL     1       5.682   3.676  12.470  0.00  0.00    +0.000 A 
ATOM     25  F   UNL     1       5.156   3.155  11.353  0.00  0.00    +0.000 F 
ATOM     26  C   UNL     1       4.946   3.657  13.648  0.00  0.00    +0.000 A 
ATOM     27  C   UNL     1       5.498   4.191  14.814  0.00  0.00    +0.000 A 
ENDBRANCH  20  21
ENDBRANCH  17  20
ENDBRANCH  15  16
ENDBRANCH   1  15
TORSDOF 6
ENDMDL
