MODEL 1
REMARK VINA RESULT:      -8.4      0.000      0.000
REMARK  Name = 
REMARK  5 active torsions:
REMARK  status: ('A' for Active; 'I' for Inactive)
REMARK    1  A    between atoms: C_1  and  C_2
REMARK    2  A    between atoms: C_9  and  N_10
REMARK    3  A    between atoms: C_11  and  C_13
REMARK    4  A    between atoms: C_14  and  C_15
REMARK    5  A    between atoms: C_18  and  C_19
REMARK                            x       y       z     vdW  Elec       q    Type
REMARK                         _______ _______ _______ _____ _____    ______ ____
ROOT
ATOM      1  N   UNL     1       6.409   7.430  17.284  0.00  0.00    +0.000 N 
ATOM      2  C   UNL     1       7.620   7.728  17.884  0.00  0.00    +0.000 C 
ATOM      3  O   UNL     1       8.191   7.065  18.744  0.00  0.00    +0.000 OA
ATOM      4  H   UNL     1       6.052   8.065  16.585  0.00  0.00    +0.000 HD
ENDROOT
BRANCH   1  13
ATOM      5  C   UNL     1       3.467   1.460  17.863  0.00  0.00    +0.000 C 
ATOM      6  C   UNL     1       3.176   2.823  18.410  0.00  0.00    +0.000 A 
ATOM      7  C   UNL     1       2.109   3.036  19.198  0.00  0.00    +0.000 A 
ATOM      8  C   UNL     1       1.760   4.347  19.765  0.00  0.00    +0.000 A 
ATOM      9  O   UNL     1       0.776   4.479  20.482  0.00  0.00    +0.000 OA
ATOM     10  O   UNL     1       2.592   5.398  19.442  0.00  0.00    +0.000 OA
ATOM     11  C   UNL     1       3.717   5.207  18.619  0.00  0.00    +0.000 A 
ATOM     12  C   UNL     1       4.471   6.353  18.373  0.00  0.00    +0.000 A 
ATOM     13  C   UNL     1       5.611   6.293  17.574  0.00  0.00    +0.000 A 
ATOM     14  C   UNL     1       5.971   5.050  17.037  0.00  0.00    +0.000 A 
ATOM     15  C   UNL     1       5.198   3.897  17.292  0.00  0.00    +0.000 A 
ATOM     16  C   UNL     1       4.049   3.963  18.093  0.00  0.00    +0.000 A 
ENDBRANCH   1  13
BRANCH   2  17
ATOM     17  C   UNL     1       8.242   8.992  17.403  0.00  0.00    +0.000 C 
ATOM     18  C   UNL     1       8.779   9.806  18.332  0.00  0.00    +0.000 C 
BRANCH  18  19
ATOM     19  C   UNL     1       9.457  11.082  18.085  0.00  0.00    +0.000 A 
ATOM     20  C   UNL     1      10.849  11.203  18.055  0.00  0.00    +0.000 A 
ATOM     21  C   UNL     1      11.447  12.440  17.800  0.00  0.00    +0.000 A 
ATOM     22  C   UNL     1      10.657  13.569  17.560  0.00  0.00    +0.000 A 
ATOM     23  C   UNL     1       9.266  13.451  17.553  0.00  0.00    +0.000 A 
ATOM     24  C   UNL     1       8.671  12.213  17.808  0.00  0.00    +0.000 A 
BRANCH  22  25
ATOM     25  C   UNL     1      11.275  14.842  17.325  0.00  0.00    +0.000 C 
ATOM     26  N   UNL     1      11.770  15.875  17.146  0.00  0.00    +0.000 NA
ENDBRANCH  22  25
ENDBRANCH  18  19
ENDBRANCH   2  17
TORSDOF 4
ENDMDL
MODEL 2
REMARK VINA RESULT:      -8.2      1.490      1.708
REMARK  Name = 
REMARK  5 active torsions:
REMARK  status: ('A' for Active; 'I' for Inactive)
REMARK    1  A    between atoms: C_1  and  C_2
REMARK    2  A    between atoms: C_9  and  N_10
REMARK    3  A    between atoms: C_11  and  C_13
REMARK    4  A    between atoms: C_14  and  C_15
REMARK    5  A    between atoms: C_18  and  C_19
REMARK                            x       y       z     vdW  Elec       q    Type
REMARK                         _______ _______ _______ _____ _____    ______ ____
ROOT
ATOM      1  N   UNL     1       6.628   7.370  17.262  0.00  0.00    +0.000 N 
ATOM      2  C   UNL     1       7.794   7.674  17.943  0.00  0.00    +0.000 C 
ATOM      3  O   UNL     1       8.282   7.044  18.875  0.00  0.00    +0.000 OA
ATOM      4  H   UNL     1       6.341   7.976  16.509  0.00  0.00    +0.000 HD
ENDROOT
BRANCH   1  13
ATOM      5  C   UNL     1       1.924   2.640  17.628  0.00  0.00    +0.000 C 
ATOM      6  C   UNL     1       3.179   2.925  18.395  0.00  0.00    +0.000 A 
ATOM      7  C   UNL     1       3.553   2.139  19.418  0.00  0.00    +0.000 A 
ATOM      8  C   UNL     1       4.767   2.362  20.217  0.00  0.00    +0.000 A 
ATOM      9  O   UNL     1       5.061   1.607  21.137  0.00  0.00    +0.000 OA
ATOM     10  O   UNL     1       5.537   3.453  19.876  0.00  0.00    +0.000 OA
ATOM     11  C   UNL     1       5.171   4.295  18.809  0.00  0.00    +0.000 A 
ATOM     12  C   UNL     1       6.037   5.360  18.572  0.00  0.00    +0.000 A 
ATOM     13  C   UNL     1       5.784   6.263  17.542  0.00  0.00    +0.000 A 
ATOM     14  C   UNL     1       4.641   6.060  16.757  0.00  0.00    +0.000 A 
ATOM     15  C   UNL     1       3.771   4.979  17.008  0.00  0.00    +0.000 A 
ATOM     16  C   UNL     1       4.027   4.075  18.050  0.00  0.00    +0.000 A 
ENDBRANCH   1  13
BRANCH   2  17
ATOM     17  C   UNL     1       8.480   8.902  17.452  0.00  0.00    +0.000 C 
ATOM     18  C   UNL     1       8.697   9.884  18.347  0.00  0.00    +0.000 C 
BRANCH  18  19
ATOM     19  C   UNL     1       9.368  11.162  18.093  0.00  0.00    +0.000 A 
ATOM     20  C   UNL     1      10.736  11.254  17.818  0.00  0.00    +0.000 A 
ATOM     21  C   UNL     1      11.326  12.496  17.567  0.00  0.00    +0.000 A 
ATOM     22  C   UNL     1      10.550  13.660  17.576  0.00  0.00    +0.000 A 
ATOM     23  C   UNL     1       9.177  13.574  17.814  0.00  0.00    +0.000 A 
ATOM     24  C   UNL     1       8.590  12.332  18.065  0.00  0.00    +0.000 A 
BRANCH  22  25
ATOM     25  C   UNL     1      11.165  14.935  17.344  0.00  0.00    +0.000 C 
ATOM     26  N   UNL     1      11.659  15.965  17.145  0.00  0.00    +0.000 NA
ENDBRANCH  22  25
ENDBRANCH  18  19
ENDBRANCH   2  17
TORSDOF 4
ENDMDL
MODEL 3
REMARK VINA RESULT:      -8.0      1.878      2.220
REMARK  Name = 
REMARK  5 active torsions:
REMARK  status: ('A' for Active; 'I' for Inactive)
REMARK    1  A    between atoms: C_1  and  C_2
REMARK    2  A    between atoms: C_9  and  N_10
REMARK    3  A    between atoms: C_11  and  C_13
REMARK    4  A    between atoms: C_14  and  C_15
REMARK    5  A    between atoms: C_18  and  C_19
REMARK                            x       y       z     vdW  Elec       q    Type
REMARK                         _______ _______ _______ _____ _____    ______ ____
ROOT
ATOM      1  N   UNL     1       6.339   7.612  18.097  0.00  0.00    +0.000 N 
ATOM      2  C   UNL     1       7.459   7.646  17.285  0.00  0.00    +0.000 C 
ATOM      3  O   UNL     1       7.858   6.747  16.553  0.00  0.00    +0.000 OA
ATOM      4  H   UNL     1       6.122   8.428  18.649  0.00  0.00    +0.000 HD
ENDROOT
BRANCH   1  13
ATOM      5  C   UNL     1       1.343   3.176  18.098  0.00  0.00    +0.000 C 
ATOM      6  C   UNL     1       2.740   3.174  18.638  0.00  0.00    +0.000 A 
ATOM      7  C   UNL     1       3.219   2.110  19.304  0.00  0.00    +0.000 A 
ATOM      8  C   UNL     1       4.576   2.041  19.865  0.00  0.00    +0.000 A 
ATOM      9  O   UNL     1       4.960   1.040  20.458  0.00  0.00    +0.000 OA
ATOM     10  O   UNL     1       5.372   3.152  19.689  0.00  0.00    +0.000 OA
ATOM     11  C   UNL     1       4.899   4.282  18.996  0.00  0.00    +0.000 A 
ATOM     12  C   UNL     1       5.807   5.334  18.890  0.00  0.00    +0.000 A 
ATOM     13  C   UNL     1       5.457   6.507  18.226  0.00  0.00    +0.000 A 
ATOM     14  C   UNL     1       4.174   6.588  17.668  0.00  0.00    +0.000 A 
ATOM     15  C   UNL     1       3.264   5.517  17.784  0.00  0.00    +0.000 A 
ATOM     16  C   UNL     1       3.618   4.339  18.458  0.00  0.00    +0.000 A 
ENDBRANCH   1  13
BRANCH   2  17
ATOM     17  C   UNL     1       8.217   8.927  17.349  0.00  0.00    +0.000 C 
ATOM     18  C   UNL     1       8.549   9.384  18.571  0.00  0.00    +0.000 C 
BRANCH  18  19
ATOM     19  C   UNL     1       9.306  10.603  18.869  0.00  0.00    +0.000 A 
ATOM     20  C   UNL     1       9.943  10.814  20.096  0.00  0.00    +0.000 A 
ATOM     21  C   UNL     1      10.666  11.988  20.325  0.00  0.00    +0.000 A 
ATOM     22  C   UNL     1      10.770  12.959  19.325  0.00  0.00    +0.000 A 
ATOM     23  C   UNL     1      10.167  12.742  18.085  0.00  0.00    +0.000 A 
ATOM     24  C   UNL     1       9.445  11.567  17.857  0.00  0.00    +0.000 A 
BRANCH  22  25
ATOM     25  C   UNL     1      11.491  14.174  19.574  0.00  0.00    +0.000 C 
ATOM     26  N   UNL     1      12.080  15.154  19.766  0.00  0.00    +0.000 NA
ENDBRANCH  22  25
ENDBRANCH  18  19
ENDBRANCH   2  17
TORSDOF 4
ENDMDL
MODEL 4
REMARK VINA RESULT:      -7.9      1.448      1.630
REMARK  Name = 
REMARK  5 active torsions:
REMARK  status: ('A' for Active; 'I' for Inactive)
REMARK    1  A    between atoms: C_1  and  C_2
REMARK    2  A    between atoms: C_9  and  N_10
REMARK    3  A    between atoms: C_11  and  C_13
REMARK    4  A    between atoms: C_14  and  C_15
REMARK    5  A    between atoms: C_18  and  C_19
REMARK                            x       y       z     vdW  Elec       q    Type
REMARK                         _______ _______ _______ _____ _____    ______ ____
ROOT
ATOM      1  N   UNL     1       5.961   7.166  18.036  0.00  0.00    +0.000 N 
ATOM      2  C   UNL     1       7.271   7.101  17.595  0.00  0.00    +0.000 C 
ATOM      3  O   UNL     1       7.879   6.090  17.259  0.00  0.00    +0.000 OA
ATOM      4  H   UNL     1       5.582   8.069  18.278  0.00  0.00    +0.000 HD
ENDROOT
BRANCH   1  13
ATOM      5  C   UNL     1       1.993   1.822  17.452  0.00  0.00    +0.000 C 
ATOM      6  C   UNL     1       2.420   2.685  18.600  0.00  0.00    +0.000 A 
ATOM      7  C   UNL     1       1.968   2.449  19.843  0.00  0.00    +0.000 A 
ATOM      8  C   UNL     1       2.339   3.256  21.014  0.00  0.00    +0.000 A 
ATOM      9  O   UNL     1       1.899   2.990  22.126  0.00  0.00    +0.000 OA
ATOM     10  O   UNL     1       3.194   4.313  20.787  0.00  0.00    +0.000 OA
ATOM     11  C   UNL     1       3.685   4.586  19.496  0.00  0.00    +0.000 A 
ATOM     12  C   UNL     1       4.540   5.682  19.408  0.00  0.00    +0.000 A 
ATOM     13  C   UNL     1       5.092   6.054  18.184  0.00  0.00    +0.000 A 
ATOM     14  C   UNL     1       4.764   5.287  17.057  0.00  0.00    +0.000 A 
ATOM     15  C   UNL     1       3.896   4.180  17.160  0.00  0.00    +0.000 A 
ATOM     16  C   UNL     1       3.338   3.814  18.393  0.00  0.00    +0.000 A 
ENDBRANCH   1  13
BRANCH   2  17
ATOM     17  C   UNL     1       7.962   8.419  17.546  0.00  0.00    +0.000 C 
ATOM     18  C   UNL     1       8.483   8.883  18.698  0.00  0.00    +0.000 C 
BRANCH  18  19
ATOM     19  C   UNL     1       9.218  10.138  18.879  0.00  0.00    +0.000 A 
ATOM     20  C   UNL     1       9.539  10.649  20.140  0.00  0.00    +0.000 A 
ATOM     21  C   UNL     1      10.256  11.843  20.258  0.00  0.00    +0.000 A 
ATOM     22  C   UNL     1      10.670  12.534  19.114  0.00  0.00    +0.000 A 
ATOM     23  C   UNL     1      10.384  12.013  17.851  0.00  0.00    +0.000 A 
ATOM     24  C   UNL     1       9.668  10.819  17.735  0.00  0.00    +0.000 A 
BRANCH  22  25
ATOM     25  C   UNL     1      11.381  13.772  19.241  0.00  0.00    +0.000 C 
ATOM     26  N   UNL     1      11.955  14.776  19.332  0.00  0.00    +0.000 NA
ENDBRANCH  22  25
ENDBRANCH  18  19
ENDBRANCH   2  17
TORSDOF 4
ENDMDL
MODEL 5
REMARK VINA RESULT:      -7.9      1.314      1.477
REMARK  Name = 
REMARK  5 active torsions:
REMARK  status: ('A' for Active; 'I' for Inactive)
REMARK    1  A    between atoms: C_1  and  C_2
REMARK    2  A    between atoms: C_9  and  N_10
REMARK    3  A    between atoms: C_11  and  C_13
REMARK    4  A    between atoms: C_14  and  C_15
REMARK    5  A    between atoms: C_18  and  C_19
REMARK                            x       y       z     vdW  Elec       q    Type
REMARK                         _______ _______ _______ _____ _____    ______ ____
ROOT
ATOM      1  N   UNL     1       6.089   7.209  17.867  0.00  0.00    +0.000 N 
ATOM      2  C   UNL     1       7.461   7.174  18.046  0.00  0.00    +0.000 C 
ATOM      3  O   UNL     1       8.129   6.200  18.377  0.00  0.00    +0.000 OA
ATOM      4  H   UNL     1       5.665   8.081  17.589  0.00  0.00    +0.000 HD
ENDROOT
BRANCH   1  13
ATOM      5  C   UNL     1       2.117   1.853  17.455  0.00  0.00    +0.000 C 
ATOM      6  C   UNL     1       2.518   2.771  18.568  0.00  0.00    +0.000 A 
ATOM      7  C   UNL     1       2.034   2.599  19.810  0.00  0.00    +0.000 A 
ATOM      8  C   UNL     1       2.379   3.464  20.947  0.00  0.00    +0.000 A 
ATOM      9  O   UNL     1       1.911   3.255  22.060  0.00  0.00    +0.000 OA
ATOM     10  O   UNL     1       3.244   4.506  20.689  0.00  0.00    +0.000 OA
ATOM     11  C   UNL     1       3.767   4.712  19.399  0.00  0.00    +0.000 A 
ATOM     12  C   UNL     1       4.628   5.800  19.276  0.00  0.00    +0.000 A 
ATOM     13  C   UNL     1       5.213   6.107  18.050  0.00  0.00    +0.000 A 
ATOM     14  C   UNL     1       4.910   5.286  16.955  0.00  0.00    +0.000 A 
ATOM     15  C   UNL     1       4.036   4.188  17.092  0.00  0.00    +0.000 A 
ATOM     16  C   UNL     1       3.446   3.885  18.328  0.00  0.00    +0.000 A 
ENDBRANCH   1  13
BRANCH   2  17
ATOM     17  C   UNL     1       8.139   8.477  17.801  0.00  0.00    +0.000 C 
ATOM     18  C   UNL     1       8.649   9.115  18.871  0.00  0.00    +0.000 C 
BRANCH  18  19
ATOM     19  C   UNL     1       9.371  10.391  18.862  0.00  0.00    +0.000 A 
ATOM     20  C   UNL     1       9.605  11.116  17.690  0.00  0.00    +0.000 A 
ATOM     21  C   UNL     1      10.286  12.336  17.738  0.00  0.00    +0.000 A 
ATOM     22  C   UNL     1      10.729  12.850  18.960  0.00  0.00    +0.000 A 
ATOM     23  C   UNL     1      10.469  12.150  20.140  0.00  0.00    +0.000 A 
ATOM     24  C   UNL     1       9.789  10.930  20.090  0.00  0.00    +0.000 A 
BRANCH  22  25
ATOM     25  C   UNL     1      11.450  14.089  19.000  0.00  0.00    +0.000 C 
ATOM     26  N   UNL     1      12.039  15.087  19.042  0.00  0.00    +0.000 NA
ENDBRANCH  22  25
ENDBRANCH  18  19
ENDBRANCH   2  17
TORSDOF 4
ENDMDL
MODEL 6
REMARK VINA RESULT:      -7.6      1.149      1.511
REMARK  Name = 
REMARK  5 active torsions:
REMARK  status: ('A' for Active; 'I' for Inactive)
REMARK    1  A    between atoms: C_1  and  C_2
REMARK    2  A    between atoms: C_9  and  N_10
REMARK    3  A    between atoms: C_11  and  C_13
REMARK    4  A    between atoms: C_14  and  C_15
REMARK    5  A    between atoms: C_18  and  C_19
REMARK                            x       y       z     vdW  Elec       q    Type
REMARK                         _______ _______ _______ _____ _____    ______ ____
ROOT
ATOM      1  N   UNL     1       6.723   7.714  17.406  0.00  0.00    +0.000 N 
ATOM      2  C   UNL     1       7.921   8.105  17.978  0.00  0.00    +0.000 C 
ATOM      3  O   UNL     1       8.546   7.504  18.846  0.00  0.00    +0.000 OA
ATOM      4  H   UNL     1       6.316   8.305  16.696  0.00  0.00    +0.000 HD
ENDROOT
BRANCH   1  13
ATOM      5  C   UNL     1       4.469   1.758  19.423  0.00  0.00    +0.000 C 
ATOM      6  C   UNL     1       3.841   2.933  18.738  0.00  0.00    +0.000 A 
ATOM      7  C   UNL     1       2.546   2.912  18.383  0.00  0.00    +0.000 A 
ATOM      8  C   UNL     1       1.867   4.025  17.705  0.00  0.00    +0.000 A 
ATOM      9  O   UNL     1       0.680   3.951  17.410  0.00  0.00    +0.000 OA
ATOM     10  O   UNL     1       2.636   5.134  17.422  0.00  0.00    +0.000 OA
ATOM     11  C   UNL     1       3.995   5.187  17.781  0.00  0.00    +0.000 A 
ATOM     12  C   UNL     1       4.653   6.366  17.438  0.00  0.00    +0.000 A 
ATOM     13  C   UNL     1       6.002   6.539  17.741  0.00  0.00    +0.000 A 
ATOM     14  C   UNL     1       6.665   5.496  18.403  0.00  0.00    +0.000 A 
ATOM     15  C   UNL     1       5.987   4.307  18.745  0.00  0.00    +0.000 A 
ATOM     16  C   UNL     1       4.631   4.135  18.433  0.00  0.00    +0.000 A 
ENDBRANCH   1  13
BRANCH   2  17
ATOM     17  C   UNL     1       8.455   9.391  17.451  0.00  0.00    +0.000 C 
ATOM     18  C   UNL     1       8.955  10.262  18.348  0.00  0.00    +0.000 C 
BRANCH  18  19
ATOM     19  C   UNL     1       9.547  11.571  18.054  0.00  0.00    +0.000 A 
ATOM     20  C   UNL     1       8.821  12.763  18.137  0.00  0.00    +0.000 A 
ATOM     21  C   UNL     1       9.437  13.987  17.862  0.00  0.00    +0.000 A 
ATOM     22  C   UNL     1      10.790  14.034  17.512  0.00  0.00    +0.000 A 
ATOM     23  C   UNL     1      11.532  12.852  17.461  0.00  0.00    +0.000 A 
ATOM     24  C   UNL     1      10.915  11.629  17.737  0.00  0.00    +0.000 A 
BRANCH  22  25
ATOM     25  C   UNL     1      11.410  15.289  17.205  0.00  0.00    +0.000 C 
ATOM     26  N   UNL     1      11.915  16.306  16.967  0.00  0.00    +0.000 NA
ENDBRANCH  22  25
ENDBRANCH  18  19
ENDBRANCH   2  17
TORSDOF 4
ENDMDL
MODEL 7
REMARK VINA RESULT:      -7.6      7.204      9.871
REMARK  Name = 
REMARK  5 active torsions:
REMARK  status: ('A' for Active; 'I' for Inactive)
REMARK    1  A    between atoms: C_1  and  C_2
REMARK    2  A    between atoms: C_9  and  N_10
REMARK    3  A    between atoms: C_11  and  C_13
REMARK    4  A    between atoms: C_14  and  C_15
REMARK    5  A    between atoms: C_18  and  C_19
REMARK                            x       y       z     vdW  Elec       q    Type
REMARK                         _______ _______ _______ _____ _____    ______ ____
ROOT
ATOM      1  N   UNL     1       0.636   8.854  20.532  0.00  0.00    +0.000 N 
ATOM      2  C   UNL     1       0.855   9.393  21.788  0.00  0.00    +0.000 C 
ATOM      3  O   UNL     1       1.904   9.359  22.423  0.00  0.00    +0.000 OA
ATOM      4  H   UNL     1      -0.280   8.956  20.120  0.00  0.00    +0.000 HD
ENDROOT
BRANCH   1  13
ATOM      5  C   UNL     1       5.007   6.510  16.056  0.00  0.00    +0.000 C 
ATOM      6  C   UNL     1       4.512   6.025  17.383  0.00  0.00    +0.000 A 
ATOM      7  C   UNL     1       4.954   4.867  17.902  0.00  0.00    +0.000 A 
ATOM      8  C   UNL     1       4.509   4.328  19.194  0.00  0.00    +0.000 A 
ATOM      9  O   UNL     1       4.952   3.268  19.620  0.00  0.00    +0.000 OA
ATOM     10  O   UNL     1       3.575   5.073  19.883  0.00  0.00    +0.000 OA
ATOM     11  C   UNL     1       3.092   6.289  19.367  0.00  0.00    +0.000 A 
ATOM     12  C   UNL     1       2.154   6.940  20.165  0.00  0.00    +0.000 A 
ATOM     13  C   UNL     1       1.601   8.154  19.763  0.00  0.00    +0.000 A 
ATOM     14  C   UNL     1       2.025   8.695  18.541  0.00  0.00    +0.000 A 
ATOM     15  C   UNL     1       2.975   8.026  17.742  0.00  0.00    +0.000 A 
ATOM     16  C   UNL     1       3.525   6.800  18.148  0.00  0.00    +0.000 A 
ENDBRANCH   1  13
BRANCH   2  17
ATOM     17  C   UNL     1      -0.336  10.064  22.377  0.00  0.00    +0.000 C 
ATOM     18  C   UNL     1      -0.785  11.173  21.760  0.00  0.00    +0.000 C 
BRANCH  18  19
ATOM     19  C   UNL     1      -1.946  11.978  22.151  0.00  0.00    +0.000 A 
ATOM     20  C   UNL     1      -2.597  12.842  21.265  0.00  0.00    +0.000 A 
ATOM     21  C   UNL     1      -3.710  13.578  21.684  0.00  0.00    +0.000 A 
ATOM     22  C   UNL     1      -4.192  13.447  22.990  0.00  0.00    +0.000 A 
ATOM     23  C   UNL     1      -3.569  12.560  23.871  0.00  0.00    +0.000 A 
ATOM     24  C   UNL     1      -2.457  11.826  23.451  0.00  0.00    +0.000 A 
BRANCH  22  25
ATOM     25  C   UNL     1      -5.317  14.223  23.422  0.00  0.00    +0.000 C 
ATOM     26  N   UNL     1      -6.233  14.848  23.762  0.00  0.00    +0.000 NA
ENDBRANCH  22  25
ENDBRANCH  18  19
ENDBRANCH   2  17
TORSDOF 4
ENDMDL
MODEL 8
REMARK VINA RESULT:      -7.5      7.119      9.792
REMARK  Name = 
REMARK  5 active torsions:
REMARK  status: ('A' for Active; 'I' for Inactive)
REMARK    1  A    between atoms: C_1  and  C_2
REMARK    2  A    between atoms: C_9  and  N_10
REMARK    3  A    between atoms: C_11  and  C_13
REMARK    4  A    between atoms: C_14  and  C_15
REMARK    5  A    between atoms: C_18  and  C_19
REMARK                            x       y       z     vdW  Elec       q    Type
REMARK                         _______ _______ _______ _____ _____    ______ ____
ROOT
ATOM      1  N   UNL     1      -0.295   9.833  17.716  0.00  0.00    +0.000 N 
ATOM      2  C   UNL     1       0.605   9.461  18.699  0.00  0.00    +0.000 C 
ATOM      3  O   UNL     1       0.448   9.569  19.911  0.00  0.00    +0.000 OA
ATOM      4  H   UNL     1      -0.039   9.684  16.751  0.00  0.00    +0.000 HD
ENDROOT
BRANCH   1  13
ATOM      5  C   UNL     1      -6.648  11.899  17.799  0.00  0.00    +0.000 C 
ATOM      6  C   UNL     1      -5.436  12.219  18.619  0.00  0.00    +0.000 A 
ATOM      7  C   UNL     1      -5.499  13.113  19.619  0.00  0.00    +0.000 A 
ATOM      8  C   UNL     1      -4.350  13.479  20.460  0.00  0.00    +0.000 A 
ATOM      9  O   UNL     1      -4.468  14.299  21.363  0.00  0.00    +0.000 OA
ATOM     10  O   UNL     1      -3.154  12.858  20.173  0.00  0.00    +0.000 OA
ATOM     11  C   UNL     1      -3.056  11.917  19.132  0.00  0.00    +0.000 A 
ATOM     12  C   UNL     1      -1.790  11.364  18.949  0.00  0.00    +0.000 A 
ATOM     13  C   UNL     1      -1.566  10.419  17.950  0.00  0.00    +0.000 A 
ATOM     14  C   UNL     1      -2.651  10.043  17.148  0.00  0.00    +0.000 A 
ATOM     15  C   UNL     1      -3.928  10.611  17.342  0.00  0.00    +0.000 A 
ATOM     16  C   UNL     1      -4.148  11.566  18.345  0.00  0.00    +0.000 A 
ENDBRANCH   1  13
BRANCH   2  17
ATOM     17  C   UNL     1       1.872   8.880  18.175  0.00  0.00    +0.000 C 
ATOM     18  C   UNL     1       2.271   7.704  18.696  0.00  0.00    +0.000 C 
BRANCH  18  19
ATOM     19  C   UNL     1       3.467   6.946  18.318  0.00  0.00    +0.000 A 
ATOM     20  C   UNL     1       3.919   5.840  19.045  0.00  0.00    +0.000 A 
ATOM     21  C   UNL     1       5.057   5.140  18.634  0.00  0.00    +0.000 A 
ATOM     22  C   UNL     1       5.750   5.532  17.484  0.00  0.00    +0.000 A 
ATOM     23  C   UNL     1       5.285   6.613  16.732  0.00  0.00    +0.000 A 
ATOM     24  C   UNL     1       4.147   7.311  17.145  0.00  0.00    +0.000 A 
BRANCH  22  25
ATOM     25  C   UNL     1       6.932   4.828  17.081  0.00  0.00    +0.000 C 
ATOM     26  N   UNL     1       7.894   4.263  16.766  0.00  0.00    +0.000 NA
ENDBRANCH  22  25
ENDBRANCH  18  19
ENDBRANCH   2  17
TORSDOF 4
ENDMDL
MODEL 9
REMARK VINA RESULT:      -7.4      6.728      8.827
REMARK  Name = 
REMARK  5 active torsions:
REMARK  status: ('A' for Active; 'I' for Inactive)
REMARK    1  A    between atoms: C_1  and  C_2
REMARK    2  A    between atoms: C_9  and  N_10
REMARK    3  A    between atoms: C_11  and  C_13
REMARK    4  A    between atoms: C_14  and  C_15
REMARK    5  A    between atoms: C_18  and  C_19
REMARK                            x       y       z     vdW  Elec       q    Type
REMARK                         _______ _______ _______ _____ _____    ______ ____
ROOT
ATOM      1  N   UNL     1       1.556   7.725  20.980  0.00  0.00    +0.000 N 
ATOM      2  C   UNL     1       1.069   8.926  20.493  0.00  0.00    +0.000 C 
ATOM      3  O   UNL     1       0.994   9.259  19.315  0.00  0.00    +0.000 OA
ATOM      4  H   UNL     1       1.558   7.579  21.978  0.00  0.00    +0.000 HD
ENDROOT
BRANCH   1  13
ATOM      5  C   UNL     1       3.329   1.983  18.062  0.00  0.00    +0.000 C 
ATOM      6  C   UNL     1       3.638   3.425  17.800  0.00  0.00    +0.000 A 
ATOM      7  C   UNL     1       4.450   3.783  16.791  0.00  0.00    +0.000 A 
ATOM      8  C   UNL     1       4.801   5.176  16.480  0.00  0.00    +0.000 A 
ATOM      9  O   UNL     1       5.543   5.443  15.543  0.00  0.00    +0.000 OA
ATOM     10  O   UNL     1       4.256   6.145  17.296  0.00  0.00    +0.000 OA
ATOM     11  C   UNL     1       3.402   5.802  18.361  0.00  0.00    +0.000 A 
ATOM     12  C   UNL     1       2.922   6.877  19.104  0.00  0.00    +0.000 A 
ATOM     13  C   UNL     1       2.067   6.667  20.184  0.00  0.00    +0.000 A 
ATOM     14  C   UNL     1       1.706   5.348  20.488  0.00  0.00    +0.000 A 
ATOM     15  C   UNL     1       2.200   4.267  19.728  0.00  0.00    +0.000 A 
ATOM     16  C   UNL     1       3.065   4.483  18.645  0.00  0.00    +0.000 A 
ENDBRANCH   1  13
BRANCH   2  17
ATOM     17  C   UNL     1       0.607   9.868  21.550  0.00  0.00    +0.000 C 
ATOM     18  C   UNL     1      -0.153  10.907  21.157  0.00  0.00    +0.000 C 
BRANCH  18  19
ATOM     19  C   UNL     1      -0.731  11.940  22.022  0.00  0.00    +0.000 A 
ATOM     20  C   UNL     1      -0.224  13.241  22.086  0.00  0.00    +0.000 A 
ATOM     21  C   UNL     1      -0.821  14.194  22.916  0.00  0.00    +0.000 A 
ATOM     22  C   UNL     1      -1.941  13.858  23.684  0.00  0.00    +0.000 A 
ATOM     23  C   UNL     1      -2.476  12.572  23.599  0.00  0.00    +0.000 A 
ATOM     24  C   UNL     1      -1.878  11.621  22.769  0.00  0.00    +0.000 A 
BRANCH  22  25
ATOM     25  C   UNL     1      -2.534  14.832  24.554  0.00  0.00    +0.000 C 
ATOM     26  N   UNL     1      -3.008  15.627  25.251  0.00  0.00    +0.000 NA
ENDBRANCH  22  25
ENDBRANCH  18  19
ENDBRANCH   2  17
TORSDOF 4
ENDMDL
