MODEL 1
REMARK VINA RESULT:      -8.2      0.000      0.000
REMARK  Name = 
REMARK  4 active torsions:
REMARK  status: ('A' for Active; 'I' for Inactive)
REMARK    1  A    between atoms: N_4  and  S_5
REMARK    2  A    between atoms: S_5  and  C_8
REMARK    3  A    between atoms: C_8  and  C_9
REMARK    4  A    between atoms: C_9  and  C_10
REMARK                            x       y       z     vdW  Elec       q    Type
REMARK                         _______ _______ _______ _____ _____    ______ ____
ROOT
ATOM      1  O   UNL     1       6.262   4.974  19.814  0.00  0.00    +0.000 OA
ATOM      2  C   UNL     1       5.911   5.328  18.684  0.00  0.00    +0.000 C 
ATOM      3  C   UNL     1       6.887   6.130  17.818  0.00  0.00    +0.000 C 
ATOM      4  N   UNL     1       6.549   6.273  16.371  0.00  0.00    +0.000 NA
ATOM      5  C   UNL     1       5.098   6.567  16.223  0.00  0.00    +0.000 C 
ATOM      6  C   UNL     1       4.293   5.389  16.775  0.00  0.00    +0.000 C 
ATOM      7  N   UNL     1       4.626   5.133  18.174  0.00  0.00    +0.000 N 
ATOM      8  C   UNL     1       3.707   4.325  18.884  0.00  0.00    +0.000 A 
ATOM      9  C   UNL     1       3.350   4.677  20.181  0.00  0.00    +0.000 A 
ATOM     10  C   UNL     1       2.397   3.913  20.849  0.00  0.00    +0.000 A 
ATOM     11  C   UNL     1       1.874   2.787  20.227  0.00  0.00    +0.000 A 
ATOM     12  C   UNL     1       2.286   2.506  18.937  0.00  0.00    +0.000 A 
ATOM     13  N   UNL     1       3.143   3.280  18.235  0.00  0.00    +0.000 NA
ENDROOT
BRANCH   4  14
ATOM     14  S   UNL     1       7.149   5.060  15.340  0.00  0.00    +0.000 S 
ATOM     15  O   UNL     1       8.047   5.663  14.378  0.00  0.00    +0.000 OA
ATOM     16  O   UNL     1       7.548   3.927  16.143  0.00  0.00    +0.000 OA
BRANCH  14  17
ATOM     17  C   UNL     1       5.668   4.554  14.473  0.00  0.00    +0.000 C 
BRANCH  17  18
ATOM     18  C   UNL     1       5.937   3.226  13.772  0.00  0.00    +0.000 C 
BRANCH  18  19
ATOM     19  C   UNL     1       5.804   3.315  12.273  0.00  0.00    +0.000 C 
ATOM     20  F   UNL     1       4.579   3.728  11.888  0.00  0.00    +0.000 F 
ATOM     21  F   UNL     1       6.708   4.181  11.765  0.00  0.00    +0.000 F 
ATOM     22  F   UNL     1       6.029   2.112  11.702  0.00  0.00    +0.000 F 
ENDBRANCH  18  19
ENDBRANCH  17  18
ENDBRANCH  14  17
ENDBRANCH   4  14
TORSDOF 4
ENDMDL
MODEL 2
REMARK VINA RESULT:      -7.9      1.870      2.597
REMARK  Name = 
REMARK  4 active torsions:
REMARK  status: ('A' for Active; 'I' for Inactive)
REMARK    1  A    between atoms: N_4  and  S_5
REMARK    2  A    between atoms: S_5  and  C_8
REMARK    3  A    between atoms: C_8  and  C_9
REMARK    4  A    between atoms: C_9  and  C_10
REMARK                            x       y       z     vdW  Elec       q    Type
REMARK                         _______ _______ _______ _____ _____    ______ ____
ROOT
ATOM      1  O   UNL     1       2.864   3.444  17.266  0.00  0.00    +0.000 OA
ATOM      2  C   UNL     1       3.986   3.913  17.482  0.00  0.00    +0.000 C 
ATOM      3  C   UNL     1       5.168   3.439  16.632  0.00  0.00    +0.000 C 
ATOM      4  N   UNL     1       6.426   4.238  16.715  0.00  0.00    +0.000 NA
ATOM      5  C   UNL     1       6.699   4.594  18.134  0.00  0.00    +0.000 C 
ATOM      6  C   UNL     1       5.557   5.468  18.657  0.00  0.00    +0.000 C 
ATOM      7  N   UNL     1       4.272   4.783  18.536  0.00  0.00    +0.000 N 
ATOM      8  C   UNL     1       3.214   5.327  19.301  0.00  0.00    +0.000 A 
ATOM      9  C   UNL     1       2.356   4.471  19.984  0.00  0.00    +0.000 A 
ATOM     10  C   UNL     1       1.358   5.017  20.786  0.00  0.00    +0.000 A 
ATOM     11  C   UNL     1       1.206   6.396  20.836  0.00  0.00    +0.000 A 
ATOM     12  C   UNL     1       2.100   7.175  20.123  0.00  0.00    +0.000 A 
ATOM     13  N   UNL     1       3.131   6.673  19.407  0.00  0.00    +0.000 NA
ENDROOT
BRANCH   4  14
ATOM     14  S   UNL     1       6.571   5.521  15.608  0.00  0.00    +0.000 S 
ATOM     15  O   UNL     1       5.250   6.016  15.287  0.00  0.00    +0.000 OA
ATOM     16  O   UNL     1       7.621   6.404  16.060  0.00  0.00    +0.000 OA
BRANCH  14  17
ATOM     17  C   UNL     1       7.216   4.685  14.164  0.00  0.00    +0.000 C 
BRANCH  17  18
ATOM     18  C   UNL     1       6.131   3.777  13.595  0.00  0.00    +0.000 C 
BRANCH  18  19
ATOM     19  C   UNL     1       6.290   3.526  12.118  0.00  0.00    +0.000 C 
ATOM     20  F   UNL     1       6.683   2.264  11.849  0.00  0.00    +0.000 F 
ATOM     21  F   UNL     1       5.124   3.741  11.470  0.00  0.00    +0.000 F 
ATOM     22  F   UNL     1       7.208   4.363  11.588  0.00  0.00    +0.000 F 
ENDBRANCH  18  19
ENDBRANCH  17  18
ENDBRANCH  14  17
ENDBRANCH   4  14
TORSDOF 4
ENDMDL
MODEL 3
REMARK VINA RESULT:      -7.8      4.039      5.099
REMARK  Name = 
REMARK  4 active torsions:
REMARK  status: ('A' for Active; 'I' for Inactive)
REMARK    1  A    between atoms: N_4  and  S_5
REMARK    2  A    between atoms: S_5  and  C_8
REMARK    3  A    between atoms: C_8  and  C_9
REMARK    4  A    between atoms: C_9  and  C_10
REMARK                            x       y       z     vdW  Elec       q    Type
REMARK                         _______ _______ _______ _____ _____    ______ ____
ROOT
ATOM      1  O   UNL     1       2.667   6.877  19.250  0.00  0.00    +0.000 OA
ATOM      2  C   UNL     1       3.404   6.242  18.489  0.00  0.00    +0.000 C 
ATOM      3  C   UNL     1       4.195   6.996  17.416  0.00  0.00    +0.000 C 
ATOM      4  N   UNL     1       5.287   6.246  16.728  0.00  0.00    +0.000 NA
ATOM      5  C   UNL     1       4.821   4.872  16.399  0.00  0.00    +0.000 C 
ATOM      6  C   UNL     1       4.496   4.133  17.698  0.00  0.00    +0.000 C 
ATOM      7  N   UNL     1       3.484   4.848  18.473  0.00  0.00    +0.000 N 
ATOM      8  C   UNL     1       2.850   4.099  19.491  0.00  0.00    +0.000 A 
ATOM      9  C   UNL     1       1.475   4.211  19.664  0.00  0.00    +0.000 A 
ATOM     10  C   UNL     1       0.850   3.422  20.626  0.00  0.00    +0.000 A 
ATOM     11  C   UNL     1       1.621   2.591  21.427  0.00  0.00    +0.000 A 
ATOM     12  C   UNL     1       2.984   2.541  21.190  0.00  0.00    +0.000 A 
ATOM     13  N   UNL     1       3.602   3.231  20.207  0.00  0.00    +0.000 NA
ENDROOT
BRANCH   4  14
ATOM     14  S   UNL     1       6.825   6.333  17.452  0.00  0.00    +0.000 S 
ATOM     15  O   UNL     1       6.708   5.964  18.847  0.00  0.00    +0.000 OA
ATOM     16  O   UNL     1       7.783   5.698  16.577  0.00  0.00    +0.000 OA
BRANCH  14  17
ATOM     17  C   UNL     1       7.167   8.087  17.370  0.00  0.00    +0.000 C 
BRANCH  17  18
ATOM     18  C   UNL     1       8.399   8.389  18.217  0.00  0.00    +0.000 C 
BRANCH  18  19
ATOM     19  C   UNL     1       8.702   9.862  18.309  0.00  0.00    +0.000 C 
ATOM     20  F   UNL     1       9.858  10.189  17.697  0.00  0.00    +0.000 F 
ATOM     21  F   UNL     1       7.715  10.588  17.741  0.00  0.00    +0.000 F 
ATOM     22  F   UNL     1       8.799  10.249  19.600  0.00  0.00    +0.000 F 
ENDBRANCH  18  19
ENDBRANCH  17  18
ENDBRANCH  14  17
ENDBRANCH   4  14
TORSDOF 4
ENDMDL
MODEL 4
REMARK VINA RESULT:      -7.7      4.336      6.784
REMARK  Name = 
REMARK  4 active torsions:
REMARK  status: ('A' for Active; 'I' for Inactive)
REMARK    1  A    between atoms: N_4  and  S_5
REMARK    2  A    between atoms: S_5  and  C_8
REMARK    3  A    between atoms: C_8  and  C_9
REMARK    4  A    between atoms: C_9  and  C_10
REMARK                            x       y       z     vdW  Elec       q    Type
REMARK                         _______ _______ _______ _____ _____    ______ ____
ROOT
ATOM      1  O   UNL     1       6.001   7.015  16.061  0.00  0.00    +0.000 OA
ATOM      2  C   UNL     1       5.533   6.055  16.681  0.00  0.00    +0.000 C 
ATOM      3  C   UNL     1       5.044   6.264  18.118  0.00  0.00    +0.000 C 
ATOM      4  N   UNL     1       4.218   5.174  18.717  0.00  0.00    +0.000 NA
ATOM      5  C   UNL     1       4.812   3.852  18.378  0.00  0.00    +0.000 C 
ATOM      6  C   UNL     1       4.790   3.671  16.860  0.00  0.00    +0.000 C 
ATOM      7  N   UNL     1       5.515   4.748  16.190  0.00  0.00    +0.000 N 
ATOM      8  C   UNL     1       5.869   4.503  14.843  0.00  0.00    +0.000 A 
ATOM      9  C   UNL     1       7.136   4.862  14.394  0.00  0.00    +0.000 A 
ATOM     10  C   UNL     1       7.497   4.558  13.084  0.00  0.00    +0.000 A 
ATOM     11  C   UNL     1       6.566   3.962  12.244  0.00  0.00    +0.000 A 
ATOM     12  C   UNL     1       5.328   3.641  12.770  0.00  0.00    +0.000 A 
ATOM     13  N   UNL     1       4.982   3.846  14.060  0.00  0.00    +0.000 NA
ENDROOT
BRANCH   4  14
ATOM     14  S   UNL     1       2.538   5.293  18.479  0.00  0.00    +0.000 S 
ATOM     15  O   UNL     1       2.232   6.597  17.932  0.00  0.00    +0.000 OA
ATOM     16  O   UNL     1       2.074   4.078  17.849  0.00  0.00    +0.000 OA
BRANCH  14  17
ATOM     17  C   UNL     1       1.928   5.241  20.160  0.00  0.00    +0.000 C 
BRANCH  17  18
ATOM     18  C   UNL     1       0.978   4.056  20.304  0.00  0.00    +0.000 C 
BRANCH  18  19
ATOM     19  C   UNL     1       1.624   2.861  20.957  0.00  0.00    +0.000 C 
ATOM     20  F   UNL     1       0.986   2.481  22.082  0.00  0.00    +0.000 F 
ATOM     21  F   UNL     1       1.636   1.805  20.114  0.00  0.00    +0.000 F 
ATOM     22  F   UNL     1       2.906   3.132  21.285  0.00  0.00    +0.000 F 
ENDBRANCH  18  19
ENDBRANCH  17  18
ENDBRANCH  14  17
ENDBRANCH   4  14
TORSDOF 4
ENDMDL
MODEL 5
REMARK VINA RESULT:      -7.6      1.425      1.552
REMARK  Name = 
REMARK  4 active torsions:
REMARK  status: ('A' for Active; 'I' for Inactive)
REMARK    1  A    between atoms: N_4  and  S_5
REMARK    2  A    between atoms: S_5  and  C_8
REMARK    3  A    between atoms: C_8  and  C_9
REMARK    4  A    between atoms: C_9  and  C_10
REMARK                            x       y       z     vdW  Elec       q    Type
REMARK                         _______ _______ _______ _____ _____    ______ ____
ROOT
ATOM      1  O   UNL     1       5.488   3.593  19.685  0.00  0.00    +0.000 OA
ATOM      2  C   UNL     1       5.178   4.596  19.035  0.00  0.00    +0.000 C 
ATOM      3  C   UNL     1       6.279   5.559  18.583  0.00  0.00    +0.000 C 
ATOM      4  N   UNL     1       5.908   6.578  17.556  0.00  0.00    +0.000 NA
ATOM      5  C   UNL     1       4.579   7.159  17.886  0.00  0.00    +0.000 C 
ATOM      6  C   UNL     1       3.526   6.051  17.842  0.00  0.00    +0.000 C 
ATOM      7  N   UNL     1       3.860   4.971  18.768  0.00  0.00    +0.000 N 
ATOM      8  C   UNL     1       2.804   4.083  19.079  0.00  0.00    +0.000 A 
ATOM      9  C   UNL     1       2.625   3.669  20.395  0.00  0.00    +0.000 A 
ATOM     10  C   UNL     1       1.545   2.847  20.702  0.00  0.00    +0.000 A 
ATOM     11  C   UNL     1       0.711   2.412  19.681  0.00  0.00    +0.000 A 
ATOM     12  C   UNL     1       0.961   2.869  18.399  0.00  0.00    +0.000 A 
ATOM     13  N   UNL     1       1.950   3.736  18.088  0.00  0.00    +0.000 NA
ENDROOT
BRANCH   4  14
ATOM     14  S   UNL     1       6.110   6.111  15.933  0.00  0.00    +0.000 S 
ATOM     15  O   UNL     1       5.205   6.882  15.107  0.00  0.00    +0.000 OA
ATOM     16  O   UNL     1       7.524   6.041  15.645  0.00  0.00    +0.000 OA
BRANCH  14  17
ATOM     17  C   UNL     1       5.527   4.420  15.965  0.00  0.00    +0.000 C 
BRANCH  17  18
ATOM     18  C   UNL     1       6.387   3.584  15.022  0.00  0.00    +0.000 C 
BRANCH  18  19
ATOM     19  C   UNL     1       6.039   3.790  13.571  0.00  0.00    +0.000 C 
ATOM     20  F   UNL     1       4.780   4.245  13.403  0.00  0.00    +0.000 F 
ATOM     21  F   UNL     1       6.878   4.681  13.001  0.00  0.00    +0.000 F 
ATOM     22  F   UNL     1       6.150   2.632  12.885  0.00  0.00    +0.000 F 
ENDBRANCH  18  19
ENDBRANCH  17  18
ENDBRANCH  14  17
ENDBRANCH   4  14
TORSDOF 4
ENDMDL
MODEL 6
REMARK VINA RESULT:      -7.6      4.275      6.897
REMARK  Name = 
REMARK  4 active torsions:
REMARK  status: ('A' for Active; 'I' for Inactive)
REMARK    1  A    between atoms: N_4  and  S_5
REMARK    2  A    between atoms: S_5  and  C_8
REMARK    3  A    between atoms: C_8  and  C_9
REMARK    4  A    between atoms: C_9  and  C_10
REMARK                            x       y       z     vdW  Elec       q    Type
REMARK                         _______ _______ _______ _____ _____    ______ ____
ROOT
ATOM      1  O   UNL     1       5.233   7.139  15.123  0.00  0.00    +0.000 OA
ATOM      2  C   UNL     1       5.347   6.251  15.974  0.00  0.00    +0.000 C 
ATOM      3  C   UNL     1       4.881   6.529  17.406  0.00  0.00    +0.000 C 
ATOM      4  N   UNL     1       4.753   5.352  18.316  0.00  0.00    +0.000 NA
ATOM      5  C   UNL     1       5.923   4.451  18.137  0.00  0.00    +0.000 C 
ATOM      6  C   UNL     1       5.933   3.928  16.700  0.00  0.00    +0.000 C 
ATOM      7  N   UNL     1       5.978   5.028  15.739  0.00  0.00    +0.000 N 
ATOM      8  C   UNL     1       6.349   4.675  14.421  0.00  0.00    +0.000 A 
ATOM      9  C   UNL     1       7.236   5.487  13.721  0.00  0.00    +0.000 A 
ATOM     10  C   UNL     1       7.646   5.098  12.449  0.00  0.00    +0.000 A 
ATOM     11  C   UNL     1       7.115   3.944  11.889  0.00  0.00    +0.000 A 
ATOM     12  C   UNL     1       6.237   3.195  12.652  0.00  0.00    +0.000 A 
ATOM     13  N   UNL     1       5.890   3.505  13.920  0.00  0.00    +0.000 NA
ENDROOT
BRANCH   4  14
ATOM     14  S   UNL     1       3.239   4.576  18.327  0.00  0.00    +0.000 S 
ATOM     15  O   UNL     1       2.238   5.507  18.802  0.00  0.00    +0.000 OA
ATOM     16  O   UNL     1       3.078   3.861  17.082  0.00  0.00    +0.000 OA
BRANCH  14  17
ATOM     17  C   UNL     1       3.478   3.329  19.587  0.00  0.00    +0.000 C 
BRANCH  17  18
ATOM     18  C   UNL     1       2.639   3.695  20.808  0.00  0.00    +0.000 C 
BRANCH  18  19
ATOM     19  C   UNL     1       1.333   2.947  20.869  0.00  0.00    +0.000 C 
ATOM     20  F   UNL     1       1.029   2.543  22.119  0.00  0.00    +0.000 F 
ATOM     21  F   UNL     1       0.318   3.722  20.429  0.00  0.00    +0.000 F 
ATOM     22  F   UNL     1       1.375   1.849  20.083  0.00  0.00    +0.000 F 
ENDBRANCH  18  19
ENDBRANCH  17  18
ENDBRANCH  14  17
ENDBRANCH   4  14
TORSDOF 4
ENDMDL
MODEL 7
REMARK VINA RESULT:      -7.5      4.263      5.319
REMARK  Name = 
REMARK  4 active torsions:
REMARK  status: ('A' for Active; 'I' for Inactive)
REMARK    1  A    between atoms: N_4  and  S_5
REMARK    2  A    between atoms: S_5  and  C_8
REMARK    3  A    between atoms: C_8  and  C_9
REMARK    4  A    between atoms: C_9  and  C_10
REMARK                            x       y       z     vdW  Elec       q    Type
REMARK                         _______ _______ _______ _____ _____    ______ ____
ROOT
ATOM      1  O   UNL     1       2.587   6.616  18.640  0.00  0.00    +0.000 OA
ATOM      2  C   UNL     1       3.441   6.308  17.803  0.00  0.00    +0.000 C 
ATOM      3  C   UNL     1       4.243   7.416  17.114  0.00  0.00    +0.000 C 
ATOM      4  N   UNL     1       5.456   6.999  16.349  0.00  0.00    +0.000 NA
ATOM      5  C   UNL     1       5.151   5.777  15.556  0.00  0.00    +0.000 C 
ATOM      6  C   UNL     1       4.792   4.640  16.513  0.00  0.00    +0.000 C 
ATOM      7  N   UNL     1       3.656   5.001  17.358  0.00  0.00    +0.000 N 
ATOM      8  C   UNL     1       3.013   3.926  18.015  0.00  0.00    +0.000 A 
ATOM      9  C   UNL     1       1.624   3.888  18.063  0.00  0.00    +0.000 A 
ATOM     10  C   UNL     1       0.999   2.793  18.654  0.00  0.00    +0.000 A 
ATOM     11  C   UNL     1       1.777   1.799  19.232  0.00  0.00    +0.000 A 
ATOM     12  C   UNL     1       3.153   1.915  19.142  0.00  0.00    +0.000 A 
ATOM     13  N   UNL     1       3.783   2.923  18.498  0.00  0.00    +0.000 NA
ENDROOT
BRANCH   4  14
ATOM     14  S   UNL     1       6.912   6.946  17.226  0.00  0.00    +0.000 S 
ATOM     15  O   UNL     1       6.672   6.293  18.495  0.00  0.00    +0.000 OA
ATOM     16  O   UNL     1       7.969   6.515  16.340  0.00  0.00    +0.000 OA
BRANCH  14  17
ATOM     17  C   UNL     1       7.209   8.681  17.544  0.00  0.00    +0.000 C 
BRANCH  17  18
ATOM     18  C   UNL     1       8.550   8.830  18.255  0.00  0.00    +0.000 C 
BRANCH  18  19
ATOM     19  C   UNL     1       8.978  10.266  18.409  0.00  0.00    +0.000 C 
ATOM     20  F   UNL     1      10.178  10.510  17.843  0.00  0.00    +0.000 F 
ATOM     21  F   UNL     1       8.078  11.096  17.837  0.00  0.00    +0.000 F 
ATOM     22  F   UNL     1       9.066  10.601  19.715  0.00  0.00    +0.000 F 
ENDBRANCH  18  19
ENDBRANCH  17  18
ENDBRANCH  14  17
ENDBRANCH   4  14
TORSDOF 4
ENDMDL
MODEL 8
REMARK VINA RESULT:      -7.5      3.461      4.483
REMARK  Name = 
REMARK  4 active torsions:
REMARK  status: ('A' for Active; 'I' for Inactive)
REMARK    1  A    between atoms: N_4  and  S_5
REMARK    2  A    between atoms: S_5  and  C_8
REMARK    3  A    between atoms: C_8  and  C_9
REMARK    4  A    between atoms: C_9  and  C_10
REMARK                            x       y       z     vdW  Elec       q    Type
REMARK                         _______ _______ _______ _____ _____    ______ ____
ROOT
ATOM      1  O   UNL     1       2.990   6.665  18.777  0.00  0.00    +0.000 OA
ATOM      2  C   UNL     1       3.587   5.876  18.038  0.00  0.00    +0.000 C 
ATOM      3  C   UNL     1       4.353   6.422  16.829  0.00  0.00    +0.000 C 
ATOM      4  N   UNL     1       5.297   5.488  16.148  0.00  0.00    +0.000 NA
ATOM      5  C   UNL     1       4.665   4.147  16.013  0.00  0.00    +0.000 C 
ATOM      6  C   UNL     1       4.383   3.587  17.408  0.00  0.00    +0.000 C 
ATOM      7  N   UNL     1       3.522   4.488  18.173  0.00  0.00    +0.000 N 
ATOM      8  C   UNL     1       2.908   3.924  19.315  0.00  0.00    +0.000 A 
ATOM      9  C   UNL     1       1.572   4.206  19.580  0.00  0.00    +0.000 A 
ATOM     10  C   UNL     1       0.957   3.596  20.670  0.00  0.00    +0.000 A 
ATOM     11  C   UNL     1       1.707   2.771  21.497  0.00  0.00    +0.000 A 
ATOM     12  C   UNL     1       3.031   2.545  21.163  0.00  0.00    +0.000 A 
ATOM     13  N   UNL     1       3.627   3.056  20.064  0.00  0.00    +0.000 NA
ENDROOT
BRANCH   4  14
ATOM     14  S   UNL     1       6.894   5.477  16.737  0.00  0.00    +0.000 S 
ATOM     15  O   UNL     1       7.208   4.148  17.217  0.00  0.00    +0.000 OA
ATOM     16  O   UNL     1       7.741   6.159  15.786  0.00  0.00    +0.000 OA
BRANCH  14  17
ATOM     17  C   UNL     1       6.767   6.562  18.153  0.00  0.00    +0.000 C 
BRANCH  17  18
ATOM     18  C   UNL     1       8.134   7.182  18.423  0.00  0.00    +0.000 C 
BRANCH  18  19
ATOM     19  C   UNL     1       8.199   8.643  18.058  0.00  0.00    +0.000 C 
ATOM     20  F   UNL     1       6.977   9.183  17.873  0.00  0.00    +0.000 F 
ATOM     21  F   UNL     1       8.819   9.350  19.028  0.00  0.00    +0.000 F 
ATOM     22  F   UNL     1       8.901   8.819  16.917  0.00  0.00    +0.000 F 
ENDBRANCH  18  19
ENDBRANCH  17  18
ENDBRANCH  14  17
ENDBRANCH   4  14
TORSDOF 4
ENDMDL
MODEL 9
REMARK VINA RESULT:      -7.4      3.628      4.681
REMARK  Name = 
REMARK  4 active torsions:
REMARK  status: ('A' for Active; 'I' for Inactive)
REMARK    1  A    between atoms: N_4  and  S_5
REMARK    2  A    between atoms: S_5  and  C_8
REMARK    3  A    between atoms: C_8  and  C_9
REMARK    4  A    between atoms: C_9  and  C_10
REMARK                            x       y       z     vdW  Elec       q    Type
REMARK                         _______ _______ _______ _____ _____    ______ ____
ROOT
ATOM      1  O   UNL     1       1.066   5.226  20.638  0.00  0.00    +0.000 OA
ATOM      2  C   UNL     1       2.180   5.151  20.112  0.00  0.00    +0.000 C 
ATOM      3  C   UNL     1       2.947   3.827  20.178  0.00  0.00    +0.000 C 
ATOM      4  N   UNL     1       4.134   3.687  19.283  0.00  0.00    +0.000 NA
ATOM      5  C   UNL     1       4.930   4.944  19.307  0.00  0.00    +0.000 C 
ATOM      6  C   UNL     1       4.071   6.087  18.764  0.00  0.00    +0.000 C 
ATOM      7  N   UNL     1       2.844   6.240  19.543  0.00  0.00    +0.000 N 
ATOM      8  C   UNL     1       2.158   7.465  19.371  0.00  0.00    +0.000 A 
ATOM      9  C   UNL     1       1.636   8.116  20.484  0.00  0.00    +0.000 A 
ATOM     10  C   UNL     1       1.019   9.353  20.313  0.00  0.00    +0.000 A 
ATOM     11  C   UNL     1       0.887   9.874  19.033  0.00  0.00    +0.000 A 
ATOM     12  C   UNL     1       1.432   9.160  17.981  0.00  0.00    +0.000 A 
ATOM     13  N   UNL     1       2.111   8.001  18.130  0.00  0.00    +0.000 NA
ENDROOT
BRANCH   4  14
ATOM     14  S   UNL     1       3.832   3.053  17.733  0.00  0.00    +0.000 S 
ATOM     15  O   UNL     1       3.776   1.609  17.820  0.00  0.00    +0.000 OA
ATOM     16  O   UNL     1       2.769   3.817  17.122  0.00  0.00    +0.000 OA
BRANCH  14  17
ATOM     17  C   UNL     1       5.328   3.499  16.859  0.00  0.00    +0.000 C 
BRANCH  17  18
ATOM     18  C   UNL     1       4.950   4.256  15.591  0.00  0.00    +0.000 C 
BRANCH  18  19
ATOM     19  C   UNL     1       5.789   5.488  15.370  0.00  0.00    +0.000 C 
ATOM     20  F   UNL     1       6.611   5.744  16.408  0.00  0.00    +0.000 F 
ATOM     21  F   UNL     1       6.553   5.353  14.264  0.00  0.00    +0.000 F 
ATOM     22  F   UNL     1       5.005   6.574  15.191  0.00  0.00    +0.000 F 
ENDBRANCH  18  19
ENDBRANCH  17  18
ENDBRANCH  14  17
ENDBRANCH   4  14
TORSDOF 4
ENDMDL
