MODEL 1
REMARK VINA RESULT:      -6.7      0.000      0.000
REMARK  Name = 
REMARK  7 active torsions:
REMARK  status: ('A' for Active; 'I' for Inactive)
REMARK    1  A    between atoms: C_1  and  O_2
REMARK    2  A    between atoms: O_2  and  C_3
REMARK    3  A    between atoms: C_6  and  C_7
REMARK    4  A    between atoms: C_7  and  N_9
REMARK    5  A    between atoms: N_9  and  C_10
REMARK    6  A    between atoms: C_10  and  C_11
REMARK    7  A    between atoms: C_18  and  O_19
REMARK                            x       y       z     vdW  Elec       q    Type
REMARK                         _______ _______ _______ _____ _____    ______ ____
ROOT
ATOM      1  C   UNL     1       5.504   4.107  16.171  0.00  0.00    +0.000 C 
ATOM      2  S   UNL     1       5.687   3.785  14.534  0.00  0.00    +0.000 S 
ENDROOT
BRANCH   1   6
ATOM      3  C   UNL     1       7.834   7.054  18.294  0.00  0.00    +0.000 A 
ATOM      4  C   UNL     1       7.586   7.191  16.926  0.00  0.00    +0.000 A 
ATOM      5  C   UNL     1       6.824   6.241  16.235  0.00  0.00    +0.000 A 
ATOM      6  C   UNL     1       6.321   5.116  16.905  0.00  0.00    +0.000 A 
ATOM      7  C   UNL     1       6.629   4.960  18.264  0.00  0.00    +0.000 A 
ATOM      8  C   UNL     1       7.338   5.936  18.963  0.00  0.00    +0.000 A 
BRANCH   3  10
ATOM      9  C   UNL     1       8.471   9.340  18.256  0.00  0.00    +0.000 C 
ATOM     10  O   UNL     1       8.579   8.053  18.857  0.00  0.00    +0.000 OA
ENDBRANCH   3  10
BRANCH   7  11
ATOM     11  O   UNL     1       6.294   3.847  18.991  0.00  0.00    +0.000 OA
ATOM     12  H   UNL     1       5.944   3.177  18.376  0.00  0.00    +0.000 HD
ENDBRANCH   7  11
ENDBRANCH   1   6
BRANCH   1  13
ATOM     13  N   UNL     1       4.572   3.349  16.853  0.00  0.00    +0.000 N 
ATOM     14  H   UNL     1       4.912   2.446  17.172  0.00  0.00    +0.000 HD
BRANCH  13  15
ATOM     15  C   UNL     1       3.129   3.556  16.926  0.00  0.00    +0.000 C 
BRANCH  15  16
ATOM     16  C   UNL     1       2.668   4.135  18.239  0.00  0.00    +0.000 A 
ATOM     17  C   UNL     1       2.757   5.506  18.529  0.00  0.00    +0.000 A 
ATOM     18  C   UNL     1       2.392   5.993  19.786  0.00  0.00    +0.000 A 
ATOM     19  C   UNL     1       1.952   5.115  20.776  0.00  0.00    +0.000 A 
ATOM     20  C   UNL     1       1.877   3.753  20.504  0.00  0.00    +0.000 A 
ATOM     21 CL   UNL     1       1.364   2.661  21.730  0.00  0.00    +0.000 Cl
ATOM     22  C   UNL     1       2.232   3.262  19.251  0.00  0.00    +0.000 A 
ENDBRANCH  15  16
ENDBRANCH  13  15
ENDBRANCH   1  13
TORSDOF 6
ENDMDL
MODEL 2
REMARK VINA RESULT:      -6.6      2.856      3.897
REMARK  Name = 
REMARK  7 active torsions:
REMARK  status: ('A' for Active; 'I' for Inactive)
REMARK    1  A    between atoms: C_1  and  O_2
REMARK    2  A    between atoms: O_2  and  C_3
REMARK    3  A    between atoms: C_6  and  C_7
REMARK    4  A    between atoms: C_7  and  N_9
REMARK    5  A    between atoms: N_9  and  C_10
REMARK    6  A    between atoms: C_10  and  C_11
REMARK    7  A    between atoms: C_18  and  O_19
REMARK                            x       y       z     vdW  Elec       q    Type
REMARK                         _______ _______ _______ _____ _____    ______ ____
ROOT
ATOM      1  C   UNL     1       3.956   3.860  18.472  0.00  0.00    +0.000 C 
ATOM      2  S   UNL     1       2.941   2.535  18.289  0.00  0.00    +0.000 S 
ENDROOT
BRANCH   1   6
ATOM      3  C   UNL     1       6.933   5.007  15.567  0.00  0.00    +0.000 A 
ATOM      4  C   UNL     1       5.672   4.565  15.159  0.00  0.00    +0.000 A 
ATOM      5  C   UNL     1       4.700   4.200  16.099  0.00  0.00    +0.000 A 
ATOM      6  C   UNL     1       4.992   4.244  17.470  0.00  0.00    +0.000 A 
ATOM      7  C   UNL     1       6.281   4.631  17.863  0.00  0.00    +0.000 A 
ATOM      8  C   UNL     1       7.228   5.050  16.928  0.00  0.00    +0.000 A 
BRANCH   3  10
ATOM      9  C   UNL     1       7.431   4.913  13.249  0.00  0.00    +0.000 C 
ATOM     10  O   UNL     1       7.789   5.348  14.556  0.00  0.00    +0.000 OA
ENDBRANCH   3  10
BRANCH   7  11
ATOM     11  O   UNL     1       6.716   4.598  19.163  0.00  0.00    +0.000 OA
ATOM     12  H   UNL     1       7.668   4.806  19.169  0.00  0.00    +0.000 HD
ENDBRANCH   7  11
ENDBRANCH   1   6
BRANCH   1  13
ATOM     13  N   UNL     1       3.828   4.584  19.642  0.00  0.00    +0.000 N 
ATOM     14  H   UNL     1       4.652   4.577  20.236  0.00  0.00    +0.000 HD
BRANCH  13  15
ATOM     15  C   UNL     1       2.606   5.109  20.242  0.00  0.00    +0.000 C 
BRANCH  15  16
ATOM     16  C   UNL     1       2.216   6.470  19.728  0.00  0.00    +0.000 A 
ATOM     17  C   UNL     1       2.492   6.886  18.415  0.00  0.00    +0.000 A 
ATOM     18  C   UNL     1       2.185   8.183  17.999  0.00  0.00    +0.000 A 
ATOM     19  C   UNL     1       1.618   9.089  18.895  0.00  0.00    +0.000 A 
ATOM     20  C   UNL     1       1.357   8.693  20.202  0.00  0.00    +0.000 A 
ATOM     21 CL   UNL     1       0.686   9.814  21.321  0.00  0.00    +0.000 Cl
ATOM     22  C   UNL     1       1.653   7.399  20.621  0.00  0.00    +0.000 A 
ENDBRANCH  15  16
ENDBRANCH  13  15
ENDBRANCH   1  13
TORSDOF 6
ENDMDL
MODEL 3
REMARK VINA RESULT:      -6.6      3.665      6.910
REMARK  Name = 
REMARK  7 active torsions:
REMARK  status: ('A' for Active; 'I' for Inactive)
REMARK    1  A    between atoms: C_1  and  O_2
REMARK    2  A    between atoms: O_2  and  C_3
REMARK    3  A    between atoms: C_6  and  C_7
REMARK    4  A    between atoms: C_7  and  N_9
REMARK    5  A    between atoms: N_9  and  C_10
REMARK    6  A    between atoms: C_10  and  C_11
REMARK    7  A    between atoms: C_18  and  O_19
REMARK                            x       y       z     vdW  Elec       q    Type
REMARK                         _______ _______ _______ _____ _____    ______ ____
ROOT
ATOM      1  C   UNL     1       4.478   5.298  17.120  0.00  0.00    +0.000 C 
ATOM      2  S   UNL     1       4.540   6.975  17.075  0.00  0.00    +0.000 S 
ENDROOT
BRANCH   1   6
ATOM      3  C   UNL     1       1.985   3.064  19.843  0.00  0.00    +0.000 A 
ATOM      4  C   UNL     1       1.435   4.046  19.015  0.00  0.00    +0.000 A 
ATOM      5  C   UNL     1       2.239   4.768  18.124  0.00  0.00    +0.000 A 
ATOM      6  C   UNL     1       3.621   4.534  18.072  0.00  0.00    +0.000 A 
ATOM      7  C   UNL     1       4.169   3.588  18.951  0.00  0.00    +0.000 A 
ATOM      8  C   UNL     1       3.358   2.830  19.796  0.00  0.00    +0.000 A 
BRANCH   3  10
ATOM      9  C   UNL     1       1.319   2.536  22.059  0.00  0.00    +0.000 C 
ATOM     10  O   UNL     1       1.095   2.420  20.658  0.00  0.00    +0.000 OA
ENDBRANCH   3  10
BRANCH   7  11
ATOM     11  O   UNL     1       5.515   3.361  19.074  0.00  0.00    +0.000 OA
ATOM     12  H   UNL     1       5.987   4.115  18.675  0.00  0.00    +0.000 HD
ENDBRANCH   7  11
ENDBRANCH   1   6
BRANCH   1  13
ATOM     13  N   UNL     1       5.308   4.622  16.247  0.00  0.00    +0.000 N 
ATOM     14  H   UNL     1       5.027   3.666  16.050  0.00  0.00    +0.000 HD
BRANCH  13  15
ATOM     15  C   UNL     1       6.646   5.004  15.807  0.00  0.00    +0.000 C 
BRANCH  15  16
ATOM     16  C   UNL     1       6.902   4.735  14.347  0.00  0.00    +0.000 A 
ATOM     17  C   UNL     1       7.774   5.523  13.578  0.00  0.00    +0.000 A 
ATOM     18  C   UNL     1       7.925   5.291  12.209  0.00  0.00    +0.000 A 
ATOM     19  C   UNL     1       7.191   4.282  11.586  0.00  0.00    +0.000 A 
ATOM     20  C   UNL     1       6.311   3.508  12.335  0.00  0.00    +0.000 A 
ATOM     21 CL   UNL     1       5.380   2.283  11.566  0.00  0.00    +0.000 Cl
ATOM     22  C   UNL     1       6.161   3.729  13.701  0.00  0.00    +0.000 A 
ENDBRANCH  15  16
ENDBRANCH  13  15
ENDBRANCH   1  13
TORSDOF 6
ENDMDL
MODEL 4
REMARK VINA RESULT:      -6.6      1.498      2.107
REMARK  Name = 
REMARK  7 active torsions:
REMARK  status: ('A' for Active; 'I' for Inactive)
REMARK    1  A    between atoms: C_1  and  O_2
REMARK    2  A    between atoms: O_2  and  C_3
REMARK    3  A    between atoms: C_6  and  C_7
REMARK    4  A    between atoms: C_7  and  N_9
REMARK    5  A    between atoms: N_9  and  C_10
REMARK    6  A    between atoms: C_10  and  C_11
REMARK    7  A    between atoms: C_18  and  O_19
REMARK                            x       y       z     vdW  Elec       q    Type
REMARK                         _______ _______ _______ _____ _____    ______ ____
ROOT
ATOM      1  C   UNL     1       5.592   4.053  16.305  0.00  0.00    +0.000 C 
ATOM      2  S   UNL     1       5.816   3.631  14.695  0.00  0.00    +0.000 S 
ENDROOT
BRANCH   1   6
ATOM      3  C   UNL     1       7.836   7.191  18.238  0.00  0.00    +0.000 A 
ATOM      4  C   UNL     1       7.951   5.866  18.664  0.00  0.00    +0.000 A 
ATOM      5  C   UNL     1       7.231   4.843  18.034  0.00  0.00    +0.000 A 
ATOM      6  C   UNL     1       6.356   5.142  16.980  0.00  0.00    +0.000 A 
ATOM      7  C   UNL     1       6.204   6.484  16.603  0.00  0.00    +0.000 A 
ATOM      8  C   UNL     1       6.966   7.493  17.192  0.00  0.00    +0.000 A 
BRANCH   3  10
ATOM      9  C   UNL     1       8.599   9.430  18.431  0.00  0.00    +0.000 C 
ATOM     10  O   UNL     1       8.601   8.095  18.923  0.00  0.00    +0.000 OA
ENDBRANCH   3  10
BRANCH   7  11
ATOM     11  O   UNL     1       5.293   6.908  15.670  0.00  0.00    +0.000 OA
ATOM     12  H   UNL     1       5.729   7.565  15.097  0.00  0.00    +0.000 HD
ENDBRANCH   7  11
ENDBRANCH   1   6
BRANCH   1  13
ATOM     13  N   UNL     1       4.680   3.305  17.023  0.00  0.00    +0.000 N 
ATOM     14  H   UNL     1       5.067   2.479  17.470  0.00  0.00    +0.000 HD
BRANCH  13  15
ATOM     15  C   UNL     1       3.223   3.395  16.989  0.00  0.00    +0.000 C 
BRANCH  15  16
ATOM     16  C   UNL     1       2.597   3.567  18.348  0.00  0.00    +0.000 A 
ATOM     17  C   UNL     1       2.065   2.488  19.073  0.00  0.00    +0.000 A 
ATOM     18  C   UNL     1       1.423   2.698  20.295  0.00  0.00    +0.000 A 
ATOM     19  C   UNL     1       1.286   3.991  20.800  0.00  0.00    +0.000 A 
ATOM     20  C   UNL     1       1.794   5.068  20.082  0.00  0.00    +0.000 A 
ATOM     21 CL   UNL     1       1.601   6.668  20.683  0.00  0.00    +0.000 Cl
ATOM     22  C   UNL     1       2.442   4.865  18.867  0.00  0.00    +0.000 A 
ENDBRANCH  15  16
ENDBRANCH  13  15
ENDBRANCH   1  13
TORSDOF 6
ENDMDL
MODEL 5
REMARK VINA RESULT:      -6.5      2.551      3.988
REMARK  Name = 
REMARK  7 active torsions:
REMARK  status: ('A' for Active; 'I' for Inactive)
REMARK    1  A    between atoms: C_1  and  O_2
REMARK    2  A    between atoms: O_2  and  C_3
REMARK    3  A    between atoms: C_6  and  C_7
REMARK    4  A    between atoms: C_7  and  N_9
REMARK    5  A    between atoms: N_9  and  C_10
REMARK    6  A    between atoms: C_10  and  C_11
REMARK    7  A    between atoms: C_18  and  O_19
REMARK                            x       y       z     vdW  Elec       q    Type
REMARK                         _______ _______ _______ _____ _____    ______ ____
ROOT
ATOM      1  C   UNL     1       5.206   5.735  17.919  0.00  0.00    +0.000 C 
ATOM      2  S   UNL     1       6.001   5.365  19.351  0.00  0.00    +0.000 S 
ENDROOT
BRANCH   1   6
ATOM      3  C   UNL     1       6.238   4.044  14.086  0.00  0.00    +0.000 A 
ATOM      4  C   UNL     1       5.152   3.552  14.813  0.00  0.00    +0.000 A 
ATOM      5  C   UNL     1       4.809   4.103  16.054  0.00  0.00    +0.000 A 
ATOM      6  C   UNL     1       5.574   5.143  16.601  0.00  0.00    +0.000 A 
ATOM      7  C   UNL     1       6.698   5.586  15.888  0.00  0.00    +0.000 A 
ATOM      8  C   UNL     1       7.003   5.076  14.627  0.00  0.00    +0.000 A 
BRANCH   3  10
ATOM      9  C   UNL     1       7.186   4.184  11.915  0.00  0.00    +0.000 C 
ATOM     10  O   UNL     1       6.463   3.432  12.883  0.00  0.00    +0.000 OA
ENDBRANCH   3  10
BRANCH   7  11
ATOM     11  O   UNL     1       7.585   6.511  16.375  0.00  0.00    +0.000 OA
ATOM     12  H   UNL     1       7.098   7.337  16.547  0.00  0.00    +0.000 HD
ENDBRANCH   7  11
ENDBRANCH   1   6
BRANCH   1  13
ATOM     13  N   UNL     1       4.195   6.673  17.994  0.00  0.00    +0.000 N 
ATOM     14  H   UNL     1       4.420   7.573  17.580  0.00  0.00    +0.000 HD
BRANCH  13  15
ATOM     15  C   UNL     1       2.988   6.626  18.814  0.00  0.00    +0.000 C 
BRANCH  15  16
ATOM     16  C   UNL     1       2.376   5.253  18.908  0.00  0.00    +0.000 A 
ATOM     17  C   UNL     1       1.788   4.614  17.803  0.00  0.00    +0.000 A 
ATOM     18  C   UNL     1       1.162   3.374  17.947  0.00  0.00    +0.000 A 
ATOM     19  C   UNL     1       1.096   2.765  19.200  0.00  0.00    +0.000 A 
ATOM     20  C   UNL     1       1.659   3.398  20.304  0.00  0.00    +0.000 A 
ATOM     21 CL   UNL     1       1.554   2.667  21.857  0.00  0.00    +0.000 Cl
ATOM     22  C   UNL     1       2.292   4.630  20.166  0.00  0.00    +0.000 A 
ENDBRANCH  15  16
ENDBRANCH  13  15
ENDBRANCH   1  13
TORSDOF 6
ENDMDL
MODEL 6
REMARK VINA RESULT:      -6.5      3.217      4.240
REMARK  Name = 
REMARK  7 active torsions:
REMARK  status: ('A' for Active; 'I' for Inactive)
REMARK    1  A    between atoms: C_1  and  O_2
REMARK    2  A    between atoms: O_2  and  C_3
REMARK    3  A    between atoms: C_6  and  C_7
REMARK    4  A    between atoms: C_7  and  N_9
REMARK    5  A    between atoms: N_9  and  C_10
REMARK    6  A    between atoms: C_10  and  C_11
REMARK    7  A    between atoms: C_18  and  O_19
REMARK                            x       y       z     vdW  Elec       q    Type
REMARK                         _______ _______ _______ _____ _____    ______ ____
ROOT
ATOM      1  C   UNL     1       4.219   4.166  19.423  0.00  0.00    +0.000 C 
ATOM      2  S   UNL     1       3.911   2.594  19.924  0.00  0.00    +0.000 S 
ENDROOT
BRANCH   1   6
ATOM      3  C   UNL     1       6.821   5.172  16.131  0.00  0.00    +0.000 A 
ATOM      4  C   UNL     1       5.608   4.516  15.907  0.00  0.00    +0.000 A 
ATOM      5  C   UNL     1       4.757   4.194  16.971  0.00  0.00    +0.000 A 
ATOM      6  C   UNL     1       5.127   4.502  18.289  0.00  0.00    +0.000 A 
ATOM      7  C   UNL     1       6.374   5.106  18.504  0.00  0.00    +0.000 A 
ATOM      8  C   UNL     1       7.193   5.477  17.438  0.00  0.00    +0.000 A 
BRANCH   3  10
ATOM      9  C   UNL     1       7.148   4.790  13.811  0.00  0.00    +0.000 C 
ATOM     10  O   UNL     1       7.556   5.442  15.009  0.00  0.00    +0.000 OA
ENDBRANCH   3  10
BRANCH   7  11
ATOM     11  O   UNL     1       6.892   5.345  19.751  0.00  0.00    +0.000 OA
ATOM     12  H   UNL     1       6.431   4.768  20.387  0.00  0.00    +0.000 HD
ENDBRANCH   7  11
ENDBRANCH   1   6
BRANCH   1  13
ATOM     13  N   UNL     1       3.620   5.178  20.148  0.00  0.00    +0.000 N 
ATOM     14  H   UNL     1       4.251   5.697  20.752  0.00  0.00    +0.000 HD
BRANCH  13  15
ATOM     15  C   UNL     1       2.194   5.406  20.360  0.00  0.00    +0.000 C 
BRANCH  15  16
ATOM     16  C   UNL     1       1.802   6.860  20.318  0.00  0.00    +0.000 A 
ATOM     17  C   UNL     1       1.046   7.464  21.336  0.00  0.00    +0.000 A 
ATOM     18  C   UNL     1       0.636   8.795  21.223  0.00  0.00    +0.000 A 
ATOM     19  C   UNL     1       0.958   9.533  20.085  0.00  0.00    +0.000 A 
ATOM     20  C   UNL     1       1.692   8.938  19.064  0.00  0.00    +0.000 A 
ATOM     21 CL   UNL     1       2.067   9.833  17.644  0.00  0.00    +0.000 Cl
ATOM     22  C   UNL     1       2.111   7.615  19.172  0.00  0.00    +0.000 A 
ENDBRANCH  15  16
ENDBRANCH  13  15
ENDBRANCH   1  13
TORSDOF 6
ENDMDL
MODEL 7
REMARK VINA RESULT:      -6.5      3.814      6.405
REMARK  Name = 
REMARK  7 active torsions:
REMARK  status: ('A' for Active; 'I' for Inactive)
REMARK    1  A    between atoms: C_1  and  O_2
REMARK    2  A    between atoms: O_2  and  C_3
REMARK    3  A    between atoms: C_6  and  C_7
REMARK    4  A    between atoms: C_7  and  N_9
REMARK    5  A    between atoms: N_9  and  C_10
REMARK    6  A    between atoms: C_10  and  C_11
REMARK    7  A    between atoms: C_18  and  O_19
REMARK                            x       y       z     vdW  Elec       q    Type
REMARK                         _______ _______ _______ _____ _____    ______ ____
ROOT
ATOM      1  C   UNL     1       6.855   6.752  17.266  0.00  0.00    +0.000 C 
ATOM      2  S   UNL     1       7.620   8.189  17.676  0.00  0.00    +0.000 S 
ENDROOT
BRANCH   1   6
ATOM      3  C   UNL     1       3.239   5.329  19.140  0.00  0.00    +0.000 A 
ATOM      4  C   UNL     1       3.182   6.143  18.007  0.00  0.00    +0.000 A 
ATOM      5  C   UNL     1       4.353   6.601  17.390  0.00  0.00    +0.000 A 
ATOM      6  C   UNL     1       5.607   6.270  17.925  0.00  0.00    +0.000 A 
ATOM      7  C   UNL     1       5.648   5.503  19.098  0.00  0.00    +0.000 A 
ATOM      8  C   UNL     1       4.482   5.001  19.675  0.00  0.00    +0.000 A 
BRANCH   3  10
ATOM      9  C   UNL     1       1.318   3.957  18.889  0.00  0.00    +0.000 C 
ATOM     10  O   UNL     1       2.027   4.937  19.640  0.00  0.00    +0.000 OA
ENDBRANCH   3  10
BRANCH   7  11
ATOM     11  O   UNL     1       6.806   5.219  19.774  0.00  0.00    +0.000 OA
ATOM     12  H   UNL     1       7.441   4.837  19.142  0.00  0.00    +0.000 HD
ENDBRANCH   7  11
ENDBRANCH   1   6
BRANCH   1  13
ATOM     13  N   UNL     1       7.465   5.978  16.297  0.00  0.00    +0.000 N 
ATOM     14  H   UNL     1       8.159   6.467  15.739  0.00  0.00    +0.000 HD
BRANCH  13  15
ATOM     15  C   UNL     1       7.051   4.667  15.806  0.00  0.00    +0.000 C 
BRANCH  15  16
ATOM     16  C   UNL     1       7.093   4.544  14.306  0.00  0.00    +0.000 A 
ATOM     17  C   UNL     1       7.843   5.415  13.500  0.00  0.00    +0.000 A 
ATOM     18  C   UNL     1       7.795   5.317  12.107  0.00  0.00    +0.000 A 
ATOM     19  C   UNL     1       6.980   4.361  11.501  0.00  0.00    +0.000 A 
ATOM     20  C   UNL     1       6.219   3.505  12.290  0.00  0.00    +0.000 A 
ATOM     21 CL   UNL     1       5.190   2.344  11.549  0.00  0.00    +0.000 Cl
ATOM     22  C   UNL     1       6.269   3.592  13.679  0.00  0.00    +0.000 A 
ENDBRANCH  15  16
ENDBRANCH  13  15
ENDBRANCH   1  13
TORSDOF 6
ENDMDL
MODEL 8
REMARK VINA RESULT:      -6.4      2.967      3.717
REMARK  Name = 
REMARK  7 active torsions:
REMARK  status: ('A' for Active; 'I' for Inactive)
REMARK    1  A    between atoms: C_1  and  O_2
REMARK    2  A    between atoms: O_2  and  C_3
REMARK    3  A    between atoms: C_6  and  C_7
REMARK    4  A    between atoms: C_7  and  N_9
REMARK    5  A    between atoms: N_9  and  C_10
REMARK    6  A    between atoms: C_10  and  C_11
REMARK    7  A    between atoms: C_18  and  O_19
REMARK                            x       y       z     vdW  Elec       q    Type
REMARK                         _______ _______ _______ _____ _____    ______ ____
ROOT
ATOM      1  C   UNL     1       2.943   4.193  18.239  0.00  0.00    +0.000 C 
ATOM      2  S   UNL     1       2.548   2.674  17.643  0.00  0.00    +0.000 S 
ENDROOT
BRANCH   1   6
ATOM      3  C   UNL     1       6.590   6.286  17.271  0.00  0.00    +0.000 A 
ATOM      4  C   UNL     1       5.386   6.626  16.649  0.00  0.00    +0.000 A 
ATOM      5  C   UNL     1       4.198   5.955  16.966  0.00  0.00    +0.000 A 
ATOM      6  C   UNL     1       4.208   4.905  17.896  0.00  0.00    +0.000 A 
ATOM      7  C   UNL     1       5.433   4.534  18.467  0.00  0.00    +0.000 A 
ATOM      8  C   UNL     1       6.603   5.241  18.193  0.00  0.00    +0.000 A 
BRANCH   3  10
ATOM      9  C   UNL     1       7.971   8.173  17.672  0.00  0.00    +0.000 C 
ATOM     10  O   UNL     1       7.675   7.023  16.886  0.00  0.00    +0.000 OA
ENDBRANCH   3  10
BRANCH   7  11
ATOM     11  O   UNL     1       5.584   3.451  19.294  0.00  0.00    +0.000 OA
ATOM     12  H   UNL     1       4.735   2.975  19.329  0.00  0.00    +0.000 HD
ENDBRANCH   7  11
ENDBRANCH   1   6
BRANCH   1  13
ATOM     13  N   UNL     1       2.050   4.764  19.125  0.00  0.00    +0.000 N 
ATOM     14  H   UNL     1       1.095   4.829  18.782  0.00  0.00    +0.000 HD
BRANCH  13  15
ATOM     15  C   UNL     1       2.350   5.516  20.339  0.00  0.00    +0.000 C 
BRANCH  15  16
ATOM     16  C   UNL     1       1.820   6.926  20.323  0.00  0.00    +0.000 A 
ATOM     17  C   UNL     1       0.973   7.424  21.327  0.00  0.00    +0.000 A 
ATOM     18  C   UNL     1       0.441   8.711  21.236  0.00  0.00    +0.000 A 
ATOM     19  C   UNL     1       0.731   9.512  20.131  0.00  0.00    +0.000 A 
ATOM     20  C   UNL     1       1.554   9.023  19.123  0.00  0.00    +0.000 A 
ATOM     21 CL   UNL     1       1.891   9.993  17.744  0.00  0.00    +0.000 Cl
ATOM     22  C   UNL     1       2.095   7.743  19.211  0.00  0.00    +0.000 A 
ENDBRANCH  15  16
ENDBRANCH  13  15
ENDBRANCH   1  13
TORSDOF 6
ENDMDL
MODEL 9
REMARK VINA RESULT:      -6.3      3.481      6.263
REMARK  Name = 
REMARK  7 active torsions:
REMARK  status: ('A' for Active; 'I' for Inactive)
REMARK    1  A    between atoms: C_1  and  O_2
REMARK    2  A    between atoms: O_2  and  C_3
REMARK    3  A    between atoms: C_6  and  C_7
REMARK    4  A    between atoms: C_7  and  N_9
REMARK    5  A    between atoms: N_9  and  C_10
REMARK    6  A    between atoms: C_10  and  C_11
REMARK    7  A    between atoms: C_18  and  O_19
REMARK                            x       y       z     vdW  Elec       q    Type
REMARK                         _______ _______ _______ _____ _____    ______ ____
ROOT
ATOM      1  C   UNL     1       2.650   7.690  17.972  0.00  0.00    +0.000 C 
ATOM      2  S   UNL     1       1.622   9.016  17.912  0.00  0.00    +0.000 S 
ENDROOT
BRANCH   1   6
ATOM      3  C   UNL     1       1.646   3.948  19.871  0.00  0.00    +0.000 A 
ATOM      4  C   UNL     1       1.737   4.040  18.480  0.00  0.00    +0.000 A 
ATOM      5  C   UNL     1       2.071   5.251  17.860  0.00  0.00    +0.000 A 
ATOM      6  C   UNL     1       2.289   6.402  18.630  0.00  0.00    +0.000 A 
ATOM      7  C   UNL     1       2.134   6.309  20.021  0.00  0.00    +0.000 A 
ATOM      8  C   UNL     1       1.860   5.090  20.640  0.00  0.00    +0.000 A 
BRANCH   3  10
ATOM      9  C   UNL     1       1.512   2.508  21.753  0.00  0.00    +0.000 C 
ATOM     10  O   UNL     1       1.326   2.710  20.356  0.00  0.00    +0.000 OA
ENDBRANCH   3  10
BRANCH   7  11
ATOM     11  O   UNL     1       2.206   7.390  20.862  0.00  0.00    +0.000 OA
ATOM     12  H   UNL     1       2.375   8.183  20.323  0.00  0.00    +0.000 HD
ENDBRANCH   7  11
ENDBRANCH   1   6
BRANCH   1  13
ATOM     13  N   UNL     1       3.903   7.850  17.412  0.00  0.00    +0.000 N 
ATOM     14  H   UNL     1       4.418   8.658  17.749  0.00  0.00    +0.000 HD
BRANCH  13  15
ATOM     15  C   UNL     1       4.449   7.184  16.233  0.00  0.00    +0.000 C 
BRANCH  15  16
ATOM     16  C   UNL     1       5.597   6.258  16.540  0.00  0.00    +0.000 A 
ATOM     17  C   UNL     1       5.950   5.192  15.696  0.00  0.00    +0.000 A 
ATOM     18  C   UNL     1       6.971   4.309  16.054  0.00  0.00    +0.000 A 
ATOM     19  C   UNL     1       7.639   4.466  17.268  0.00  0.00    +0.000 A 
ATOM     20  C   UNL     1       7.285   5.508  18.118  0.00  0.00    +0.000 A 
ATOM     21 CL   UNL     1       8.084   5.689  19.631  0.00  0.00    +0.000 Cl
ATOM     22  C   UNL     1       6.274   6.397  17.765  0.00  0.00    +0.000 A 
ENDBRANCH  15  16
ENDBRANCH  13  15
ENDBRANCH   1  13
TORSDOF 6
ENDMDL
