MODEL 1
REMARK VINA RESULT:      -8.2      0.000      0.000
REMARK  Name = 
REMARK  15 active torsions:
REMARK  status: ('A' for Active; 'I' for Inactive)
REMARK    1  A    between atoms: C_1  and  C_2
REMARK    2  A    between atoms: C_2  and  C_3
REMARK    3  A    between atoms: C_2  and  C_14
REMARK    4  A    between atoms: N_5  and  C_6
REMARK    5  A    between atoms: N_5  and  C_7
REMARK    6  A    between atoms: C_7  and  C_8
REMARK    7  A    between atoms: C_17  and  C_18
REMARK    8  A    between atoms: C_18  and  C_19
REMARK    9  A    between atoms: C_19  and  C_20
REMARK   10  A    between atoms: C_19  and  N_21
REMARK   11  A    between atoms: C_23  and  C_24
REMARK   12  A    between atoms: C_25  and  C_26
REMARK   13  A    between atoms: C_26  and  N_27
REMARK   14  A    between atoms: N_27  and  C_28
REMARK   15  A    between atoms: N_27  and  C_29
REMARK                            x       y       z     vdW  Elec       q    Type
REMARK                         _______ _______ _______ _____ _____    ______ ____
ROOT
ATOM      1  C   UNL     1       2.683   2.149  19.948  0.00  0.00    +0.000 C 
ATOM      2  C   UNL     1       2.848   1.585  18.534  0.00  0.00    +0.000 C 
ATOM      3  C   UNL     1       3.934   2.426  17.904  0.00  0.00    +0.000 C 
ATOM      4  C   UNL     1       4.780   2.869  19.090  0.00  0.00    +0.000 C 
ATOM      5  O   UNL     1       3.926   2.836  20.242  0.00  0.00    +0.000 OA
ENDROOT
BRANCH   1   7
ATOM      6  C   UNL     1       0.489   2.912  18.971  0.00  0.00    +0.000 C 
ATOM      7  C   UNL     1       1.467   3.126  20.128  0.00  0.00    +0.000 C 
BRANCH   7   8
ATOM      8  C   UNL     1       1.971   4.593  20.316  0.00  0.00    +0.000 C 
ATOM      9  O   UNL     1       2.140   5.045  21.455  0.00  0.00    +0.000 OA
ATOM     10  N   UNL     1       2.139   5.433  19.210  0.00  0.00    +0.000 N 
ATOM     11  C   UNL     1       1.919   5.054  17.834  0.00  0.00    +0.000 C 
BRANCH  10  12
ATOM     12  C   UNL     1       2.825   6.716  19.397  0.00  0.00    +0.000 C 
BRANCH  12  13
ATOM     13  C   UNL     1       1.931   7.942  19.345  0.00  0.00    +0.000 A 
ATOM     14  C   UNL     1       1.774   8.641  18.142  0.00  0.00    +0.000 A 
ATOM     15  C   UNL     1       0.873   9.706  18.045  0.00  0.00    +0.000 A 
ATOM     16  C   UNL     1       0.132  10.102  19.158  0.00  0.00    +0.000 A 
ATOM     17  C   UNL     1       0.295   9.433  20.369  0.00  0.00    +0.000 A 
ATOM     18  C   UNL     1       1.189   8.359  20.462  0.00  0.00    +0.000 A 
ENDBRANCH  12  13
ENDBRANCH  10  12
ENDBRANCH   7   8
ENDBRANCH   1   7
BRANCH   4  19
ATOM     19  C   UNL     1       5.353   4.283  18.887  0.00  0.00    +0.000 C 
BRANCH  19  20
ATOM     20  C   UNL     1       6.423   4.423  17.783  0.00  0.00    +0.000 C 
ATOM     21  C   UNL     1       5.888   4.020  16.407  0.00  0.00    +0.000 C 
BRANCH  20  22
ATOM     22  N   UNL     1       6.961   5.787  17.738  0.00  0.00    +0.000 N 
ATOM     23  C   UNL     1       7.703   6.466  18.673  0.00  0.00    +0.000 A 
ATOM     24  C   UNL     1       7.930   7.698  18.089  0.00  0.00    +0.000 A 
ATOM     25  N   UNL     1       7.328   7.742  16.871  0.00  0.00    +0.000 NA
ATOM     26  N   UNL     1       6.740   6.566  16.659  0.00  0.00    +0.000 NA
BRANCH  24  27
ATOM     27  C   UNL     1       8.635   8.820  18.612  0.00  0.00    +0.000 C 
ATOM     28  C   UNL     1       9.268   9.753  19.035  0.00  0.00    +0.000 C 
BRANCH  28  29
ATOM     29  C   UNL     1      10.041  10.905  19.542  0.00  0.00    +0.000 C 
BRANCH  29  30
ATOM     30  N   UNL     1       9.193  11.977  20.093  0.00  0.00    +0.000 NA
ATOM     31  C   UNL     1       9.615  12.375  21.436  0.00  0.00    +0.000 C 
ATOM     32  C   UNL     1       9.221  13.151  19.212  0.00  0.00    +0.000 C 
ENDBRANCH  29  30
ENDBRANCH  28  29
ENDBRANCH  24  27
ENDBRANCH  20  22
ENDBRANCH  19  20
ENDBRANCH   4  19
TORSDOF 10
ENDMDL
MODEL 2
REMARK VINA RESULT:      -8.0      2.246      3.350
REMARK  Name = 
REMARK  15 active torsions:
REMARK  status: ('A' for Active; 'I' for Inactive)
REMARK    1  A    between atoms: C_1  and  C_2
REMARK    2  A    between atoms: C_2  and  C_3
REMARK    3  A    between atoms: C_2  and  C_14
REMARK    4  A    between atoms: N_5  and  C_6
REMARK    5  A    between atoms: N_5  and  C_7
REMARK    6  A    between atoms: C_7  and  C_8
REMARK    7  A    between atoms: C_17  and  C_18
REMARK    8  A    between atoms: C_18  and  C_19
REMARK    9  A    between atoms: C_19  and  C_20
REMARK   10  A    between atoms: C_19  and  N_21
REMARK   11  A    between atoms: C_23  and  C_24
REMARK   12  A    between atoms: C_25  and  C_26
REMARK   13  A    between atoms: C_26  and  N_27
REMARK   14  A    between atoms: N_27  and  C_28
REMARK   15  A    between atoms: N_27  and  C_29
REMARK                            x       y       z     vdW  Elec       q    Type
REMARK                         _______ _______ _______ _____ _____    ______ ____
ROOT
ATOM      1  C   UNL     1       2.633   6.341  19.721  0.00  0.00    +0.000 C 
ATOM      2  C   UNL     1       1.755   5.098  19.897  0.00  0.00    +0.000 C 
ATOM      3  C   UNL     1       2.250   4.122  18.854  0.00  0.00    +0.000 C 
ATOM      4  C   UNL     1       3.713   4.502  18.671  0.00  0.00    +0.000 C 
ATOM      5  O   UNL     1       3.833   5.880  19.050  0.00  0.00    +0.000 OA
ENDROOT
BRANCH   1   7
ATOM      6  C   UNL     1       2.943   7.966  17.819  0.00  0.00    +0.000 C 
ATOM      7  C   UNL     1       1.967   7.504  18.903  0.00  0.00    +0.000 C 
BRANCH   7   8
ATOM      8  C   UNL     1       1.458   8.625  19.866  0.00  0.00    +0.000 C 
ATOM      9  O   UNL     1       1.749   8.585  21.067  0.00  0.00    +0.000 OA
ATOM     10  N   UNL     1       0.593   9.621  19.401  0.00  0.00    +0.000 N 
ATOM     11  C   UNL     1       0.125   9.750  18.041  0.00  0.00    +0.000 C 
BRANCH  10  12
ATOM     12  C   UNL     1       0.320  10.777  20.262  0.00  0.00    +0.000 C 
BRANCH  12  13
ATOM     13  C   UNL     1       1.151  12.014  19.971  0.00  0.00    +0.000 A 
ATOM     14  C   UNL     1       1.897  12.090  18.789  0.00  0.00    +0.000 A 
ATOM     15  C   UNL     1       2.582  13.261  18.449  0.00  0.00    +0.000 A 
ATOM     16  C   UNL     1       2.550  14.365  19.301  0.00  0.00    +0.000 A 
ATOM     17  C   UNL     1       1.833  14.296  20.492  0.00  0.00    +0.000 A 
ATOM     18  C   UNL     1       1.138  13.128  20.826  0.00  0.00    +0.000 A 
ENDBRANCH  12  13
ENDBRANCH  10  12
ENDBRANCH   7   8
ENDBRANCH   1   7
BRANCH   4  19
ATOM     19  C   UNL     1       4.177   4.303  17.217  0.00  0.00    +0.000 C 
BRANCH  19  20
ATOM     20  C   UNL     1       5.704   4.321  16.990  0.00  0.00    +0.000 C 
ATOM     21  C   UNL     1       6.095   3.687  15.653  0.00  0.00    +0.000 C 
BRANCH  20  22
ATOM     22  N   UNL     1       6.236   5.685  17.080  0.00  0.00    +0.000 N 
ATOM     23  C   UNL     1       7.194   6.197  17.919  0.00  0.00    +0.000 A 
ATOM     24  C   UNL     1       7.291   7.524  17.547  0.00  0.00    +0.000 A 
ATOM     25  N   UNL     1       6.411   7.780  16.542  0.00  0.00    +0.000 NA
ATOM     26  N   UNL     1       5.771   6.648  16.256  0.00  0.00    +0.000 NA
BRANCH  24  27
ATOM     27  C   UNL     1       8.120   8.548  18.089  0.00  0.00    +0.000 C 
ATOM     28  C   UNL     1       8.789   9.444  18.536  0.00  0.00    +0.000 C 
BRANCH  28  29
ATOM     29  C   UNL     1       9.605  10.540  19.095  0.00  0.00    +0.000 C 
BRANCH  29  30
ATOM     30  N   UNL     1       9.910  11.597  18.115  0.00  0.00    +0.000 NA
ATOM     31  C   UNL     1       9.257  12.863  18.451  0.00  0.00    +0.000 C 
ATOM     32  C   UNL     1      11.359  11.809  18.029  0.00  0.00    +0.000 C 
ENDBRANCH  29  30
ENDBRANCH  28  29
ENDBRANCH  24  27
ENDBRANCH  20  22
ENDBRANCH  19  20
ENDBRANCH   4  19
TORSDOF 10
ENDMDL
MODEL 3
REMARK VINA RESULT:      -8.0      1.526      1.931
REMARK  Name = 
REMARK  15 active torsions:
REMARK  status: ('A' for Active; 'I' for Inactive)
REMARK    1  A    between atoms: C_1  and  C_2
REMARK    2  A    between atoms: C_2  and  C_3
REMARK    3  A    between atoms: C_2  and  C_14
REMARK    4  A    between atoms: N_5  and  C_6
REMARK    5  A    between atoms: N_5  and  C_7
REMARK    6  A    between atoms: C_7  and  C_8
REMARK    7  A    between atoms: C_17  and  C_18
REMARK    8  A    between atoms: C_18  and  C_19
REMARK    9  A    between atoms: C_19  and  C_20
REMARK   10  A    between atoms: C_19  and  N_21
REMARK   11  A    between atoms: C_23  and  C_24
REMARK   12  A    between atoms: C_25  and  C_26
REMARK   13  A    between atoms: C_26  and  N_27
REMARK   14  A    between atoms: N_27  and  C_28
REMARK   15  A    between atoms: N_27  and  C_29
REMARK                            x       y       z     vdW  Elec       q    Type
REMARK                         _______ _______ _______ _____ _____    ______ ____
ROOT
ATOM      1  C   UNL     1       2.957   3.085  19.771  0.00  0.00    +0.000 C 
ATOM      2  C   UNL     1       2.487   1.824  19.038  0.00  0.00    +0.000 C 
ATOM      3  C   UNL     1       3.034   1.963  17.637  0.00  0.00    +0.000 C 
ATOM      4  C   UNL     1       4.287   2.808  17.821  0.00  0.00    +0.000 C 
ATOM      5  O   UNL     1       4.100   3.569  19.022  0.00  0.00    +0.000 OA
ENDROOT
BRANCH   1   7
ATOM      6  C   UNL     1       0.519   3.565  20.200  0.00  0.00    +0.000 C 
ATOM      7  C   UNL     1       1.872   4.213  19.896  0.00  0.00    +0.000 C 
BRANCH   7   8
ATOM      8  C   UNL     1       1.902   5.139  18.638  0.00  0.00    +0.000 C 
ATOM      9  O   UNL     1       1.324   4.790  17.602  0.00  0.00    +0.000 OA
ATOM     10  N   UNL     1       2.659   6.316  18.641  0.00  0.00    +0.000 N 
ATOM     11  C   UNL     1       3.429   6.809  19.759  0.00  0.00    +0.000 C 
BRANCH  10  12
ATOM     12  C   UNL     1       2.486   7.269  17.540  0.00  0.00    +0.000 C 
BRANCH  12  13
ATOM     13  C   UNL     1       1.792   8.568  17.910  0.00  0.00    +0.000 A 
ATOM     14  C   UNL     1       2.551   9.722  18.146  0.00  0.00    +0.000 A 
ATOM     15  C   UNL     1       1.929  10.952  18.382  0.00  0.00    +0.000 A 
ATOM     16  C   UNL     1       0.537  11.041  18.408  0.00  0.00    +0.000 A 
ATOM     17  C   UNL     1      -0.231   9.898  18.200  0.00  0.00    +0.000 A 
ATOM     18  C   UNL     1       0.392   8.669  17.953  0.00  0.00    +0.000 A 
ENDBRANCH  12  13
ENDBRANCH  10  12
ENDBRANCH   7   8
ENDBRANCH   1   7
BRANCH   4  19
ATOM     19  C   UNL     1       4.527   3.745  16.623  0.00  0.00    +0.000 C 
BRANCH  19  20
ATOM     20  C   UNL     1       5.997   3.907  16.179  0.00  0.00    +0.000 C 
ATOM     21  C   UNL     1       6.118   4.166  14.676  0.00  0.00    +0.000 C 
BRANCH  20  22
ATOM     22  N   UNL     1       6.663   4.974  16.934  0.00  0.00    +0.000 N 
ATOM     23  C   UNL     1       6.841   6.296  16.608  0.00  0.00    +0.000 A 
ATOM     24  C   UNL     1       7.523   6.818  17.690  0.00  0.00    +0.000 A 
ATOM     25  N   UNL     1       7.750   5.836  18.602  0.00  0.00    +0.000 NA
ATOM     26  N   UNL     1       7.215   4.708  18.136  0.00  0.00    +0.000 NA
BRANCH  24  27
ATOM     27  C   UNL     1       7.991   8.148  17.896  0.00  0.00    +0.000 C 
ATOM     28  C   UNL     1       8.395   9.261  18.113  0.00  0.00    +0.000 C 
BRANCH  28  29
ATOM     29  C   UNL     1       8.902  10.623  18.375  0.00  0.00    +0.000 C 
BRANCH  29  30
ATOM     30  N   UNL     1       9.933  10.667  19.428  0.00  0.00    +0.000 NA
ATOM     31  C   UNL     1      11.055  11.532  19.061  0.00  0.00    +0.000 C 
ATOM     32  C   UNL     1       9.352  11.141  20.690  0.00  0.00    +0.000 C 
ENDBRANCH  29  30
ENDBRANCH  28  29
ENDBRANCH  24  27
ENDBRANCH  20  22
ENDBRANCH  19  20
ENDBRANCH   4  19
TORSDOF 10
ENDMDL
MODEL 4
REMARK VINA RESULT:      -7.9      1.315      1.521
REMARK  Name = 
REMARK  15 active torsions:
REMARK  status: ('A' for Active; 'I' for Inactive)
REMARK    1  A    between atoms: C_1  and  C_2
REMARK    2  A    between atoms: C_2  and  C_3
REMARK    3  A    between atoms: C_2  and  C_14
REMARK    4  A    between atoms: N_5  and  C_6
REMARK    5  A    between atoms: N_5  and  C_7
REMARK    6  A    between atoms: C_7  and  C_8
REMARK    7  A    between atoms: C_17  and  C_18
REMARK    8  A    between atoms: C_18  and  C_19
REMARK    9  A    between atoms: C_19  and  C_20
REMARK   10  A    between atoms: C_19  and  N_21
REMARK   11  A    between atoms: C_23  and  C_24
REMARK   12  A    between atoms: C_25  and  C_26
REMARK   13  A    between atoms: C_26  and  N_27
REMARK   14  A    between atoms: N_27  and  C_28
REMARK   15  A    between atoms: N_27  and  C_29
REMARK                            x       y       z     vdW  Elec       q    Type
REMARK                         _______ _______ _______ _____ _____    ______ ____
ROOT
ATOM      1  C   UNL     1       3.685   2.778  19.807  0.00  0.00    +0.000 C 
ATOM      2  C   UNL     1       2.891   1.955  18.789  0.00  0.00    +0.000 C 
ATOM      3  C   UNL     1       3.292   2.510  17.442  0.00  0.00    +0.000 C 
ATOM      4  C   UNL     1       4.703   3.034  17.674  0.00  0.00    +0.000 C 
ATOM      5  O   UNL     1       4.810   3.326  19.074  0.00  0.00    +0.000 OA
ENDROOT
BRANCH   1   7
ATOM      6  C   UNL     1       1.939   3.321  21.543  0.00  0.00    +0.000 C 
ATOM      7  C   UNL     1       2.871   3.932  20.494  0.00  0.00    +0.000 C 
BRANCH   7   8
ATOM      8  C   UNL     1       2.174   4.823  19.417  0.00  0.00    +0.000 C 
ATOM      9  O   UNL     1       1.084   4.480  18.945  0.00  0.00    +0.000 OA
ATOM     10  N   UNL     1       2.818   5.957  18.909  0.00  0.00    +0.000 N 
ATOM     11  C   UNL     1       4.115   6.435  19.325  0.00  0.00    +0.000 C 
BRANCH  10  12
ATOM     12  C   UNL     1       2.051   6.890  18.077  0.00  0.00    +0.000 C 
BRANCH  12  13
ATOM     13  C   UNL     1       1.780   8.246  18.705  0.00  0.00    +0.000 A 
ATOM     14  C   UNL     1       1.909   9.409  17.937  0.00  0.00    +0.000 A 
ATOM     15  C   UNL     1       1.560  10.657  18.463  0.00  0.00    +0.000 A 
ATOM     16  C   UNL     1       1.099  10.762  19.775  0.00  0.00    +0.000 A 
ATOM     17  C   UNL     1       0.988   9.616  20.560  0.00  0.00    +0.000 A 
ATOM     18  C   UNL     1       1.326   8.366  20.029  0.00  0.00    +0.000 A 
ENDBRANCH  12  13
ENDBRANCH  10  12
ENDBRANCH   7   8
ENDBRANCH   1   7
BRANCH   4  19
ATOM     19  C   UNL     1       4.989   4.295  16.839  0.00  0.00    +0.000 C 
BRANCH  19  20
ATOM     20  C   UNL     1       6.477   4.581  16.541  0.00  0.00    +0.000 C 
ATOM     21  C   UNL     1       6.830   4.321  15.075  0.00  0.00    +0.000 C 
BRANCH  20  22
ATOM     22  N   UNL     1       6.837   5.953  16.914  0.00  0.00    +0.000 N 
ATOM     23  C   UNL     1       7.753   6.398  17.835  0.00  0.00    +0.000 A 
ATOM     24  C   UNL     1       7.669   7.774  17.753  0.00  0.00    +0.000 A 
ATOM     25  N   UNL     1       6.728   8.119  16.834  0.00  0.00    +0.000 NA
ATOM     26  N   UNL     1       6.225   6.998  16.319  0.00  0.00    +0.000 NA
BRANCH  24  27
ATOM     27  C   UNL     1       8.382   8.760  18.493  0.00  0.00    +0.000 C 
ATOM     28  C   UNL     1       8.950   9.599  19.146  0.00  0.00    +0.000 C 
BRANCH  28  29
ATOM     29  C   UNL     1       9.650  10.617  19.953  0.00  0.00    +0.000 C 
BRANCH  29  30
ATOM     30  N   UNL     1      10.308  11.654  19.139  0.00  0.00    +0.000 NA
ATOM     31  C   UNL     1      11.767  11.545  19.185  0.00  0.00    +0.000 C 
ATOM     32  C   UNL     1       9.863  11.564  17.743  0.00  0.00    +0.000 C 
ENDBRANCH  29  30
ENDBRANCH  28  29
ENDBRANCH  24  27
ENDBRANCH  20  22
ENDBRANCH  19  20
ENDBRANCH   4  19
TORSDOF 10
ENDMDL
MODEL 5
REMARK VINA RESULT:      -7.9      2.482      3.925
REMARK  Name = 
REMARK  15 active torsions:
REMARK  status: ('A' for Active; 'I' for Inactive)
REMARK    1  A    between atoms: C_1  and  C_2
REMARK    2  A    between atoms: C_2  and  C_3
REMARK    3  A    between atoms: C_2  and  C_14
REMARK    4  A    between atoms: N_5  and  C_6
REMARK    5  A    between atoms: N_5  and  C_7
REMARK    6  A    between atoms: C_7  and  C_8
REMARK    7  A    between atoms: C_17  and  C_18
REMARK    8  A    between atoms: C_18  and  C_19
REMARK    9  A    between atoms: C_19  and  C_20
REMARK   10  A    between atoms: C_19  and  N_21
REMARK   11  A    between atoms: C_23  and  C_24
REMARK   12  A    between atoms: C_25  and  C_26
REMARK   13  A    between atoms: C_26  and  N_27
REMARK   14  A    between atoms: N_27  and  C_28
REMARK   15  A    between atoms: N_27  and  C_29
REMARK                            x       y       z     vdW  Elec       q    Type
REMARK                         _______ _______ _______ _____ _____    ______ ____
ROOT
ATOM      1  C   UNL     1       2.384   7.225  19.806  0.00  0.00    +0.000 C 
ATOM      2  C   UNL     1       1.656   5.940  20.212  0.00  0.00    +0.000 C 
ATOM      3  C   UNL     1       2.149   4.891  19.242  0.00  0.00    +0.000 C 
ATOM      4  C   UNL     1       3.543   5.374  18.867  0.00  0.00    +0.000 C 
ATOM      5  O   UNL     1       3.558   6.794  19.072  0.00  0.00    +0.000 OA
ENDROOT
BRANCH   1   7
ATOM      6  C   UNL     1       2.387   8.700  17.762  0.00  0.00    +0.000 C 
ATOM      7  C   UNL     1       1.531   8.214  18.934  0.00  0.00    +0.000 C 
BRANCH   7   8
ATOM      8  C   UNL     1       0.919   9.340  19.828  0.00  0.00    +0.000 C 
ATOM      9  O   UNL     1       1.271   9.448  21.008  0.00  0.00    +0.000 OA
ATOM     10  N   UNL     1      -0.096  10.166  19.333  0.00  0.00    +0.000 N 
ATOM     11  C   UNL     1      -0.642  10.107  17.998  0.00  0.00    +0.000 C 
BRANCH  10  12
ATOM     12  C   UNL     1      -0.485  11.348  20.110  0.00  0.00    +0.000 C 
BRANCH  12  13
ATOM     13  C   UNL     1       0.083  12.666  19.611  0.00  0.00    +0.000 A 
ATOM     14  C   UNL     1      -0.767  13.763  19.419  0.00  0.00    +0.000 A 
ATOM     15  C   UNL     1      -0.251  15.014  19.066  0.00  0.00    +0.000 A 
ATOM     16  C   UNL     1       1.121  15.180  18.877  0.00  0.00    +0.000 A 
ATOM     17  C   UNL     1       1.976  14.092  19.040  0.00  0.00    +0.000 A 
ATOM     18  C   UNL     1       1.461  12.843  19.405  0.00  0.00    +0.000 A 
ENDBRANCH  12  13
ENDBRANCH  10  12
ENDBRANCH   7   8
ENDBRANCH   1   7
BRANCH   4  19
ATOM     19  C   UNL     1       3.891   5.040  17.406  0.00  0.00    +0.000 C 
BRANCH  19  20
ATOM     20  C   UNL     1       5.333   4.550  17.152  0.00  0.00    +0.000 C 
ATOM     21  C   UNL     1       5.586   4.246  15.674  0.00  0.00    +0.000 C 
BRANCH  20  22
ATOM     22  N   UNL     1       6.316   5.521  17.646  0.00  0.00    +0.000 N 
ATOM     23  C   UNL     1       6.523   6.824  17.269  0.00  0.00    +0.000 A 
ATOM     24  C   UNL     1       7.565   7.243  18.074  0.00  0.00    +0.000 A 
ATOM     25  N   UNL     1       7.962   6.219  18.875  0.00  0.00    +0.000 NA
ATOM     26  N   UNL     1       7.188   5.167  18.612  0.00  0.00    +0.000 NA
BRANCH  24  27
ATOM     27  C   UNL     1       8.216   8.511  18.109  0.00  0.00    +0.000 C 
ATOM     28  C   UNL     1       8.784   9.573  18.100  0.00  0.00    +0.000 C 
BRANCH  28  29
ATOM     29  C   UNL     1       9.470  10.880  18.082  0.00  0.00    +0.000 C 
BRANCH  29  30
ATOM     30  N   UNL     1       8.620  11.989  18.550  0.00  0.00    +0.000 NA
ATOM     31  C   UNL     1       9.356  12.920  19.407  0.00  0.00    +0.000 C 
ATOM     32  C   UNL     1       8.065  12.723  17.407  0.00  0.00    +0.000 C 
ENDBRANCH  29  30
ENDBRANCH  28  29
ENDBRANCH  24  27
ENDBRANCH  20  22
ENDBRANCH  19  20
ENDBRANCH   4  19
TORSDOF 10
ENDMDL
MODEL 6
REMARK VINA RESULT:      -7.7      2.334      3.782
REMARK  Name = 
REMARK  15 active torsions:
REMARK  status: ('A' for Active; 'I' for Inactive)
REMARK    1  A    between atoms: C_1  and  C_2
REMARK    2  A    between atoms: C_2  and  C_3
REMARK    3  A    between atoms: C_2  and  C_14
REMARK    4  A    between atoms: N_5  and  C_6
REMARK    5  A    between atoms: N_5  and  C_7
REMARK    6  A    between atoms: C_7  and  C_8
REMARK    7  A    between atoms: C_17  and  C_18
REMARK    8  A    between atoms: C_18  and  C_19
REMARK    9  A    between atoms: C_19  and  C_20
REMARK   10  A    between atoms: C_19  and  N_21
REMARK   11  A    between atoms: C_23  and  C_24
REMARK   12  A    between atoms: C_25  and  C_26
REMARK   13  A    between atoms: C_26  and  N_27
REMARK   14  A    between atoms: N_27  and  C_28
REMARK   15  A    between atoms: N_27  and  C_29
REMARK                            x       y       z     vdW  Elec       q    Type
REMARK                         _______ _______ _______ _____ _____    ______ ____
ROOT
ATOM      1  C   UNL     1       2.376   6.782  19.989  0.00  0.00    +0.000 C 
ATOM      2  C   UNL     1       1.590   5.470  20.075  0.00  0.00    +0.000 C 
ATOM      3  C   UNL     1       2.146   4.611  18.964  0.00  0.00    +0.000 C 
ATOM      4  C   UNL     1       3.577   5.106  18.806  0.00  0.00    +0.000 C 
ATOM      5  O   UNL     1       3.601   6.458  19.284  0.00  0.00    +0.000 OA
ENDROOT
BRANCH   1   7
ATOM      6  C   UNL     1       2.490   8.449  18.101  0.00  0.00    +0.000 C 
ATOM      7  C   UNL     1       1.623   7.951  19.260  0.00  0.00    +0.000 C 
BRANCH   7   8
ATOM      8  C   UNL     1       1.188   9.044  20.288  0.00  0.00    +0.000 C 
ATOM      9  O   UNL     1       0.844   8.715  21.429  0.00  0.00    +0.000 OA
ATOM     10  N   UNL     1       1.090  10.385  19.900  0.00  0.00    +0.000 N 
ATOM     11  C   UNL     1       1.401  10.897  18.586  0.00  0.00    +0.000 C 
BRANCH  10  12
ATOM     12  C   UNL     1       0.904  11.408  20.935  0.00  0.00    +0.000 C 
BRANCH  12  13
ATOM     13  C   UNL     1      -0.537  11.677  21.328  0.00  0.00    +0.000 A 
ATOM     14  C   UNL     1      -0.919  11.604  22.673  0.00  0.00    +0.000 A 
ATOM     15  C   UNL     1      -2.213  11.953  23.070  0.00  0.00    +0.000 A 
ATOM     16  C   UNL     1      -3.153  12.358  22.123  0.00  0.00    +0.000 A 
ATOM     17  C   UNL     1      -2.797  12.411  20.777  0.00  0.00    +0.000 A 
ATOM     18  C   UNL     1      -1.497  12.073  20.382  0.00  0.00    +0.000 A 
ENDBRANCH  12  13
ENDBRANCH  10  12
ENDBRANCH   7   8
ENDBRANCH   1   7
BRANCH   4  19
ATOM     19  C   UNL     1       4.044   5.047  17.341  0.00  0.00    +0.000 C 
BRANCH  19  20
ATOM     20  C   UNL     1       5.496   4.572  17.116  0.00  0.00    +0.000 C 
ATOM     21  C   UNL     1       5.655   3.809  15.800  0.00  0.00    +0.000 C 
BRANCH  20  22
ATOM     22  N   UNL     1       6.435   5.699  17.166  0.00  0.00    +0.000 N 
ATOM     23  C   UNL     1       6.657   6.608  18.171  0.00  0.00    +0.000 A 
ATOM     24  C   UNL     1       7.650   7.427  17.667  0.00  0.00    +0.000 A 
ATOM     25  N   UNL     1       7.980   7.022  16.412  0.00  0.00    +0.000 NA
ATOM     26  N   UNL     1       7.235   5.959  16.112  0.00  0.00    +0.000 NA
BRANCH  24  27
ATOM     27  C   UNL     1       8.269   8.559  18.271  0.00  0.00    +0.000 C 
ATOM     28  C   UNL     1       8.777   9.503  18.820  0.00  0.00    +0.000 C 
BRANCH  28  29
ATOM     29  C   UNL     1       9.410  10.652  19.496  0.00  0.00    +0.000 C 
BRANCH  29  30
ATOM     30  N   UNL     1      10.645  11.108  18.833  0.00  0.00    +0.000 NA
ATOM     31  C   UNL     1      10.364  11.945  17.665  0.00  0.00    +0.000 C 
ATOM     32  C   UNL     1      11.481  11.862  19.776  0.00  0.00    +0.000 C 
ENDBRANCH  29  30
ENDBRANCH  28  29
ENDBRANCH  24  27
ENDBRANCH  20  22
ENDBRANCH  19  20
ENDBRANCH   4  19
TORSDOF 10
ENDMDL
MODEL 7
REMARK VINA RESULT:      -7.6      4.367      8.854
REMARK  Name = 
REMARK  15 active torsions:
REMARK  status: ('A' for Active; 'I' for Inactive)
REMARK    1  A    between atoms: C_1  and  C_2
REMARK    2  A    between atoms: C_2  and  C_3
REMARK    3  A    between atoms: C_2  and  C_14
REMARK    4  A    between atoms: N_5  and  C_6
REMARK    5  A    between atoms: N_5  and  C_7
REMARK    6  A    between atoms: C_7  and  C_8
REMARK    7  A    between atoms: C_17  and  C_18
REMARK    8  A    between atoms: C_18  and  C_19
REMARK    9  A    between atoms: C_19  and  C_20
REMARK   10  A    between atoms: C_19  and  N_21
REMARK   11  A    between atoms: C_23  and  C_24
REMARK   12  A    between atoms: C_25  and  C_26
REMARK   13  A    between atoms: C_26  and  N_27
REMARK   14  A    between atoms: N_27  and  C_28
REMARK   15  A    between atoms: N_27  and  C_29
REMARK                            x       y       z     vdW  Elec       q    Type
REMARK                         _______ _______ _______ _____ _____    ______ ____
ROOT
ATOM      1  C   UNL     1       2.216   5.328  20.525  0.00  0.00    +0.000 C 
ATOM      2  C   UNL     1       3.292   5.983  19.653  0.00  0.00    +0.000 C 
ATOM      3  C   UNL     1       2.724   7.333  19.282  0.00  0.00    +0.000 C 
ATOM      4  C   UNL     1       1.802   7.668  20.446  0.00  0.00    +0.000 C 
ATOM      5  O   UNL     1       1.410   6.421  21.036  0.00  0.00    +0.000 OA
ENDROOT
BRANCH   1   7
ATOM      6  C   UNL     1       0.917   3.181  20.758  0.00  0.00    +0.000 C 
ATOM      7  C   UNL     1       1.308   4.288  19.777  0.00  0.00    +0.000 C 
BRANCH   7   8
ATOM      8  C   UNL     1       2.003   3.804  18.464  0.00  0.00    +0.000 C 
ATOM      9  O   UNL     1       1.531   4.118  17.365  0.00  0.00    +0.000 OA
ATOM     10  N   UNL     1       3.100   2.938  18.519  0.00  0.00    +0.000 N 
ATOM     11  C   UNL     1       3.712   2.444  19.730  0.00  0.00    +0.000 C 
BRANCH  10  12
ATOM     12  C   UNL     1       3.864   2.687  17.292  0.00  0.00    +0.000 C 
BRANCH  12  13
ATOM     13  C   UNL     1       4.898   3.744  16.946  0.00  0.00    +0.000 A 
ATOM     14  C   UNL     1       4.886   4.344  15.681  0.00  0.00    +0.000 A 
ATOM     15  C   UNL     1       5.758   5.394  15.379  0.00  0.00    +0.000 A 
ATOM     16  C   UNL     1       6.673   5.844  16.331  0.00  0.00    +0.000 A 
ATOM     17  C   UNL     1       6.714   5.241  17.586  0.00  0.00    +0.000 A 
ATOM     18  C   UNL     1       5.833   4.197  17.892  0.00  0.00    +0.000 A 
ENDBRANCH  12  13
ENDBRANCH  10  12
ENDBRANCH   7   8
ENDBRANCH   1   7
BRANCH   4  19
ATOM     19  C   UNL     1       0.563   8.457  19.986  0.00  0.00    +0.000 C 
BRANCH  19  20
ATOM     20  C   UNL     1       0.692   9.995  20.026  0.00  0.00    +0.000 C 
ATOM     21  C   UNL     1       0.216  10.647  18.726  0.00  0.00    +0.000 C 
BRANCH  20  22
ATOM     22  N   UNL     1      -0.035  10.557  21.171  0.00  0.00    +0.000 N 
ATOM     23  C   UNL     1      -1.085  11.440  21.192  0.00  0.00    +0.000 A 
ATOM     24  C   UNL     1      -1.360  11.601  22.537  0.00  0.00    +0.000 A 
ATOM     25  N   UNL     1      -0.492  10.855  23.271  0.00  0.00    +0.000 NA
ATOM     26  N   UNL     1       0.315  10.212  22.428  0.00  0.00    +0.000 NA
BRANCH  24  27
ATOM     27  C   UNL     1      -2.346  12.421  23.157  0.00  0.00    +0.000 C 
ATOM     28  C   UNL     1      -3.175  13.143  23.648  0.00  0.00    +0.000 C 
BRANCH  28  29
ATOM     29  C   UNL     1      -4.201  14.022  24.244  0.00  0.00    +0.000 C 
BRANCH  29  30
ATOM     30  N   UNL     1      -5.396  14.179  23.397  0.00  0.00    +0.000 NA
ATOM     31  C   UNL     1      -6.237  12.981  23.408  0.00  0.00    +0.000 C 
ATOM     32  C   UNL     1      -6.190  15.329  23.844  0.00  0.00    +0.000 C 
ENDBRANCH  29  30
ENDBRANCH  28  29
ENDBRANCH  24  27
ENDBRANCH  20  22
ENDBRANCH  19  20
ENDBRANCH   4  19
TORSDOF 10
ENDMDL
MODEL 8
REMARK VINA RESULT:      -7.6      2.632      4.075
REMARK  Name = 
REMARK  15 active torsions:
REMARK  status: ('A' for Active; 'I' for Inactive)
REMARK    1  A    between atoms: C_1  and  C_2
REMARK    2  A    between atoms: C_2  and  C_3
REMARK    3  A    between atoms: C_2  and  C_14
REMARK    4  A    between atoms: N_5  and  C_6
REMARK    5  A    between atoms: N_5  and  C_7
REMARK    6  A    between atoms: C_7  and  C_8
REMARK    7  A    between atoms: C_17  and  C_18
REMARK    8  A    between atoms: C_18  and  C_19
REMARK    9  A    between atoms: C_19  and  C_20
REMARK   10  A    between atoms: C_19  and  N_21
REMARK   11  A    between atoms: C_23  and  C_24
REMARK   12  A    between atoms: C_25  and  C_26
REMARK   13  A    between atoms: C_26  and  N_27
REMARK   14  A    between atoms: N_27  and  C_28
REMARK   15  A    between atoms: N_27  and  C_29
REMARK                            x       y       z     vdW  Elec       q    Type
REMARK                         _______ _______ _______ _____ _____    ______ ____
ROOT
ATOM      1  C   UNL     1       2.263   7.402  19.913  0.00  0.00    +0.000 C 
ATOM      2  C   UNL     1       1.619   6.124  20.461  0.00  0.00    +0.000 C 
ATOM      3  C   UNL     1       2.066   5.030  19.519  0.00  0.00    +0.000 C 
ATOM      4  C   UNL     1       3.404   5.530  18.994  0.00  0.00    +0.000 C 
ATOM      5  O   UNL     1       3.385   6.960  19.107  0.00  0.00    +0.000 OA
ENDROOT
BRANCH   1   7
ATOM      6  C   UNL     1       1.660   8.140  17.580  0.00  0.00    +0.000 C 
ATOM      7  C   UNL     1       1.303   8.305  19.059  0.00  0.00    +0.000 C 
BRANCH   7   8
ATOM      8  C   UNL     1       1.320   9.773  19.592  0.00  0.00    +0.000 C 
ATOM      9  O   UNL     1       1.979  10.636  19.000  0.00  0.00    +0.000 OA
ATOM     10  N   UNL     1       0.674  10.101  20.788  0.00  0.00    +0.000 N 
ATOM     11  C   UNL     1      -0.078   9.181  21.609  0.00  0.00    +0.000 C 
BRANCH  10  12
ATOM     12  C   UNL     1       0.514  11.517  21.140  0.00  0.00    +0.000 C 
BRANCH  12  13
ATOM     13  C   UNL     1      -0.892  11.931  21.537  0.00  0.00    +0.000 A 
ATOM     14  C   UNL     1      -1.817  12.295  20.550  0.00  0.00    +0.000 A 
ATOM     15  C   UNL     1      -3.146  12.575  20.883  0.00  0.00    +0.000 A 
ATOM     16  C   UNL     1      -3.563  12.518  22.213  0.00  0.00    +0.000 A 
ATOM     17  C   UNL     1      -2.649  12.182  23.209  0.00  0.00    +0.000 A 
ATOM     18  C   UNL     1      -1.322  11.891  22.873  0.00  0.00    +0.000 A 
ENDBRANCH  12  13
ENDBRANCH  10  12
ENDBRANCH   7   8
ENDBRANCH   1   7
BRANCH   4  19
ATOM     19  C   UNL     1       3.637   5.111  17.531  0.00  0.00    +0.000 C 
BRANCH  19  20
ATOM     20  C   UNL     1       5.049   4.581  17.200  0.00  0.00    +0.000 C 
ATOM     21  C   UNL     1       5.224   4.303  15.706  0.00  0.00    +0.000 C 
BRANCH  20  22
ATOM     22  N   UNL     1       6.085   5.509  17.668  0.00  0.00    +0.000 N 
ATOM     23  C   UNL     1       6.306   6.820  17.325  0.00  0.00    +0.000 A 
ATOM     24  C   UNL     1       7.404   7.183  18.080  0.00  0.00    +0.000 A 
ATOM     25  N   UNL     1       7.820   6.120  18.819  0.00  0.00    +0.000 NA
ATOM     26  N   UNL     1       7.004   5.098  18.567  0.00  0.00    +0.000 NA
BRANCH  24  27
ATOM     27  C   UNL     1       8.090   8.431  18.120  0.00  0.00    +0.000 C 
ATOM     28  C   UNL     1       8.634   9.506  18.136  0.00  0.00    +0.000 C 
BRANCH  28  29
ATOM     29  C   UNL     1       9.296  10.825  18.168  0.00  0.00    +0.000 C 
BRANCH  29  30
ATOM     30  N   UNL     1      10.329  10.933  19.213  0.00  0.00    +0.000 NA
ATOM     31  C   UNL     1      11.519  11.639  18.737  0.00  0.00    +0.000 C 
ATOM     32  C   UNL     1       9.794  11.629  20.388  0.00  0.00    +0.000 C 
ENDBRANCH  29  30
ENDBRANCH  28  29
ENDBRANCH  24  27
ENDBRANCH  20  22
ENDBRANCH  19  20
ENDBRANCH   4  19
TORSDOF 10
ENDMDL
MODEL 9
REMARK VINA RESULT:      -7.5      2.322      3.653
REMARK  Name = 
REMARK  15 active torsions:
REMARK  status: ('A' for Active; 'I' for Inactive)
REMARK    1  A    between atoms: C_1  and  C_2
REMARK    2  A    between atoms: C_2  and  C_3
REMARK    3  A    between atoms: C_2  and  C_14
REMARK    4  A    between atoms: N_5  and  C_6
REMARK    5  A    between atoms: N_5  and  C_7
REMARK    6  A    between atoms: C_7  and  C_8
REMARK    7  A    between atoms: C_17  and  C_18
REMARK    8  A    between atoms: C_18  and  C_19
REMARK    9  A    between atoms: C_19  and  C_20
REMARK   10  A    between atoms: C_19  and  N_21
REMARK   11  A    between atoms: C_23  and  C_24
REMARK   12  A    between atoms: C_25  and  C_26
REMARK   13  A    between atoms: C_26  and  N_27
REMARK   14  A    between atoms: N_27  and  C_28
REMARK   15  A    between atoms: N_27  and  C_29
REMARK                            x       y       z     vdW  Elec       q    Type
REMARK                         _______ _______ _______ _____ _____    ______ ____
ROOT
ATOM      1  C   UNL     1       2.311   6.607  20.136  0.00  0.00    +0.000 C 
ATOM      2  C   UNL     1       1.438   5.348  20.135  0.00  0.00    +0.000 C 
ATOM      3  C   UNL     1       1.968   4.508  18.996  0.00  0.00    +0.000 C 
ATOM      4  C   UNL     1       3.433   4.913  18.902  0.00  0.00    +0.000 C 
ATOM      5  O   UNL     1       3.533   6.235  19.449  0.00  0.00    +0.000 OA
ENDROOT
BRANCH   1   7
ATOM      6  C   UNL     1       2.528   8.272  18.257  0.00  0.00    +0.000 C 
ATOM      7  C   UNL     1       1.660   7.858  19.447  0.00  0.00    +0.000 C 
BRANCH   7   8
ATOM      8  C   UNL     1       1.389   8.980  20.500  0.00  0.00    +0.000 C 
ATOM      9  O   UNL     1       1.432   8.716  21.707  0.00  0.00    +0.000 OA
ATOM     10  N   UNL     1       1.002  10.260  20.090  0.00  0.00    +0.000 N 
ATOM     11  C   UNL     1       0.853  10.686  18.718  0.00  0.00    +0.000 C 
BRANCH  10  12
ATOM     12  C   UNL     1       0.978  11.342  21.080  0.00  0.00    +0.000 C 
BRANCH  12  13
ATOM     13  C   UNL     1      -0.405  11.801  21.505  0.00  0.00    +0.000 A 
ATOM     14  C   UNL     1      -1.223  12.486  20.598  0.00  0.00    +0.000 A 
ATOM     15  C   UNL     1      -2.538  12.821  20.933  0.00  0.00    +0.000 A 
ATOM     16  C   UNL     1      -3.048  12.497  22.190  0.00  0.00    +0.000 A 
ATOM     17  C   UNL     1      -2.239  11.838  23.113  0.00  0.00    +0.000 A 
ATOM     18  C   UNL     1      -0.925  11.492  22.773  0.00  0.00    +0.000 A 
ENDBRANCH  12  13
ENDBRANCH  10  12
ENDBRANCH   7   8
ENDBRANCH   1   7
BRANCH   4  19
ATOM     19  C   UNL     1       3.939   4.894  17.449  0.00  0.00    +0.000 C 
BRANCH  19  20
ATOM     20  C   UNL     1       5.396   4.422  17.250  0.00  0.00    +0.000 C 
ATOM     21  C   UNL     1       5.555   3.553  16.000  0.00  0.00    +0.000 C 
BRANCH  20  22
ATOM     22  N   UNL     1       6.318   5.562  17.195  0.00  0.00    +0.000 N 
ATOM     23  C   UNL     1       6.607   6.500  18.155  0.00  0.00    +0.000 A 
ATOM     24  C   UNL     1       7.544   7.318  17.552  0.00  0.00    +0.000 A 
ATOM     25  N   UNL     1       7.777   6.885  16.284  0.00  0.00    +0.000 NA
ATOM     26  N   UNL     1       7.027   5.805  16.073  0.00  0.00    +0.000 NA
BRANCH  24  27
ATOM     27  C   UNL     1       8.191   8.474  18.075  0.00  0.00    +0.000 C 
ATOM     28  C   UNL     1       8.723   9.441  18.557  0.00  0.00    +0.000 C 
BRANCH  28  29
ATOM     29  C   UNL     1       9.384  10.621  19.150  0.00  0.00    +0.000 C 
BRANCH  29  30
ATOM     30  N   UNL     1       9.154  11.861  18.389  0.00  0.00    +0.000 NA
ATOM     31  C   UNL     1       8.041  11.729  17.448  0.00  0.00    +0.000 C 
ATOM     32  C   UNL     1       8.883  12.977  19.303  0.00  0.00    +0.000 C 
ENDBRANCH  29  30
ENDBRANCH  28  29
ENDBRANCH  24  27
ENDBRANCH  20  22
ENDBRANCH  19  20
ENDBRANCH   4  19
TORSDOF 10
ENDMDL
