MODEL 1
REMARK VINA RESULT:      -6.9      0.000      0.000
REMARK  Name = 
REMARK  12 active torsions:
REMARK  status: ('A' for Active; 'I' for Inactive)
REMARK    1  A    between atoms: C_1  and  C_2
REMARK    2  A    between atoms: C_2  and  C_3
REMARK    3  A    between atoms: C_3  and  N_4
REMARK    4  A    between atoms: N_7  and  C_8
REMARK    5  A    between atoms: C_12  and  S_13
REMARK    6  A    between atoms: S_13  and  C_14
REMARK    7  A    between atoms: C_14  and  C_15
REMARK    8  A    between atoms: C_20  and  C_21
REMARK    9  A    between atoms: C_25  and  C_26
REMARK   10  A    between atoms: C_26  and  C_27
REMARK   11  A    between atoms: C_26  and  C_28
REMARK   12  A    between atoms: C_26  and  C_29
REMARK                            x       y       z     vdW  Elec       q    Type
REMARK                         _______ _______ _______ _____ _____    ______ ____
ROOT
ATOM      1  N   UNL     1      -5.238  11.883  18.468  0.00  0.00    +0.000 N 
ATOM      2  C   UNL     1      -4.402  11.514  17.430  0.00  0.00    +0.000 A 
ATOM      3  O   UNL     1      -4.839  11.121  16.350  0.00  0.00    +0.000 OA
ATOM      4  N   UNL     1      -3.040  11.595  17.684  0.00  0.00    +0.000 N 
ATOM      5  C   UNL     1      -2.117  11.192  16.634  0.00  0.00    +0.000 C 
ATOM      6  C   UNL     1      -2.475  11.967  18.902  0.00  0.00    +0.000 A 
ATOM      7  O   UNL     1      -1.263  11.918  19.094  0.00  0.00    +0.000 OA
ATOM      8  C   UNL     1      -3.396  12.388  19.967  0.00  0.00    +0.000 A 
ATOM      9  C   UNL     1      -3.038  12.847  21.230  0.00  0.00    +0.000 A 
ATOM     10  N   UNL     1      -3.958  13.214  22.151  0.00  0.00    +0.000 NA
ATOM     11  C   UNL     1      -5.253  13.073  21.849  0.00  0.00    +0.000 A 
ATOM     12  N   UNL     1      -5.666  12.633  20.656  0.00  0.00    +0.000 NA
ATOM     13  C   UNL     1      -4.748  12.310  19.723  0.00  0.00    +0.000 A 
ENDROOT
BRANCH  11  14
ATOM     14  C   UNL     1      -6.310  13.491  22.868  0.00  0.00    +0.000 C 
ATOM     15  C   UNL     1      -6.319  15.024  22.995  0.00  0.00    +0.000 C 
ATOM     16  C   UNL     1      -7.709  13.021  22.420  0.00  0.00    +0.000 C 
ATOM     17  C   UNL     1      -6.014  12.871  24.245  0.00  0.00    +0.000 C 
ENDBRANCH  11  14
BRANCH   1  18
ATOM     18  C   UNL     1      -6.694  11.780  18.291  0.00  0.00    +0.000 C 
BRANCH  18  20
ATOM     19  C   UNL     1      -7.891  13.991  18.430  0.00  0.00    +0.000 C 
ATOM     20  C   UNL     1      -7.306  12.942  17.499  0.00  0.00    +0.000 C 
ENDBRANCH  18  20
ENDBRANCH   1  18
BRANCH   9  21
ATOM     21  S   UNL     1      -1.348  13.061  21.793  0.00  0.00    +0.000 S 
BRANCH  21  22
ATOM     22  C   UNL     1      -1.233  11.797  23.110  0.00  0.00    +0.000 C 
BRANCH  22  23
ATOM     23  C   UNL     1      -0.378  10.592  22.733  0.00  0.00    +0.000 C 
ATOM     24  O   UNL     1      -0.028   9.797  23.598  0.00  0.00    +0.000 OA
ATOM     25  N   UNL     1       0.034  10.584  21.412  0.00  0.00    +0.000 N 
ATOM     26  C   UNL     1       0.727   9.549  20.818  0.00  0.00    +0.000 A 
ATOM     27  C   UNL     1       1.242   9.605  19.499  0.00  0.00    +0.000 A 
ATOM     28  C   UNL     1       1.798   8.368  19.288  0.00  0.00    +0.000 A 
ATOM     29  C   UNL     1       2.481   7.720  18.156  0.00  0.00    +0.000 C 
ATOM     30  O   UNL     1       1.639   7.617  20.407  0.00  0.00    +0.000 OA
ATOM     31  N   UNL     1       0.976   8.356  21.364  0.00  0.00    +0.000 NA
ATOM     32  H   UNL     1      -0.202  11.376  20.830  0.00  0.00    +0.000 HD
ENDBRANCH  22  23
ENDBRANCH  21  22
ENDBRANCH   9  21
TORSDOF 6
ENDMDL
MODEL 2
REMARK VINA RESULT:      -6.8      2.375      3.379
REMARK  Name = 
REMARK  12 active torsions:
REMARK  status: ('A' for Active; 'I' for Inactive)
REMARK    1  A    between atoms: C_1  and  C_2
REMARK    2  A    between atoms: C_2  and  C_3
REMARK    3  A    between atoms: C_3  and  N_4
REMARK    4  A    between atoms: N_7  and  C_8
REMARK    5  A    between atoms: C_12  and  S_13
REMARK    6  A    between atoms: S_13  and  C_14
REMARK    7  A    between atoms: C_14  and  C_15
REMARK    8  A    between atoms: C_20  and  C_21
REMARK    9  A    between atoms: C_25  and  C_26
REMARK   10  A    between atoms: C_26  and  C_27
REMARK   11  A    between atoms: C_26  and  C_28
REMARK   12  A    between atoms: C_26  and  C_29
REMARK                            x       y       z     vdW  Elec       q    Type
REMARK                         _______ _______ _______ _____ _____    ______ ____
ROOT
ATOM      1  N   UNL     1      -4.041  11.988  18.505  0.00  0.00    +0.000 N 
ATOM      2  C   UNL     1      -3.890  11.386  17.270  0.00  0.00    +0.000 A 
ATOM      3  O   UNL     1      -4.809  11.332  16.455  0.00  0.00    +0.000 OA
ATOM      4  N   UNL     1      -2.646  10.829  17.009  0.00  0.00    +0.000 N 
ATOM      5  C   UNL     1      -2.443  10.159  15.734  0.00  0.00    +0.000 C 
ATOM      6  C   UNL     1      -1.582  10.795  17.908  0.00  0.00    +0.000 A 
ATOM      7  O   UNL     1      -0.541  10.195  17.654  0.00  0.00    +0.000 OA
ATOM      8  C   UNL     1      -1.770  11.478  19.195  0.00  0.00    +0.000 A 
ATOM      9  C   UNL     1      -0.821  11.609  20.204  0.00  0.00    +0.000 A 
ATOM     10  N   UNL     1      -1.083  12.258  21.361  0.00  0.00    +0.000 NA
ATOM     11  C   UNL     1      -2.317  12.735  21.558  0.00  0.00    +0.000 A 
ATOM     12  N   UNL     1      -3.277  12.640  20.633  0.00  0.00    +0.000 NA
ATOM     13  C   UNL     1      -3.002  12.032  19.461  0.00  0.00    +0.000 A 
ENDROOT
BRANCH  11  14
ATOM     14  C   UNL     1      -2.634  13.481  22.851  0.00  0.00    +0.000 C 
ATOM     15  C   UNL     1      -3.485  14.722  22.530  0.00  0.00    +0.000 C 
ATOM     16  C   UNL     1      -3.422  12.574  23.820  0.00  0.00    +0.000 C 
ATOM     17  C   UNL     1      -1.339  13.924  23.555  0.00  0.00    +0.000 C 
ENDBRANCH  11  14
BRANCH   1  18
ATOM     18  C   UNL     1      -5.345  12.559  18.873  0.00  0.00    +0.000 C 
BRANCH  18  20
ATOM     19  C   UNL     1      -7.014  10.679  19.029  0.00  0.00    +0.000 C 
ATOM     20  C   UNL     1      -6.168  11.670  19.813  0.00  0.00    +0.000 C 
ENDBRANCH  18  20
ENDBRANCH   1  18
BRANCH   9  21
ATOM     21  S   UNL     1       0.862  10.995  20.102  0.00  0.00    +0.000 S 
BRANCH  21  22
ATOM     22  C   UNL     1       0.698   9.336  20.853  0.00  0.00    +0.000 C 
BRANCH  22  23
ATOM     23  C   UNL     1       1.496   8.254  20.134  0.00  0.00    +0.000 C 
ATOM     24  O   UNL     1       1.985   8.485  19.033  0.00  0.00    +0.000 OA
ATOM     25  N   UNL     1       1.482   7.026  20.771  0.00  0.00    +0.000 N 
ATOM     26  C   UNL     1       2.213   5.928  20.364  0.00  0.00    +0.000 A 
ATOM     27  C   UNL     1       2.100   4.646  20.958  0.00  0.00    +0.000 A 
ATOM     28  C   UNL     1       3.028   3.875  20.304  0.00  0.00    +0.000 A 
ATOM     29  C   UNL     1       3.470   2.475  20.410  0.00  0.00    +0.000 C 
ATOM     30  O   UNL     1       3.654   4.636  19.370  0.00  0.00    +0.000 OA
ATOM     31  N   UNL     1       3.140   5.915  19.403  0.00  0.00    +0.000 NA
ATOM     32  H   UNL     1       0.919   6.922  21.604  0.00  0.00    +0.000 HD
ENDBRANCH  22  23
ENDBRANCH  21  22
ENDBRANCH   9  21
TORSDOF 6
ENDMDL
MODEL 3
REMARK VINA RESULT:      -6.7      2.554      4.980
REMARK  Name = 
REMARK  12 active torsions:
REMARK  status: ('A' for Active; 'I' for Inactive)
REMARK    1  A    between atoms: C_1  and  C_2
REMARK    2  A    between atoms: C_2  and  C_3
REMARK    3  A    between atoms: C_3  and  N_4
REMARK    4  A    between atoms: N_7  and  C_8
REMARK    5  A    between atoms: C_12  and  S_13
REMARK    6  A    between atoms: S_13  and  C_14
REMARK    7  A    between atoms: C_14  and  C_15
REMARK    8  A    between atoms: C_20  and  C_21
REMARK    9  A    between atoms: C_25  and  C_26
REMARK   10  A    between atoms: C_26  and  C_27
REMARK   11  A    between atoms: C_26  and  C_28
REMARK   12  A    between atoms: C_26  and  C_29
REMARK                            x       y       z     vdW  Elec       q    Type
REMARK                         _______ _______ _______ _____ _____    ______ ____
ROOT
ATOM      1  N   UNL     1      -3.808  13.447  21.375  0.00  0.00    +0.000 N 
ATOM      2  C   UNL     1      -3.333  14.034  22.533  0.00  0.00    +0.000 A 
ATOM      3  O   UNL     1      -4.068  14.659  23.296  0.00  0.00    +0.000 OA
ATOM      4  N   UNL     1      -1.974  13.892  22.777  0.00  0.00    +0.000 N 
ATOM      5  C   UNL     1      -1.419  14.515  23.969  0.00  0.00    +0.000 C 
ATOM      6  C   UNL     1      -1.072  13.256  21.927  0.00  0.00    +0.000 A 
ATOM      7  O   UNL     1       0.135  13.256  22.151  0.00  0.00    +0.000 OA
ATOM      8  C   UNL     1      -1.622  12.613  20.726  0.00  0.00    +0.000 A 
ATOM      9  C   UNL     1      -0.907  11.883  19.783  0.00  0.00    +0.000 A 
ATOM     10  N   UNL     1      -1.499  11.325  18.703  0.00  0.00    +0.000 NA
ATOM     11  C   UNL     1      -2.806  11.536  18.513  0.00  0.00    +0.000 A 
ATOM     12  N   UNL     1      -3.552  12.231  19.378  0.00  0.00    +0.000 NA
ATOM     13  C   UNL     1      -2.969  12.750  20.477  0.00  0.00    +0.000 A 
ENDROOT
BRANCH  11  14
ATOM     14  C   UNL     1      -3.499  10.906  17.308  0.00  0.00    +0.000 C 
ATOM     15  C   UNL     1      -3.691   9.400  17.558  0.00  0.00    +0.000 C 
ATOM     16  C   UNL     1      -4.882  11.553  17.080  0.00  0.00    +0.000 C 
ATOM     17  C   UNL     1      -2.661  11.104  16.033  0.00  0.00    +0.000 C 
ENDBRANCH  11  14
BRANCH   1  18
ATOM     18  C   UNL     1      -5.229  13.594  21.024  0.00  0.00    +0.000 C 
BRANCH  18  20
ATOM     19  C   UNL     1      -6.803  11.662  20.657  0.00  0.00    +0.000 C 
ATOM     20  C   UNL     1      -6.142  12.558  21.692  0.00  0.00    +0.000 C 
ENDBRANCH  18  20
ENDBRANCH   1  18
BRANCH   9  21
ATOM     21  S   UNL     1       0.852  11.543  19.881  0.00  0.00    +0.000 S 
BRANCH  21  22
ATOM     22  C   UNL     1       1.075  10.344  18.518  0.00  0.00    +0.000 C 
BRANCH  22  23
ATOM     23  C   UNL     1       1.612   8.991  18.971  0.00  0.00    +0.000 C 
ATOM     24  O   UNL     1       1.381   8.592  20.108  0.00  0.00    +0.000 OA
ATOM     25  N   UNL     1       2.444   8.378  18.052  0.00  0.00    +0.000 N 
ATOM     26  C   UNL     1       2.965   7.108  18.197  0.00  0.00    +0.000 A 
ATOM     27  C   UNL     1       3.907   6.540  17.303  0.00  0.00    +0.000 A 
ATOM     28  C   UNL     1       4.110   5.266  17.773  0.00  0.00    +0.000 A 
ATOM     29  C   UNL     1       4.926   4.121  17.339  0.00  0.00    +0.000 C 
ATOM     30  O   UNL     1       3.350   5.080  18.882  0.00  0.00    +0.000 OA
ATOM     31  N   UNL     1       2.640   6.231  19.150  0.00  0.00    +0.000 NA
ATOM     32  H   UNL     1       2.674   8.877  17.204  0.00  0.00    +0.000 HD
ENDBRANCH  22  23
ENDBRANCH  21  22
ENDBRANCH   9  21
TORSDOF 6
ENDMDL
MODEL 4
REMARK VINA RESULT:      -6.6      2.162      3.551
REMARK  Name = 
REMARK  12 active torsions:
REMARK  status: ('A' for Active; 'I' for Inactive)
REMARK    1  A    between atoms: C_1  and  C_2
REMARK    2  A    between atoms: C_2  and  C_3
REMARK    3  A    between atoms: C_3  and  N_4
REMARK    4  A    between atoms: N_7  and  C_8
REMARK    5  A    between atoms: C_12  and  S_13
REMARK    6  A    between atoms: S_13  and  C_14
REMARK    7  A    between atoms: C_14  and  C_15
REMARK    8  A    between atoms: C_20  and  C_21
REMARK    9  A    between atoms: C_25  and  C_26
REMARK   10  A    between atoms: C_26  and  C_27
REMARK   11  A    between atoms: C_26  and  C_28
REMARK   12  A    between atoms: C_26  and  C_29
REMARK                            x       y       z     vdW  Elec       q    Type
REMARK                         _______ _______ _______ _____ _____    ______ ____
ROOT
ATOM      1  N   UNL     1      -4.008  11.819  18.262  0.00  0.00    +0.000 N 
ATOM      2  C   UNL     1      -4.024  11.205  17.024  0.00  0.00    +0.000 A 
ATOM      3  O   UNL     1      -5.006  11.252  16.285  0.00  0.00    +0.000 OA
ATOM      4  N   UNL     1      -2.872  10.515  16.669  0.00  0.00    +0.000 N 
ATOM      5  C   UNL     1      -2.848   9.828  15.388  0.00  0.00    +0.000 C 
ATOM      6  C   UNL     1      -1.750  10.365  17.480  0.00  0.00    +0.000 A 
ATOM      7  O   UNL     1      -0.805   9.654  17.149  0.00  0.00    +0.000 OA
ATOM      8  C   UNL     1      -1.758  11.064  18.773  0.00  0.00    +0.000 A 
ATOM      9  C   UNL     1      -0.722  11.090  19.701  0.00  0.00    +0.000 A 
ATOM     10  N   UNL     1      -0.819  11.762  20.869  0.00  0.00    +0.000 NA
ATOM     11  C   UNL     1      -1.973  12.372  21.160  0.00  0.00    +0.000 A 
ATOM     12  N   UNL     1      -3.009  12.383  20.316  0.00  0.00    +0.000 NA
ATOM     13  C   UNL     1      -2.897  11.749  19.131  0.00  0.00    +0.000 A 
ENDROOT
BRANCH  11  14
ATOM     14  C   UNL     1      -2.102  13.148  22.469  0.00  0.00    +0.000 C 
ATOM     15  C   UNL     1      -2.354  12.164  23.624  0.00  0.00    +0.000 C 
ATOM     16  C   UNL     1      -0.807  13.936  22.760  0.00  0.00    +0.000 C 
ATOM     17  C   UNL     1      -3.267  14.150  22.394  0.00  0.00    +0.000 C 
ENDBRANCH  11  14
BRANCH   1  18
ATOM     18  C   UNL     1      -5.209  12.529  18.729  0.00  0.00    +0.000 C 
BRANCH  18  20
ATOM     19  C   UNL     1      -6.659  12.236  20.767  0.00  0.00    +0.000 C 
ATOM     20  C   UNL     1      -6.223  11.628  19.443  0.00  0.00    +0.000 C 
ENDBRANCH  18  20
ENDBRANCH   1  18
BRANCH   9  21
ATOM     21  S   UNL     1       0.870  10.295  19.470  0.00  0.00    +0.000 S 
BRANCH  21  22
ATOM     22  C   UNL     1       0.862   9.051  20.810  0.00  0.00    +0.000 C 
BRANCH  22  23
ATOM     23  C   UNL     1       1.505   7.725  20.421  0.00  0.00    +0.000 C 
ATOM     24  O   UNL     1       1.380   6.748  21.152  0.00  0.00    +0.000 OA
ATOM     25  N   UNL     1       2.303   7.794  19.294  0.00  0.00    +0.000 N 
ATOM     26  C   UNL     1       2.904   6.705  18.696  0.00  0.00    +0.000 A 
ATOM     27  C   UNL     1       3.810   6.806  17.611  0.00  0.00    +0.000 A 
ATOM     28  C   UNL     1       4.118   5.507  17.290  0.00  0.00    +0.000 A 
ATOM     29  C   UNL     1       4.965   4.866  16.271  0.00  0.00    +0.000 C 
ATOM     30  O   UNL     1       3.451   4.676  18.131  0.00  0.00    +0.000 OA
ATOM     31  N   UNL     1       2.699   5.424  19.012  0.00  0.00    +0.000 NA
ATOM     32  H   UNL     1       2.444   8.695  18.858  0.00  0.00    +0.000 HD
ENDBRANCH  22  23
ENDBRANCH  21  22
ENDBRANCH   9  21
TORSDOF 6
ENDMDL
MODEL 5
REMARK VINA RESULT:      -6.5      2.201      3.244
REMARK  Name = 
REMARK  12 active torsions:
REMARK  status: ('A' for Active; 'I' for Inactive)
REMARK    1  A    between atoms: C_1  and  C_2
REMARK    2  A    between atoms: C_2  and  C_3
REMARK    3  A    between atoms: C_3  and  N_4
REMARK    4  A    between atoms: N_7  and  C_8
REMARK    5  A    between atoms: C_12  and  S_13
REMARK    6  A    between atoms: S_13  and  C_14
REMARK    7  A    between atoms: C_14  and  C_15
REMARK    8  A    between atoms: C_20  and  C_21
REMARK    9  A    between atoms: C_25  and  C_26
REMARK   10  A    between atoms: C_26  and  C_27
REMARK   11  A    between atoms: C_26  and  C_28
REMARK   12  A    between atoms: C_26  and  C_29
REMARK                            x       y       z     vdW  Elec       q    Type
REMARK                         _______ _______ _______ _____ _____    ______ ____
ROOT
ATOM      1  N   UNL     1      -4.776  12.260  18.887  0.00  0.00    +0.000 N 
ATOM      2  C   UNL     1      -4.809  11.775  17.593  0.00  0.00    +0.000 A 
ATOM      3  O   UNL     1      -5.859  11.678  16.960  0.00  0.00    +0.000 OA
ATOM      4  N   UNL     1      -3.590  11.386  17.054  0.00  0.00    +0.000 N 
ATOM      5  C   UNL     1      -3.574  10.844  15.705  0.00  0.00    +0.000 C 
ATOM      6  C   UNL     1      -2.374  11.406  17.734  0.00  0.00    +0.000 A 
ATOM      7  O   UNL     1      -1.349  10.951  17.236  0.00  0.00    +0.000 OA
ATOM      8  C   UNL     1      -2.375  11.963  19.094  0.00  0.00    +0.000 A 
ATOM      9  C   UNL     1      -1.266  12.125  19.917  0.00  0.00    +0.000 A 
ATOM     10  N   UNL     1      -1.362  12.648  21.160  0.00  0.00    +0.000 NA
ATOM     11  C   UNL     1      -2.575  12.964  21.627  0.00  0.00    +0.000 A 
ATOM     12  N   UNL     1      -3.682  12.831  20.890  0.00  0.00    +0.000 NA
ATOM     13  C   UNL     1      -3.581  12.350  19.634  0.00  0.00    +0.000 A 
ENDROOT
BRANCH  11  14
ATOM     14  C   UNL     1      -2.707  13.568  23.022  0.00  0.00    +0.000 C 
ATOM     15  C   UNL     1      -3.526  14.868  22.942  0.00  0.00    +0.000 C 
ATOM     16  C   UNL     1      -3.424  12.586  23.972  0.00  0.00    +0.000 C 
ATOM     17  C   UNL     1      -1.321  13.880  23.614  0.00  0.00    +0.000 C 
ENDBRANCH  11  14
BRANCH   1  18
ATOM     18  C   UNL     1      -6.034  12.647  19.543  0.00  0.00    +0.000 C 
BRANCH  18  20
ATOM     19  C   UNL     1      -7.242  10.470  19.922  0.00  0.00    +0.000 C 
ATOM     20  C   UNL     1      -6.527  11.636  20.585  0.00  0.00    +0.000 C 
ENDBRANCH  18  20
ENDBRANCH   1  18
BRANCH   9  21
ATOM     21  S   UNL     1       0.417  11.718  19.448  0.00  0.00    +0.000 S 
BRANCH  21  22
ATOM     22  C   UNL     1       0.562   9.995  20.043  0.00  0.00    +0.000 C 
BRANCH  22  23
ATOM     23  C   UNL     1       1.376   9.093  19.123  0.00  0.00    +0.000 C 
ATOM     24  O   UNL     1       1.487   9.374  17.934  0.00  0.00    +0.000 OA
ATOM     25  N   UNL     1       1.826   7.931  19.724  0.00  0.00    +0.000 N 
ATOM     26  C   UNL     1       2.663   7.014  19.122  0.00  0.00    +0.000 A 
ATOM     27  C   UNL     1       3.022   5.775  19.709  0.00  0.00    +0.000 A 
ATOM     28  C   UNL     1       3.901   5.209  18.819  0.00  0.00    +0.000 A 
ATOM     29  C   UNL     1       4.676   3.958  18.784  0.00  0.00    +0.000 C 
ATOM     30  O   UNL     1       4.056   6.044  17.761  0.00  0.00    +0.000 OA
ATOM     31  N   UNL     1       3.279   7.168  17.947  0.00  0.00    +0.000 NA
ATOM     32  H   UNL     1       1.545   7.743  20.677  0.00  0.00    +0.000 HD
ENDBRANCH  22  23
ENDBRANCH  21  22
ENDBRANCH   9  21
TORSDOF 6
ENDMDL
MODEL 6
REMARK VINA RESULT:      -6.5      2.225      3.050
REMARK  Name = 
REMARK  12 active torsions:
REMARK  status: ('A' for Active; 'I' for Inactive)
REMARK    1  A    between atoms: C_1  and  C_2
REMARK    2  A    between atoms: C_2  and  C_3
REMARK    3  A    between atoms: C_3  and  N_4
REMARK    4  A    between atoms: N_7  and  C_8
REMARK    5  A    between atoms: C_12  and  S_13
REMARK    6  A    between atoms: S_13  and  C_14
REMARK    7  A    between atoms: C_14  and  C_15
REMARK    8  A    between atoms: C_20  and  C_21
REMARK    9  A    between atoms: C_25  and  C_26
REMARK   10  A    between atoms: C_26  and  C_27
REMARK   11  A    between atoms: C_26  and  C_28
REMARK   12  A    between atoms: C_26  and  C_29
REMARK                            x       y       z     vdW  Elec       q    Type
REMARK                         _______ _______ _______ _____ _____    ______ ____
ROOT
ATOM      1  N   UNL     1      -4.348  11.994  18.834  0.00  0.00    +0.000 N 
ATOM      2  C   UNL     1      -4.196  11.436  17.578  0.00  0.00    +0.000 A 
ATOM      3  O   UNL     1      -5.141  11.318  16.799  0.00  0.00    +0.000 OA
ATOM      4  N   UNL     1      -2.919  11.001  17.254  0.00  0.00    +0.000 N 
ATOM      5  C   UNL     1      -2.712  10.381  15.954  0.00  0.00    +0.000 C 
ATOM      6  C   UNL     1      -1.820  11.043  18.108  0.00  0.00    +0.000 A 
ATOM      7  O   UNL     1      -0.741  10.545  17.797  0.00  0.00    +0.000 OA
ATOM      8  C   UNL     1      -2.014  11.677  19.419  0.00  0.00    +0.000 A 
ATOM      9  C   UNL     1      -1.039  11.870  20.392  0.00  0.00    +0.000 A 
ATOM     10  N   UNL     1      -1.309  12.466  21.575  0.00  0.00    +0.000 NA
ATOM     11  C   UNL     1      -2.571  12.825  21.834  0.00  0.00    +0.000 A 
ATOM     12  N   UNL     1      -3.557  12.664  20.946  0.00  0.00    +0.000 NA
ATOM     13  C   UNL     1      -3.278  12.111  19.748  0.00  0.00    +0.000 A 
ENDROOT
BRANCH  11  14
ATOM     14  C   UNL     1      -2.899  13.510  23.158  0.00  0.00    +0.000 C 
ATOM     15  C   UNL     1      -1.597  13.992  23.820  0.00  0.00    +0.000 C 
ATOM     16  C   UNL     1      -3.819  14.727  22.924  0.00  0.00    +0.000 C 
ATOM     17  C   UNL     1      -3.621  12.539  24.108  0.00  0.00    +0.000 C 
ENDBRANCH  11  14
BRANCH   1  18
ATOM     18  C   UNL     1      -5.682  12.436  19.269  0.00  0.00    +0.000 C 
BRANCH  18  20
ATOM     19  C   UNL     1      -6.790  14.564  20.037  0.00  0.00    +0.000 C 
ATOM     20  C   UNL     1      -5.992  13.899  18.927  0.00  0.00    +0.000 C 
ENDBRANCH  18  20
ENDBRANCH   1  18
BRANCH   9  21
ATOM     21  S   UNL     1       0.687  11.414  20.207  0.00  0.00    +0.000 S 
BRANCH  21  22
ATOM     22  C   UNL     1       0.723   9.767  21.001  0.00  0.00    +0.000 C 
BRANCH  22  23
ATOM     23  C   UNL     1       1.396   8.691  20.156  0.00  0.00    +0.000 C 
ATOM     24  O   UNL     1       1.723   8.938  19.000  0.00  0.00    +0.000 OA
ATOM     25  N   UNL     1       1.462   7.453  20.769  0.00  0.00    +0.000 N 
ATOM     26  C   UNL     1       2.114   6.356  20.242  0.00  0.00    +0.000 A 
ATOM     27  C   UNL     1       2.076   5.065  20.826  0.00  0.00    +0.000 A 
ATOM     28  C   UNL     1       2.891   4.298  20.031  0.00  0.00    +0.000 A 
ATOM     29  C   UNL     1       3.328   2.892  20.049  0.00  0.00    +0.000 C 
ATOM     30  O   UNL     1       3.382   5.070  19.028  0.00  0.00    +0.000 OA
ATOM     31  N   UNL     1       2.892   6.353  19.157  0.00  0.00    +0.000 NA
ATOM     32  H   UNL     1       1.025   7.339  21.673  0.00  0.00    +0.000 HD
ENDBRANCH  22  23
ENDBRANCH  21  22
ENDBRANCH   9  21
TORSDOF 6
ENDMDL
MODEL 7
REMARK VINA RESULT:      -6.5      2.526      4.155
REMARK  Name = 
REMARK  12 active torsions:
REMARK  status: ('A' for Active; 'I' for Inactive)
REMARK    1  A    between atoms: C_1  and  C_2
REMARK    2  A    between atoms: C_2  and  C_3
REMARK    3  A    between atoms: C_3  and  N_4
REMARK    4  A    between atoms: N_7  and  C_8
REMARK    5  A    between atoms: C_12  and  S_13
REMARK    6  A    between atoms: S_13  and  C_14
REMARK    7  A    between atoms: C_14  and  C_15
REMARK    8  A    between atoms: C_20  and  C_21
REMARK    9  A    between atoms: C_25  and  C_26
REMARK   10  A    between atoms: C_26  and  C_27
REMARK   11  A    between atoms: C_26  and  C_28
REMARK   12  A    between atoms: C_26  and  C_29
REMARK                            x       y       z     vdW  Elec       q    Type
REMARK                         _______ _______ _______ _____ _____    ______ ____
ROOT
ATOM      1  N   UNL     1      -4.182  11.969  18.393  0.00  0.00    +0.000 N 
ATOM      2  C   UNL     1      -4.524  11.617  17.100  0.00  0.00    +0.000 A 
ATOM      3  O   UNL     1      -5.612  11.913  16.610  0.00  0.00    +0.000 OA
ATOM      4  N   UNL     1      -3.574  10.895  16.392  0.00  0.00    +0.000 N 
ATOM      5  C   UNL     1      -3.895  10.476  15.037  0.00  0.00    +0.000 C 
ATOM      6  C   UNL     1      -2.350  10.469  16.904  0.00  0.00    +0.000 A 
ATOM      7  O   UNL     1      -1.598   9.742  16.259  0.00  0.00    +0.000 OA
ATOM      8  C   UNL     1      -2.009  10.895  18.268  0.00  0.00    +0.000 A 
ATOM      9  C   UNL     1      -0.821  10.627  18.941  0.00  0.00    +0.000 A 
ATOM     10  N   UNL     1      -0.593  11.061  20.201  0.00  0.00    +0.000 NA
ATOM     11  C   UNL     1      -1.570  11.719  20.834  0.00  0.00    +0.000 A 
ATOM     12  N   UNL     1      -2.736  12.006  20.248  0.00  0.00    +0.000 NA
ATOM     13  C   UNL     1      -2.946  11.611  18.976  0.00  0.00    +0.000 A 
ENDROOT
BRANCH  11  14
ATOM     14  C   UNL     1      -1.332  12.230  22.253  0.00  0.00    +0.000 C 
ATOM     15  C   UNL     1      -2.646  12.788  22.823  0.00  0.00    +0.000 C 
ATOM     16  C   UNL     1      -0.841  11.085  23.165  0.00  0.00    +0.000 C 
ATOM     17  C   UNL     1      -0.265  13.339  22.260  0.00  0.00    +0.000 C 
ENDBRANCH  11  14
BRANCH   1  18
ATOM     18  C   UNL     1      -5.155  12.696  19.222  0.00  0.00    +0.000 C 
BRANCH  18  20
ATOM     19  C   UNL     1      -7.577  12.112  19.597  0.00  0.00    +0.000 C 
ATOM     20  C   UNL     1      -6.139  11.783  19.965  0.00  0.00    +0.000 C 
ENDBRANCH  18  20
ENDBRANCH   1  18
BRANCH   9  21
ATOM     21  S   UNL     1       0.566   9.731  18.239  0.00  0.00    +0.000 S 
BRANCH  21  22
ATOM     22  C   UNL     1       1.323   8.990  19.730  0.00  0.00    +0.000 C 
BRANCH  22  23
ATOM     23  C   UNL     1       2.050   7.677  19.463  0.00  0.00    +0.000 C 
ATOM     24  O   UNL     1       1.949   6.751  20.260  0.00  0.00    +0.000 OA
ATOM     25  N   UNL     1       2.884   7.709  18.361  0.00  0.00    +0.000 N 
ATOM     26  C   UNL     1       3.564   6.614  17.866  0.00  0.00    +0.000 A 
ATOM     27  C   UNL     1       4.504   6.687  16.808  0.00  0.00    +0.000 A 
ATOM     28  C   UNL     1       4.892   5.387  16.595  0.00  0.00    +0.000 A 
ATOM     29  C   UNL     1       5.810   4.722  15.656  0.00  0.00    +0.000 C 
ATOM     30  O   UNL     1       4.239   4.584  17.473  0.00  0.00    +0.000 OA
ATOM     31  N   UNL     1       3.416   5.350  18.270  0.00  0.00    +0.000 NA
ATOM     32  H   UNL     1       2.993   8.582  17.864  0.00  0.00    +0.000 HD
ENDBRANCH  22  23
ENDBRANCH  21  22
ENDBRANCH   9  21
TORSDOF 6
ENDMDL
MODEL 8
REMARK VINA RESULT:      -6.2      3.405      5.107
REMARK  Name = 
REMARK  12 active torsions:
REMARK  status: ('A' for Active; 'I' for Inactive)
REMARK    1  A    between atoms: C_1  and  C_2
REMARK    2  A    between atoms: C_2  and  C_3
REMARK    3  A    between atoms: C_3  and  N_4
REMARK    4  A    between atoms: N_7  and  C_8
REMARK    5  A    between atoms: C_12  and  S_13
REMARK    6  A    between atoms: S_13  and  C_14
REMARK    7  A    between atoms: C_14  and  C_15
REMARK    8  A    between atoms: C_20  and  C_21
REMARK    9  A    between atoms: C_25  and  C_26
REMARK   10  A    between atoms: C_26  and  C_27
REMARK   11  A    between atoms: C_26  and  C_28
REMARK   12  A    between atoms: C_26  and  C_29
REMARK                            x       y       z     vdW  Elec       q    Type
REMARK                         _______ _______ _______ _____ _____    ______ ____
ROOT
ATOM      1  N   UNL     1      -2.548  10.869  18.178  0.00  0.00    +0.000 N 
ATOM      2  C   UNL     1      -1.187  10.631  18.212  0.00  0.00    +0.000 A 
ATOM      3  O   UNL     1      -0.654   9.793  17.487  0.00  0.00    +0.000 OA
ATOM      4  N   UNL     1      -0.459  11.379  19.126  0.00  0.00    +0.000 N 
ATOM      5  C   UNL     1       0.974  11.147  19.221  0.00  0.00    +0.000 C 
ATOM      6  C   UNL     1      -1.003  12.296  20.023  0.00  0.00    +0.000 A 
ATOM      7  O   UNL     1      -0.317  12.849  20.877  0.00  0.00    +0.000 OA
ATOM      8  C   UNL     1      -2.448  12.548  19.929  0.00  0.00    +0.000 A 
ATOM      9  C   UNL     1      -3.175  13.459  20.688  0.00  0.00    +0.000 A 
ATOM     10  N   UNL     1      -4.508  13.624  20.533  0.00  0.00    +0.000 NA
ATOM     11  C   UNL     1      -5.149  12.841  19.660  0.00  0.00    +0.000 A 
ATOM     12  N   UNL     1      -4.513  11.942  18.902  0.00  0.00    +0.000 NA
ATOM     13  C   UNL     1      -3.177  11.809  19.026  0.00  0.00    +0.000 A 
ENDROOT
BRANCH  11  14
ATOM     14  C   UNL     1      -6.652  13.017  19.459  0.00  0.00    +0.000 C 
ATOM     15  C   UNL     1      -6.959  14.494  19.161  0.00  0.00    +0.000 C 
ATOM     16  C   UNL     1      -7.144  12.158  18.275  0.00  0.00    +0.000 C 
ATOM     17  C   UNL     1      -7.424  12.584  20.718  0.00  0.00    +0.000 C 
ENDBRANCH  11  14
BRANCH   1  18
ATOM     18  C   UNL     1      -3.395  10.082  17.269  0.00  0.00    +0.000 C 
BRANCH  18  20
ATOM     19  C   UNL     1      -2.997  10.003  14.783  0.00  0.00    +0.000 C 
ATOM     20  C   UNL     1      -3.658  10.764  15.921  0.00  0.00    +0.000 C 
ENDBRANCH  18  20
ENDBRANCH   1  18
BRANCH   9  21
ATOM     21  S   UNL     1      -2.463  14.554  21.918  0.00  0.00    +0.000 S 
BRANCH  21  22
ATOM     22  C   UNL     1      -2.815  16.199  21.199  0.00  0.00    +0.000 C 
BRANCH  22  23
ATOM     23  C   UNL     1      -1.829  16.620  20.116  0.00  0.00    +0.000 C 
ATOM     24  O   UNL     1      -2.138  17.496  19.315  0.00  0.00    +0.000 OA
ATOM     25  N   UNL     1      -0.679  15.852  20.071  0.00  0.00    +0.000 N 
ATOM     26  C   UNL     1       0.397  16.107  19.245  0.00  0.00    +0.000 A 
ATOM     27  C   UNL     1       1.517  15.247  19.127  0.00  0.00    +0.000 A 
ATOM     28  C   UNL     1       2.365  15.894  18.263  0.00  0.00    +0.000 A 
ATOM     29  C   UNL     1       3.699  15.604  17.711  0.00  0.00    +0.000 C 
ATOM     30  O   UNL     1       1.793  17.062  17.877  0.00  0.00    +0.000 OA
ATOM     31  N   UNL     1       0.562  17.192  18.484  0.00  0.00    +0.000 NA
ATOM     32  H   UNL     1      -0.604  15.061  20.695  0.00  0.00    +0.000 HD
ENDBRANCH  22  23
ENDBRANCH  21  22
ENDBRANCH   9  21
TORSDOF 6
ENDMDL
MODEL 9
REMARK VINA RESULT:      -6.2      2.008      2.785
REMARK  Name = 
REMARK  12 active torsions:
REMARK  status: ('A' for Active; 'I' for Inactive)
REMARK    1  A    between atoms: C_1  and  C_2
REMARK    2  A    between atoms: C_2  and  C_3
REMARK    3  A    between atoms: C_3  and  N_4
REMARK    4  A    between atoms: N_7  and  C_8
REMARK    5  A    between atoms: C_12  and  S_13
REMARK    6  A    between atoms: S_13  and  C_14
REMARK    7  A    between atoms: C_14  and  C_15
REMARK    8  A    between atoms: C_20  and  C_21
REMARK    9  A    between atoms: C_25  and  C_26
REMARK   10  A    between atoms: C_26  and  C_27
REMARK   11  A    between atoms: C_26  and  C_28
REMARK   12  A    between atoms: C_26  and  C_29
REMARK                            x       y       z     vdW  Elec       q    Type
REMARK                         _______ _______ _______ _____ _____    ______ ____
ROOT
ATOM      1  N   UNL     1      -5.405  12.194  19.417  0.00  0.00    +0.000 N 
ATOM      2  C   UNL     1      -5.391  11.745  18.109  0.00  0.00    +0.000 A 
ATOM      3  O   UNL     1      -6.427  11.528  17.483  0.00  0.00    +0.000 OA
ATOM      4  N   UNL     1      -4.138  11.536  17.549  0.00  0.00    +0.000 N 
ATOM      5  C   UNL     1      -4.069  11.037  16.184  0.00  0.00    +0.000 C 
ATOM      6  C   UNL     1      -2.927  11.697  18.217  0.00  0.00    +0.000 A 
ATOM      7  O   UNL     1      -1.857  11.394  17.696  0.00  0.00    +0.000 OA
ATOM      8  C   UNL     1      -2.983  12.211  19.592  0.00  0.00    +0.000 A 
ATOM      9  C   UNL     1      -1.895  12.494  20.410  0.00  0.00    +0.000 A 
ATOM     10  N   UNL     1      -2.042  12.966  21.669  0.00  0.00    +0.000 NA
ATOM     11  C   UNL     1      -3.280  13.106  22.155  0.00  0.00    +0.000 A 
ATOM     12  N   UNL     1      -4.369  12.848  21.425  0.00  0.00    +0.000 NA
ATOM     13  C   UNL     1      -4.222  12.420  20.155  0.00  0.00    +0.000 A 
ENDROOT
BRANCH  11  14
ATOM     14  C   UNL     1      -3.472  13.649  23.569  0.00  0.00    +0.000 C 
ATOM     15  C   UNL     1      -3.997  12.527  24.480  0.00  0.00    +0.000 C 
ATOM     16  C   UNL     1      -2.133  14.165  24.137  0.00  0.00    +0.000 C 
ATOM     17  C   UNL     1      -4.475  14.815  23.572  0.00  0.00    +0.000 C 
ENDBRANCH  11  14
BRANCH   1  18
ATOM     18  C   UNL     1      -6.694  12.394  20.095  0.00  0.00    +0.000 C 
BRANCH  18  20
ATOM     19  C   UNL     1      -6.642  14.866  19.613  0.00  0.00    +0.000 C 
ATOM     20  C   UNL     1      -7.486  13.602  19.578  0.00  0.00    +0.000 C 
ENDBRANCH  18  20
ENDBRANCH   1  18
BRANCH   9  21
ATOM     21  S   UNL     1      -0.178  12.325  19.913  0.00  0.00    +0.000 S 
BRANCH  21  22
ATOM     22  C   UNL     1       0.195  10.615  20.443  0.00  0.00    +0.000 C 
BRANCH  22  23
ATOM     23  C   UNL     1       0.974   9.808  19.411  0.00  0.00    +0.000 C 
ATOM     24  O   UNL     1       1.072  10.220  18.260  0.00  0.00    +0.000 OA
ATOM     25  N   UNL     1       1.409   8.578  19.869  0.00  0.00    +0.000 N 
ATOM     26  C   UNL     1       2.217   7.720  19.151  0.00  0.00    +0.000 A 
ATOM     27  C   UNL     1       2.560   6.415  19.587  0.00  0.00    +0.000 A 
ATOM     28  C   UNL     1       3.411   5.937  18.622  0.00  0.00    +0.000 A 
ATOM     29  C   UNL     1       4.159   4.683  18.432  0.00  0.00    +0.000 C 
ATOM     30  O   UNL     1       3.566   6.884  17.662  0.00  0.00    +0.000 OA
ATOM     31  N   UNL     1       2.817   7.994  17.989  0.00  0.00    +0.000 NA
ATOM     32  H   UNL     1       1.141   8.288  20.800  0.00  0.00    +0.000 HD
ENDBRANCH  22  23
ENDBRANCH  21  22
ENDBRANCH   9  21
TORSDOF 6
ENDMDL
