MODEL 1
REMARK VINA RESULT:      -7.2      0.000      0.000
REMARK  Name = 
REMARK  3 active torsions:
REMARK  status: ('A' for Active; 'I' for Inactive)
REMARK    1  A    between atoms: O_1  and  N_2
REMARK    2  A    between atoms: C_6  and  C_7
REMARK    3  A    between atoms: C_10  and  O_11
REMARK                            x       y       z     vdW  Elec       q    Type
REMARK                         _______ _______ _______ _____ _____    ______ ____
ROOT
ATOM      1  N   UNL     1       1.957   3.439  21.475  0.00  0.00    +0.000 NA
ATOM      2  C   UNL     1       2.383   3.530  20.250  0.00  0.00    +0.000 C 
ATOM      3  C   UNL     1       3.389   2.584  19.626  0.00  0.00    +0.000 C 
ATOM      4  C   UNL     1       3.056   2.301  18.163  0.00  0.00    +0.000 C 
ATOM      5  C   UNL     1       2.826   3.575  17.326  0.00  0.00    +0.000 C 
ATOM      6  C   UNL     1       1.682   4.380  17.983  0.00  0.00    +0.000 C 
ATOM      7  C   UNL     1       1.950   4.736  19.440  0.00  0.00    +0.000 C 
ENDROOT
BRANCH   5   8
ATOM      8  C   UNL     1       4.078   4.401  17.031  0.00  0.00    +0.000 A 
ATOM      9  C   UNL     1       4.163   5.778  17.299  0.00  0.00    +0.000 A 
ATOM     10  C   UNL     1       5.315   6.512  17.018  0.00  0.00    +0.000 A 
ATOM     11  C   UNL     1       6.425   5.863  16.496  0.00  0.00    +0.000 A 
ATOM     12  C   UNL     1       6.392   4.497  16.260  0.00  0.00    +0.000 A 
ATOM     13  C   UNL     1       5.229   3.770  16.529  0.00  0.00    +0.000 A 
BRANCH  11  14
ATOM     14  O   UNL     1       7.568   6.543  16.215  0.00  0.00    +0.000 OA
ATOM     15  H   UNL     1       7.570   6.760  15.268  0.00  0.00    +0.000 HD
ENDBRANCH  11  14
ENDBRANCH   5   8
BRANCH   1  16
ATOM     16  O   UNL     1       2.515   2.342  22.136  0.00  0.00    +0.000 OA
ATOM     17  H   UNL     1       3.421   2.317  21.778  0.00  0.00    +0.000 HD
ENDBRANCH   1  16
TORSDOF 3
ENDMDL
MODEL 2
REMARK VINA RESULT:      -7.1      0.248      1.265
REMARK  Name = 
REMARK  3 active torsions:
REMARK  status: ('A' for Active; 'I' for Inactive)
REMARK    1  A    between atoms: O_1  and  N_2
REMARK    2  A    between atoms: C_6  and  C_7
REMARK    3  A    between atoms: C_10  and  O_11
REMARK                            x       y       z     vdW  Elec       q    Type
REMARK                         _______ _______ _______ _____ _____    ______ ____
ROOT
ATOM      1  N   UNL     1       1.576   3.434  21.287  0.00  0.00    +0.000 NA
ATOM      2  C   UNL     1       2.106   3.494  20.101  0.00  0.00    +0.000 C 
ATOM      3  C   UNL     1       3.148   2.523  19.584  0.00  0.00    +0.000 C 
ATOM      4  C   UNL     1       2.938   2.213  18.104  0.00  0.00    +0.000 C 
ATOM      5  C   UNL     1       2.798   3.472  17.225  0.00  0.00    +0.000 C 
ATOM      6  C   UNL     1       1.613   4.304  17.765  0.00  0.00    +0.000 C 
ATOM      7  C   UNL     1       1.761   4.687  19.232  0.00  0.00    +0.000 C 
ENDROOT
BRANCH   5   8
ATOM      8  C   UNL     1       4.082   4.276  17.022  0.00  0.00    +0.000 A 
ATOM      9  C   UNL     1       5.263   3.710  16.513  0.00  0.00    +0.000 A 
ATOM     10  C   UNL     1       6.423   4.463  16.339  0.00  0.00    +0.000 A 
ATOM     11  C   UNL     1       6.407   5.818  16.640  0.00  0.00    +0.000 A 
ATOM     12  C   UNL     1       5.247   6.419  17.103  0.00  0.00    +0.000 A 
ATOM     13  C   UNL     1       4.092   5.656  17.290  0.00  0.00    +0.000 A 
BRANCH  11  14
ATOM     14  O   UNL     1       7.517   6.586  16.478  0.00  0.00    +0.000 OA
ATOM     15  H   UNL     1       8.291   6.002  16.445  0.00  0.00    +0.000 HD
ENDBRANCH  11  14
ENDBRANCH   5   8
BRANCH   1  16
ATOM     16  O   UNL     1       2.060   2.344  22.014  0.00  0.00    +0.000 OA
ATOM     17  H   UNL     1       1.931   2.630  22.936  0.00  0.00    +0.000 HD
ENDBRANCH   1  16
TORSDOF 3
ENDMDL
MODEL 3
REMARK VINA RESULT:      -7.0      0.985      1.686
REMARK  Name = 
REMARK  3 active torsions:
REMARK  status: ('A' for Active; 'I' for Inactive)
REMARK    1  A    between atoms: O_1  and  N_2
REMARK    2  A    between atoms: C_6  and  C_7
REMARK    3  A    between atoms: C_10  and  O_11
REMARK                            x       y       z     vdW  Elec       q    Type
REMARK                         _______ _______ _______ _____ _____    ______ ____
ROOT
ATOM      1  N   UNL     1       2.149   3.541  21.929  0.00  0.00    +0.000 NA
ATOM      2  C   UNL     1       2.333   3.930  20.702  0.00  0.00    +0.000 C 
ATOM      3  C   UNL     1       2.253   3.015  19.498  0.00  0.00    +0.000 C 
ATOM      4  C   UNL     1       1.618   3.720  18.301  0.00  0.00    +0.000 C 
ATOM      5  C   UNL     1       2.258   5.086  17.980  0.00  0.00    +0.000 C 
ATOM      6  C   UNL     1       2.146   5.975  19.239  0.00  0.00    +0.000 C 
ATOM      7  C   UNL     1       2.789   5.358  20.475  0.00  0.00    +0.000 C 
ENDROOT
BRANCH   5   8
ATOM      8  C   UNL     1       3.664   5.027  17.383  0.00  0.00    +0.000 A 
ATOM      9  C   UNL     1       4.186   3.872  16.776  0.00  0.00    +0.000 A 
ATOM     10  C   UNL     1       5.473   3.842  16.240  0.00  0.00    +0.000 A 
ATOM     11  C   UNL     1       6.250   4.992  16.269  0.00  0.00    +0.000 A 
ATOM     12  C   UNL     1       5.750   6.162  16.822  0.00  0.00    +0.000 A 
ATOM     13  C   UNL     1       4.466   6.181  17.371  0.00  0.00    +0.000 A 
BRANCH  11  14
ATOM     14  O   UNL     1       7.507   5.003  15.752  0.00  0.00    +0.000 OA
ATOM     15  H   UNL     1       8.106   4.590  16.396  0.00  0.00    +0.000 HD
ENDBRANCH  11  14
ENDBRANCH   5   8
BRANCH   1  16
ATOM     16  O   UNL     1       1.835   2.181  21.997  0.00  0.00    +0.000 OA
ATOM     17  H   UNL     1       2.683   1.780  22.262  0.00  0.00    +0.000 HD
ENDBRANCH   1  16
TORSDOF 3
ENDMDL
MODEL 4
REMARK VINA RESULT:      -6.7      1.074      1.184
REMARK  Name = 
REMARK  3 active torsions:
REMARK  status: ('A' for Active; 'I' for Inactive)
REMARK    1  A    between atoms: O_1  and  N_2
REMARK    2  A    between atoms: C_6  and  C_7
REMARK    3  A    between atoms: C_10  and  O_11
REMARK                            x       y       z     vdW  Elec       q    Type
REMARK                         _______ _______ _______ _____ _____    ______ ____
ROOT
ATOM      1  N   UNL     1       1.252   3.467  20.942  0.00  0.00    +0.000 NA
ATOM      2  C   UNL     1       2.142   3.505  19.994  0.00  0.00    +0.000 C 
ATOM      3  C   UNL     1       3.562   2.999  20.139  0.00  0.00    +0.000 C 
ATOM      4  C   UNL     1       4.051   2.332  18.856  0.00  0.00    +0.000 C 
ATOM      5  C   UNL     1       3.844   3.194  17.595  0.00  0.00    +0.000 C 
ATOM      6  C   UNL     1       2.337   3.521  17.481  0.00  0.00    +0.000 C 
ATOM      7  C   UNL     1       1.775   4.224  18.710  0.00  0.00    +0.000 C 
ENDROOT
BRANCH   5   8
ATOM      8  C   UNL     1       4.756   4.415  17.478  0.00  0.00    +0.000 A 
ATOM      9  C   UNL     1       4.426   5.542  16.705  0.00  0.00    +0.000 A 
ATOM     10  C   UNL     1       5.276   6.643  16.611  0.00  0.00    +0.000 A 
ATOM     11  C   UNL     1       6.465   6.649  17.327  0.00  0.00    +0.000 A 
ATOM     12  C   UNL     1       6.802   5.572  18.134  0.00  0.00    +0.000 A 
ATOM     13  C   UNL     1       5.953   4.465  18.211  0.00  0.00    +0.000 A 
BRANCH  11  14
ATOM     14  O   UNL     1       7.316   7.706  17.265  0.00  0.00    +0.000 OA
ATOM     15  H   UNL     1       6.836   8.502  17.544  0.00  0.00    +0.000 HD
ENDBRANCH  11  14
ENDBRANCH   5   8
BRANCH   1  16
ATOM     16  O   UNL     1       1.758   2.871  22.100  0.00  0.00    +0.000 OA
ATOM     17  H   UNL     1       2.567   2.435  21.779  0.00  0.00    +0.000 HD
ENDBRANCH   1  16
TORSDOF 3
ENDMDL
MODEL 5
REMARK VINA RESULT:      -6.6      2.768      5.558
REMARK  Name = 
REMARK  3 active torsions:
REMARK  status: ('A' for Active; 'I' for Inactive)
REMARK    1  A    between atoms: O_1  and  N_2
REMARK    2  A    between atoms: C_6  and  C_7
REMARK    3  A    between atoms: C_10  and  O_11
REMARK                            x       y       z     vdW  Elec       q    Type
REMARK                         _______ _______ _______ _____ _____    ______ ____
ROOT
ATOM      1  N   UNL     1       6.726   5.691  14.739  0.00  0.00    +0.000 NA
ATOM      2  C   UNL     1       6.085   5.439  15.841  0.00  0.00    +0.000 C 
ATOM      3  C   UNL     1       6.389   4.269  16.754  0.00  0.00    +0.000 C 
ATOM      4  C   UNL     1       6.231   4.651  18.224  0.00  0.00    +0.000 C 
ATOM      5  C   UNL     1       4.884   5.331  18.543  0.00  0.00    +0.000 C 
ATOM      6  C   UNL     1       4.759   6.588  17.652  0.00  0.00    +0.000 C 
ATOM      7  C   UNL     1       4.870   6.288  16.162  0.00  0.00    +0.000 C 
ENDROOT
BRANCH   5   8
ATOM      8  C   UNL     1       3.661   4.414  18.501  0.00  0.00    +0.000 A 
ATOM      9  C   UNL     1       2.409   4.837  18.022  0.00  0.00    +0.000 A 
ATOM     10  C   UNL     1       1.306   3.983  17.997  0.00  0.00    +0.000 A 
ATOM     11  C   UNL     1       1.452   2.669  18.418  0.00  0.00    +0.000 A 
ATOM     12  C   UNL     1       2.684   2.206  18.856  0.00  0.00    +0.000 A 
ATOM     13  C   UNL     1       3.781   3.071  18.894  0.00  0.00    +0.000 A 
BRANCH  11  14
ATOM     14  O   UNL     1       0.403   1.806  18.402  0.00  0.00    +0.000 OA
ATOM     15  H   UNL     1       0.232   1.515  19.313  0.00  0.00    +0.000 HD
ENDBRANCH  11  14
ENDBRANCH   5   8
BRANCH   1  16
ATOM     16  O   UNL     1       7.753   4.770  14.517  0.00  0.00    +0.000 OA
ATOM     17  H   UNL     1       8.029   4.537  15.422  0.00  0.00    +0.000 HD
ENDBRANCH   1  16
TORSDOF 3
ENDMDL
MODEL 6
REMARK VINA RESULT:      -6.6      1.821      2.385
REMARK  Name = 
REMARK  3 active torsions:
REMARK  status: ('A' for Active; 'I' for Inactive)
REMARK    1  A    between atoms: O_1  and  N_2
REMARK    2  A    between atoms: C_6  and  C_7
REMARK    3  A    between atoms: C_10  and  O_11
REMARK                            x       y       z     vdW  Elec       q    Type
REMARK                         _______ _______ _______ _____ _____    ______ ____
ROOT
ATOM      1  N   UNL     1       1.533   1.884  19.091  0.00  0.00    +0.000 NA
ATOM      2  C   UNL     1       2.281   2.922  18.862  0.00  0.00    +0.000 C 
ATOM      3  C   UNL     1       1.918   4.039  17.904  0.00  0.00    +0.000 C 
ATOM      4  C   UNL     1       2.366   5.398  18.436  0.00  0.00    +0.000 C 
ATOM      5  C   UNL     1       3.845   5.433  18.871  0.00  0.00    +0.000 C 
ATOM      6  C   UNL     1       4.052   4.348  19.951  0.00  0.00    +0.000 C 
ATOM      7  C   UNL     1       3.661   2.950  19.488  0.00  0.00    +0.000 C 
ENDROOT
BRANCH   5   8
ATOM      8  C   UNL     1       4.865   5.381  17.733  0.00  0.00    +0.000 A 
ATOM      9  C   UNL     1       4.645   5.989  16.485  0.00  0.00    +0.000 A 
ATOM     10  C   UNL     1       5.589   5.925  15.461  0.00  0.00    +0.000 A 
ATOM     11  C   UNL     1       6.796   5.279  15.686  0.00  0.00    +0.000 A 
ATOM     12  C   UNL     1       7.064   4.705  16.920  0.00  0.00    +0.000 A 
ATOM     13  C   UNL     1       6.108   4.759  17.937  0.00  0.00    +0.000 A 
BRANCH  11  14
ATOM     14  O   UNL     1       7.743   5.201  14.714  0.00  0.00    +0.000 OA
ATOM     15  H   UNL     1       7.860   6.085  14.329  0.00  0.00    +0.000 HD
ENDBRANCH  11  14
ENDBRANCH   5   8
BRANCH   1  16
ATOM     16  O   UNL     1       0.337   1.941  18.370  0.00  0.00    +0.000 OA
ATOM     17  H   UNL     1      -0.149   2.655  18.821  0.00  0.00    +0.000 HD
ENDBRANCH   1  16
TORSDOF 3
ENDMDL
MODEL 7
REMARK VINA RESULT:      -6.6      1.233      1.591
REMARK  Name = 
REMARK  3 active torsions:
REMARK  status: ('A' for Active; 'I' for Inactive)
REMARK    1  A    between atoms: O_1  and  N_2
REMARK    2  A    between atoms: C_6  and  C_7
REMARK    3  A    between atoms: C_10  and  O_11
REMARK                            x       y       z     vdW  Elec       q    Type
REMARK                         _______ _______ _______ _____ _____    ______ ____
ROOT
ATOM      1  N   UNL     1       0.925   3.671  20.325  0.00  0.00    +0.000 NA
ATOM      2  C   UNL     1       1.966   3.660  19.547  0.00  0.00    +0.000 C 
ATOM      3  C   UNL     1       3.347   3.210  19.980  0.00  0.00    +0.000 C 
ATOM      4  C   UNL     1       4.065   2.457  18.863  0.00  0.00    +0.000 C 
ATOM      5  C   UNL     1       4.070   3.208  17.517  0.00  0.00    +0.000 C 
ATOM      6  C   UNL     1       2.602   3.480  17.114  0.00  0.00    +0.000 C 
ATOM      7  C   UNL     1       1.821   4.262  18.163  0.00  0.00    +0.000 C 
ENDROOT
BRANCH   5   8
ATOM      8  C   UNL     1       4.969   4.443  17.458  0.00  0.00    +0.000 A 
ATOM      9  C   UNL     1       6.114   4.590  18.260  0.00  0.00    +0.000 A 
ATOM     10  C   UNL     1       6.918   5.727  18.191  0.00  0.00    +0.000 A 
ATOM     11  C   UNL     1       6.607   6.728  17.281  0.00  0.00    +0.000 A 
ATOM     12  C   UNL     1       5.509   6.596  16.443  0.00  0.00    +0.000 A 
ATOM     13  C   UNL     1       4.698   5.461  16.528  0.00  0.00    +0.000 A 
BRANCH  11  14
ATOM     14  O   UNL     1       7.369   7.848  17.180  0.00  0.00    +0.000 OA
ATOM     15  H   UNL     1       6.950   8.552  17.702  0.00  0.00    +0.000 HD
ENDBRANCH  11  14
ENDBRANCH   5   8
BRANCH   1  16
ATOM     16  O   UNL     1       1.227   3.185  21.600  0.00  0.00    +0.000 OA
ATOM     17  H   UNL     1       2.062   3.642  21.809  0.00  0.00    +0.000 HD
ENDBRANCH   1  16
TORSDOF 3
ENDMDL
MODEL 8
REMARK VINA RESULT:      -6.6      1.783      2.415
REMARK  Name = 
REMARK  3 active torsions:
REMARK  status: ('A' for Active; 'I' for Inactive)
REMARK    1  A    between atoms: O_1  and  N_2
REMARK    2  A    between atoms: C_6  and  C_7
REMARK    3  A    between atoms: C_10  and  O_11
REMARK                            x       y       z     vdW  Elec       q    Type
REMARK                         _______ _______ _______ _____ _____    ______ ____
ROOT
ATOM      1  N   UNL     1       0.676   3.019  20.226  0.00  0.00    +0.000 NA
ATOM      2  C   UNL     1       1.510   3.795  19.599  0.00  0.00    +0.000 C 
ATOM      3  C   UNL     1       1.655   3.849  18.092  0.00  0.00    +0.000 C 
ATOM      4  C   UNL     1       1.912   5.273  17.606  0.00  0.00    +0.000 C 
ATOM      5  C   UNL     1       3.064   5.979  18.348  0.00  0.00    +0.000 C 
ATOM      6  C   UNL     1       2.728   5.987  19.856  0.00  0.00    +0.000 C 
ATOM      7  C   UNL     1       2.491   4.596  20.432  0.00  0.00    +0.000 C 
ENDROOT
BRANCH   5   8
ATOM      8  C   UNL     1       4.466   5.462  18.025  0.00  0.00    +0.000 A 
ATOM      9  C   UNL     1       4.805   4.906  16.780  0.00  0.00    +0.000 A 
ATOM     10  C   UNL     1       6.091   4.438  16.510  0.00  0.00    +0.000 A 
ATOM     11  C   UNL     1       7.076   4.557  17.479  0.00  0.00    +0.000 A 
ATOM     12  C   UNL     1       6.788   5.140  18.705  0.00  0.00    +0.000 A 
ATOM     13  C   UNL     1       5.494   5.593  18.975  0.00  0.00    +0.000 A 
BRANCH  11  14
ATOM     14  O   UNL     1       8.342   4.118  17.251  0.00  0.00    +0.000 OA
ATOM     15  H   UNL     1       8.374   3.722  16.365  0.00  0.00    +0.000 HD
ENDBRANCH  11  14
ENDBRANCH   5   8
BRANCH   1  16
ATOM     16  O   UNL     1      -0.093   2.264  19.337  0.00  0.00    +0.000 OA
ATOM     17  H   UNL     1      -0.791   1.904  19.913  0.00  0.00    +0.000 HD
ENDBRANCH   1  16
TORSDOF 3
ENDMDL
MODEL 9
REMARK VINA RESULT:      -6.6      1.189      1.634
REMARK  Name = 
REMARK  3 active torsions:
REMARK  status: ('A' for Active; 'I' for Inactive)
REMARK    1  A    between atoms: O_1  and  N_2
REMARK    2  A    between atoms: C_6  and  C_7
REMARK    3  A    between atoms: C_10  and  O_11
REMARK                            x       y       z     vdW  Elec       q    Type
REMARK                         _______ _______ _______ _____ _____    ______ ____
ROOT
ATOM      1  N   UNL     1       1.533   3.782  21.390  0.00  0.00    +0.000 NA
ATOM      2  C   UNL     1       1.975   4.277  20.272  0.00  0.00    +0.000 C 
ATOM      3  C   UNL     1       1.892   3.568  18.936  0.00  0.00    +0.000 C 
ATOM      4  C   UNL     1       1.602   4.548  17.801  0.00  0.00    +0.000 C 
ATOM      5  C   UNL     1       2.549   5.765  17.781  0.00  0.00    +0.000 C 
ATOM      6  C   UNL     1       2.434   6.484  19.144  0.00  0.00    +0.000 C 
ATOM      7  C   UNL     1       2.743   5.583  20.333  0.00  0.00    +0.000 C 
ENDROOT
BRANCH   5   8
ATOM      8  C   UNL     1       3.987   5.470  17.352  0.00  0.00    +0.000 A 
ATOM      9  C   UNL     1       5.055   6.344  17.617  0.00  0.00    +0.000 A 
ATOM     10  C   UNL     1       6.358   6.055  17.214  0.00  0.00    +0.000 A 
ATOM     11  C   UNL     1       6.621   4.856  16.566  0.00  0.00    +0.000 A 
ATOM     12  C   UNL     1       5.598   3.950  16.327  0.00  0.00    +0.000 A 
ATOM     13  C   UNL     1       4.292   4.253  16.720  0.00  0.00    +0.000 A 
BRANCH  11  14
ATOM     14  O   UNL     1       7.879   4.536  16.163  0.00  0.00    +0.000 OA
ATOM     15  H   UNL     1       8.151   3.727  16.625  0.00  0.00    +0.000 HD
ENDBRANCH  11  14
ENDBRANCH   5   8
BRANCH   1  16
ATOM     16  O   UNL     1       0.940   2.531  21.202  0.00  0.00    +0.000 OA
ATOM     17  H   UNL     1       1.180   2.318  20.282  0.00  0.00    +0.000 HD
ENDBRANCH   1  16
TORSDOF 3
ENDMDL
