MODEL 1
REMARK VINA RESULT:      -7.6      0.000      0.000
REMARK  Name = 
REMARK  10 active torsions:
REMARK  status: ('A' for Active; 'I' for Inactive)
REMARK    1  A    between atoms: C_1  and  C_2
REMARK    2  A    between atoms: C_2  and  C_3
REMARK    3  A    between atoms: C_3  and  O_4
REMARK    4  A    between atoms: O_4  and  C_5
REMARK    5  A    between atoms: C_9  and  C_10
REMARK    6  A    between atoms: N_12  and  C_13
REMARK    7  A    between atoms: C_13  and  N_15
REMARK    8  A    between atoms: N_15  and  C_16
REMARK    9  A    between atoms: C_19  and  N_20
REMARK   10  A    between atoms: N_23  and  C_24
REMARK                            x       y       z     vdW  Elec       q    Type
REMARK                         _______ _______ _______ _____ _____    ______ ____
ROOT
ATOM      1  C   UNL     1       2.085   4.951  19.655  0.00  0.00    +0.000 C 
ATOM      2  S   UNL     1       0.905   3.763  19.672  0.00  0.00    +0.000 S 
ENDROOT
BRANCH   1   5
ATOM      3  C   UNL     1       4.388   5.039  18.715  0.00  0.00    +0.000 C 
ATOM      4  O   UNL     1       4.945   5.383  19.759  0.00  0.00    +0.000 OA
ATOM      5  N   UNL     1       3.010   4.899  18.624  0.00  0.00    +0.000 N 
ATOM      6  H   UNL     1       2.591   4.638  17.746  0.00  0.00    +0.000 HD
BRANCH   3  11
ATOM      7  C   UNL     1       5.588   4.386  15.126  0.00  0.00    +0.000 A 
ATOM      8  C   UNL     1       6.968   4.466  15.327  0.00  0.00    +0.000 A 
ATOM      9  C   UNL     1       7.483   4.713  16.594  0.00  0.00    +0.000 A 
ATOM     10  C   UNL     1       6.613   4.880  17.667  0.00  0.00    +0.000 A 
ATOM     11  C   UNL     1       5.219   4.811  17.489  0.00  0.00    +0.000 A 
ATOM     12  C   UNL     1       4.708   4.550  16.205  0.00  0.00    +0.000 A 
BRANCH   7  13
ATOM     13  O   UNL     1       5.229   4.074  13.844  0.00  0.00    +0.000 OA
BRANCH  13  14
ATOM     14  C   UNL     1       6.272   3.681  12.953  0.00  0.00    +0.000 C 
BRANCH  14  16
ATOM     15  C   UNL     1       4.329   3.270  11.390  0.00  0.00    +0.000 C 
ATOM     16  C   UNL     1       5.653   2.746  11.916  0.00  0.00    +0.000 C 
ENDBRANCH  14  16
ENDBRANCH  13  14
ENDBRANCH   7  13
ENDBRANCH   3  11
ENDBRANCH   1   5
BRANCH   1  17
ATOM     17  N   UNL     1       2.223   6.002  20.528  0.00  0.00    +0.000 N 
ATOM     18  H   UNL     1       2.511   5.735  21.470  0.00  0.00    +0.000 HD
BRANCH  17  19
ATOM     19  C   UNL     1       1.881   7.360  20.375  0.00  0.00    +0.000 A 
ATOM     20  C   UNL     1       1.992   8.039  19.168  0.00  0.00    +0.000 A 
ATOM     21  C   UNL     1       1.516   9.353  19.045  0.00  0.00    +0.000 A 
ATOM     22  C   UNL     1       0.901  10.037  20.104  0.00  0.00    +0.000 A 
ATOM     23  C   UNL     1       0.835   9.344  21.319  0.00  0.00    +0.000 A 
ATOM     24  C   UNL     1       1.292   8.018  21.452  0.00  0.00    +0.000 A 
BRANCH  22  25
ATOM     25  N   UNL     1       0.460  11.359  19.940  0.00  0.00    +0.000 N 
ATOM     26  C   UNL     1       1.262  12.426  20.589  0.00  0.00    +0.000 C 
ATOM     27  C   UNL     1       0.449  13.738  20.683  0.00  0.00    +0.000 C 
ATOM     28  N   UNL     1      -0.037  14.205  19.367  0.00  0.00    +0.000 NA
ATOM     29  C   UNL     1      -0.848  15.412  19.519  0.00  0.00    +0.000 C 
ATOM     30  C   UNL     1      -0.832  13.123  18.745  0.00  0.00    +0.000 C 
ATOM     31  C   UNL     1      -0.056  11.789  18.623  0.00  0.00    +0.000 C 
ENDBRANCH  22  25
ENDBRANCH  17  19
ENDBRANCH   1  17
TORSDOF 8
ENDMDL
MODEL 2
REMARK VINA RESULT:      -7.5      1.551      2.391
REMARK  Name = 
REMARK  10 active torsions:
REMARK  status: ('A' for Active; 'I' for Inactive)
REMARK    1  A    between atoms: C_1  and  C_2
REMARK    2  A    between atoms: C_2  and  C_3
REMARK    3  A    between atoms: C_3  and  O_4
REMARK    4  A    between atoms: O_4  and  C_5
REMARK    5  A    between atoms: C_9  and  C_10
REMARK    6  A    between atoms: N_12  and  C_13
REMARK    7  A    between atoms: C_13  and  N_15
REMARK    8  A    between atoms: N_15  and  C_16
REMARK    9  A    between atoms: C_19  and  N_20
REMARK   10  A    between atoms: N_23  and  C_24
REMARK                            x       y       z     vdW  Elec       q    Type
REMARK                         _______ _______ _______ _____ _____    ______ ____
ROOT
ATOM      1  C   UNL     1       3.176   4.607  17.720  0.00  0.00    +0.000 C 
ATOM      2  S   UNL     1       1.975   3.446  17.842  0.00  0.00    +0.000 S 
ENDROOT
BRANCH   1   5
ATOM      3  C   UNL     1       5.289   4.405  16.422  0.00  0.00    +0.000 C 
ATOM      4  O   UNL     1       6.038   4.329  17.396  0.00  0.00    +0.000 OA
ATOM      5  N   UNL     1       3.923   4.614  16.554  0.00  0.00    +0.000 N 
ATOM      6  H   UNL     1       3.348   4.693  15.730  0.00  0.00    +0.000 HD
BRANCH   3  11
ATOM      7  C   UNL     1       5.959   3.599  12.727  0.00  0.00    +0.000 A 
ATOM      8  C   UNL     1       7.124   4.345  12.537  0.00  0.00    +0.000 A 
ATOM      9  C   UNL     1       7.673   5.075  13.584  0.00  0.00    +0.000 A 
ATOM     10  C   UNL     1       7.055   5.057  14.830  0.00  0.00    +0.000 A 
ATOM     11  C   UNL     1       5.877   4.319  15.046  0.00  0.00    +0.000 A 
ATOM     12  C   UNL     1       5.335   3.575  13.982  0.00  0.00    +0.000 A 
BRANCH   7  13
ATOM     13  O   UNL     1       5.572   2.881  11.629  0.00  0.00    +0.000 OA
BRANCH  13  14
ATOM     14  C   UNL     1       4.175   2.833  11.340  0.00  0.00    +0.000 C 
BRANCH  14  16
ATOM     15  C   UNL     1       2.784   3.932   9.540  0.00  0.00    +0.000 C 
ATOM     16  C   UNL     1       3.814   4.139  10.634  0.00  0.00    +0.000 C 
ENDBRANCH  14  16
ENDBRANCH  13  14
ENDBRANCH   7  13
ENDBRANCH   3  11
ENDBRANCH   1   5
BRANCH   1  17
ATOM     17  N   UNL     1       3.485   5.586  18.633  0.00  0.00    +0.000 N 
ATOM     18  H   UNL     1       4.230   5.337  19.284  0.00  0.00    +0.000 HD
BRANCH  17  19
ATOM     19  C   UNL     1       2.837   6.806  18.910  0.00  0.00    +0.000 A 
ATOM     20  C   UNL     1       2.655   7.801  17.959  0.00  0.00    +0.000 A 
ATOM     21  C   UNL     1       1.890   8.939  18.258  0.00  0.00    +0.000 A 
ATOM     22  C   UNL     1       1.267   9.127  19.500  0.00  0.00    +0.000 A 
ATOM     23  C   UNL     1       1.498   8.127  20.454  0.00  0.00    +0.000 A 
ATOM     24  C   UNL     1       2.247   6.970  20.161  0.00  0.00    +0.000 A 
BRANCH  22  25
ATOM     25  N   UNL     1       0.531  10.292  19.761  0.00  0.00    +0.000 N 
ATOM     26  C   UNL     1      -0.706  10.503  18.968  0.00  0.00    +0.000 C 
ATOM     27  C   UNL     1      -1.162  11.979  19.055  0.00  0.00    +0.000 C 
ATOM     28  N   UNL     1      -1.373  12.433  20.446  0.00  0.00    +0.000 NA
ATOM     29  C   UNL     1      -1.744  13.846  20.474  0.00  0.00    +0.000 C 
ATOM     30  C   UNL     1      -0.127  12.209  21.210  0.00  0.00    +0.000 C 
ATOM     31  C   UNL     1       0.367  10.743  21.160  0.00  0.00    +0.000 C 
ENDBRANCH  22  25
ENDBRANCH  17  19
ENDBRANCH   1  17
TORSDOF 8
ENDMDL
MODEL 3
REMARK VINA RESULT:      -7.5      1.893      3.467
REMARK  Name = 
REMARK  10 active torsions:
REMARK  status: ('A' for Active; 'I' for Inactive)
REMARK    1  A    between atoms: C_1  and  C_2
REMARK    2  A    between atoms: C_2  and  C_3
REMARK    3  A    between atoms: C_3  and  O_4
REMARK    4  A    between atoms: O_4  and  C_5
REMARK    5  A    between atoms: C_9  and  C_10
REMARK    6  A    between atoms: N_12  and  C_13
REMARK    7  A    between atoms: C_13  and  N_15
REMARK    8  A    between atoms: N_15  and  C_16
REMARK    9  A    between atoms: C_19  and  N_20
REMARK   10  A    between atoms: N_23  and  C_24
REMARK                            x       y       z     vdW  Elec       q    Type
REMARK                         _______ _______ _______ _____ _____    ______ ____
ROOT
ATOM      1  C   UNL     1       2.121   5.140  20.163  0.00  0.00    +0.000 C 
ATOM      2  S   UNL     1       1.025   3.877  20.070  0.00  0.00    +0.000 S 
ENDROOT
BRANCH   1   5
ATOM      3  C   UNL     1       3.228   4.905  17.947  0.00  0.00    +0.000 C 
ATOM      4  O   UNL     1       2.206   4.635  17.315  0.00  0.00    +0.000 OA
ATOM      5  N   UNL     1       3.221   5.077  19.325  0.00  0.00    +0.000 N 
ATOM      6  H   UNL     1       4.084   5.276  19.808  0.00  0.00    +0.000 HD
BRANCH   3  11
ATOM      7  C   UNL     1       6.679   5.997  16.663  0.00  0.00    +0.000 A 
ATOM      8  C   UNL     1       6.929   4.957  15.765  0.00  0.00    +0.000 A 
ATOM      9  C   UNL     1       5.996   3.943  15.581  0.00  0.00    +0.000 A 
ATOM     10  C   UNL     1       4.804   3.971  16.297  0.00  0.00    +0.000 A 
ATOM     11  C   UNL     1       4.531   5.004  17.213  0.00  0.00    +0.000 A 
ATOM     12  C   UNL     1       5.478   6.030  17.385  0.00  0.00    +0.000 A 
BRANCH   7  13
ATOM     13  O   UNL     1       7.655   6.954  16.692  0.00  0.00    +0.000 OA
BRANCH  13  14
ATOM     14  C   UNL     1       7.366   8.159  17.399  0.00  0.00    +0.000 C 
BRANCH  14  16
ATOM     15  C   UNL     1       8.877   9.791  18.598  0.00  0.00    +0.000 C 
ATOM     16  C   UNL     1       8.459   8.340  18.451  0.00  0.00    +0.000 C 
ENDBRANCH  14  16
ENDBRANCH  13  14
ENDBRANCH   7  13
ENDBRANCH   3  11
ENDBRANCH   1   5
BRANCH   1  17
ATOM     17  N   UNL     1       2.035   6.262  20.951  0.00  0.00    +0.000 N 
ATOM     18  H   UNL     1       2.188   6.093  21.946  0.00  0.00    +0.000 HD
BRANCH  17  19
ATOM     19  C   UNL     1       1.617   7.569  20.629  0.00  0.00    +0.000 A 
ATOM     20  C   UNL     1       1.108   8.455  21.570  0.00  0.00    +0.000 A 
ATOM     21  C   UNL     1       0.830   9.784  21.216  0.00  0.00    +0.000 A 
ATOM     22  C   UNL     1       1.059  10.288  19.927  0.00  0.00    +0.000 A 
ATOM     23  C   UNL     1       1.536   9.364  18.989  0.00  0.00    +0.000 A 
ATOM     24  C   UNL     1       1.838   8.032  19.335  0.00  0.00    +0.000 A 
BRANCH  22  25
ATOM     25  N   UNL     1       0.744  11.619  19.614  0.00  0.00    +0.000 N 
ATOM     26  C   UNL     1      -0.530  11.862  18.892  0.00  0.00    +0.000 C 
ATOM     27  C   UNL     1      -0.536  13.272  18.257  0.00  0.00    +0.000 C 
ATOM     28  N   UNL     1      -0.306  14.347  19.247  0.00  0.00    +0.000 NA
ATOM     29  C   UNL     1      -0.261  15.650  18.588  0.00  0.00    +0.000 C 
ATOM     30  C   UNL     1       0.968  14.078  19.949  0.00  0.00    +0.000 C 
ATOM     31  C   UNL     1       1.019  12.678  20.608  0.00  0.00    +0.000 C 
ENDBRANCH  22  25
ENDBRANCH  17  19
ENDBRANCH   1  17
TORSDOF 8
ENDMDL
MODEL 4
REMARK VINA RESULT:      -7.4      1.833      3.055
REMARK  Name = 
REMARK  10 active torsions:
REMARK  status: ('A' for Active; 'I' for Inactive)
REMARK    1  A    between atoms: C_1  and  C_2
REMARK    2  A    between atoms: C_2  and  C_3
REMARK    3  A    between atoms: C_3  and  O_4
REMARK    4  A    between atoms: O_4  and  C_5
REMARK    5  A    between atoms: C_9  and  C_10
REMARK    6  A    between atoms: N_12  and  C_13
REMARK    7  A    between atoms: C_13  and  N_15
REMARK    8  A    between atoms: N_15  and  C_16
REMARK    9  A    between atoms: C_19  and  N_20
REMARK   10  A    between atoms: N_23  and  C_24
REMARK                            x       y       z     vdW  Elec       q    Type
REMARK                         _______ _______ _______ _____ _____    ______ ____
ROOT
ATOM      1  C   UNL     1       3.921   3.609  17.627  0.00  0.00    +0.000 C 
ATOM      2  S   UNL     1       3.068   2.172  17.732  0.00  0.00    +0.000 S 
ENDROOT
BRANCH   1   5
ATOM      3  C   UNL     1       5.884   4.222  16.225  0.00  0.00    +0.000 C 
ATOM      4  O   UNL     1       6.640   4.482  17.161  0.00  0.00    +0.000 OA
ATOM      5  N   UNL     1       4.555   3.874  16.424  0.00  0.00    +0.000 N 
ATOM      6  H   UNL     1       3.962   3.690  15.629  0.00  0.00    +0.000 HD
BRANCH   3  11
ATOM      7  C   UNL     1       6.468   3.798  12.453  0.00  0.00    +0.000 A 
ATOM      8  C   UNL     1       7.484   4.740  12.271  0.00  0.00    +0.000 A 
ATOM      9  C   UNL     1       7.965   5.476  13.347  0.00  0.00    +0.000 A 
ATOM     10  C   UNL     1       7.429   5.268  14.614  0.00  0.00    +0.000 A 
ATOM     11  C   UNL     1       6.400   4.331  14.822  0.00  0.00    +0.000 A 
ATOM     12  C   UNL     1       5.927   3.584  13.728  0.00  0.00    +0.000 A 
BRANCH   7  13
ATOM     13  O   UNL     1       6.142   3.105  11.320  0.00  0.00    +0.000 OA
BRANCH  13  14
ATOM     14  C   UNL     1       5.490   1.848  11.490  0.00  0.00    +0.000 C 
BRANCH  14  16
ATOM     15  C   UNL     1       6.052  -0.614  11.393  0.00  0.00    +0.000 C 
ATOM     16  C   UNL     1       6.410   0.778  10.905  0.00  0.00    +0.000 C 
ENDBRANCH  14  16
ENDBRANCH  13  14
ENDBRANCH   7  13
ENDBRANCH   3  11
ENDBRANCH   1   5
BRANCH   1  17
ATOM     17  N   UNL     1       4.036   4.583  18.588  0.00  0.00    +0.000 N 
ATOM     18  H   UNL     1       4.749   4.398  19.295  0.00  0.00    +0.000 HD
BRANCH  17  19
ATOM     19  C   UNL     1       3.227   5.708  18.842  0.00  0.00    +0.000 A 
ATOM     20  C   UNL     1       2.491   5.865  20.010  0.00  0.00    +0.000 A 
ATOM     21  C   UNL     1       1.807   7.064  20.263  0.00  0.00    +0.000 A 
ATOM     22  C   UNL     1       1.838   8.154  19.380  0.00  0.00    +0.000 A 
ATOM     23  C   UNL     1       2.556   7.956  18.194  0.00  0.00    +0.000 A 
ATOM     24  C   UNL     1       3.263   6.765  17.936  0.00  0.00    +0.000 A 
BRANCH  22  25
ATOM     25  N   UNL     1       1.120   9.325  19.665  0.00  0.00    +0.000 N 
ATOM     26  C   UNL     1       0.459  10.009  18.526  0.00  0.00    +0.000 C 
ATOM     27  C   UNL     1       0.084  11.460  18.906  0.00  0.00    +0.000 C 
ATOM     28  N   UNL     1      -0.779  11.533  20.105  0.00  0.00    +0.000 NA
ATOM     29  C   UNL     1      -1.054  12.926  20.454  0.00  0.00    +0.000 C 
ATOM     30  C   UNL     1      -0.095  10.845  21.221  0.00  0.00    +0.000 C 
ATOM     31  C   UNL     1       0.295   9.384  20.891  0.00  0.00    +0.000 C 
ENDBRANCH  22  25
ENDBRANCH  17  19
ENDBRANCH   1  17
TORSDOF 8
ENDMDL
MODEL 5
REMARK VINA RESULT:      -7.4      0.646      1.094
REMARK  Name = 
REMARK  10 active torsions:
REMARK  status: ('A' for Active; 'I' for Inactive)
REMARK    1  A    between atoms: C_1  and  C_2
REMARK    2  A    between atoms: C_2  and  C_3
REMARK    3  A    between atoms: C_3  and  O_4
REMARK    4  A    between atoms: O_4  and  C_5
REMARK    5  A    between atoms: C_9  and  C_10
REMARK    6  A    between atoms: N_12  and  C_13
REMARK    7  A    between atoms: C_13  and  N_15
REMARK    8  A    between atoms: N_15  and  C_16
REMARK    9  A    between atoms: C_19  and  N_20
REMARK   10  A    between atoms: N_23  and  C_24
REMARK                            x       y       z     vdW  Elec       q    Type
REMARK                         _______ _______ _______ _____ _____    ______ ____
ROOT
ATOM      1  C   UNL     1       2.434   4.913  19.343  0.00  0.00    +0.000 C 
ATOM      2  S   UNL     1       1.380   3.617  19.467  0.00  0.00    +0.000 S 
ENDROOT
BRANCH   1   5
ATOM      3  C   UNL     1       4.670   5.008  18.254  0.00  0.00    +0.000 C 
ATOM      4  O   UNL     1       5.310   5.232  19.281  0.00  0.00    +0.000 OA
ATOM      5  N   UNL     1       3.284   4.926  18.249  0.00  0.00    +0.000 N 
ATOM      6  H   UNL     1       2.796   4.763  17.382  0.00  0.00    +0.000 HD
BRANCH   3  11
ATOM      7  C   UNL     1       5.612   4.405  14.580  0.00  0.00    +0.000 A 
ATOM      8  C   UNL     1       6.972   4.719  14.637  0.00  0.00    +0.000 A 
ATOM      9  C   UNL     1       7.558   5.103  15.837  0.00  0.00    +0.000 A 
ATOM     10  C   UNL     1       6.779   5.170  16.989  0.00  0.00    +0.000 A 
ATOM     11  C   UNL     1       5.406   4.866  16.956  0.00  0.00    +0.000 A 
ATOM     12  C   UNL     1       4.825   4.469  15.738  0.00  0.00    +0.000 A 
BRANCH   7  13
ATOM     13  O   UNL     1       5.190   3.983  13.350  0.00  0.00    +0.000 OA
BRANCH  13  14
ATOM     14  C   UNL     1       6.092   3.178  12.591  0.00  0.00    +0.000 C 
BRANCH  14  16
ATOM     15  C   UNL     1       3.930   3.236  11.285  0.00  0.00    +0.000 C 
ATOM     16  C   UNL     1       5.310   2.618  11.404  0.00  0.00    +0.000 C 
ENDBRANCH  14  16
ENDBRANCH  13  14
ENDBRANCH   7  13
ENDBRANCH   3  11
ENDBRANCH   1   5
BRANCH   1  17
ATOM     17  N   UNL     1       2.529   5.994  20.184  0.00  0.00    +0.000 N 
ATOM     18  H   UNL     1       2.990   5.799  21.074  0.00  0.00    +0.000 HD
BRANCH  17  19
ATOM     19  C   UNL     1       1.959   7.278  20.081  0.00  0.00    +0.000 A 
ATOM     20  C   UNL     1       1.293   7.898  21.131  0.00  0.00    +0.000 A 
ATOM     21  C   UNL     1       0.859   9.228  21.011  0.00  0.00    +0.000 A 
ATOM     22  C   UNL     1       1.080   9.995  19.857  0.00  0.00    +0.000 A 
ATOM     23  C   UNL     1       1.719   9.333  18.801  0.00  0.00    +0.000 A 
ATOM     24  C   UNL     1       2.177   8.006  18.914  0.00  0.00    +0.000 A 
BRANCH  22  25
ATOM     25  N   UNL     1       0.608  11.313  19.775  0.00  0.00    +0.000 N 
ATOM     26  C   UNL     1       0.337  12.017  21.053  0.00  0.00    +0.000 C 
ATOM     27  C   UNL     1      -0.554  13.258  20.812  0.00  0.00    +0.000 C 
ATOM     28  N   UNL     1       0.030  14.201  19.833  0.00  0.00    +0.000 NA
ATOM     29  C   UNL     1      -0.877  15.323  19.598  0.00  0.00    +0.000 C 
ATOM     30  C   UNL     1       0.288  13.472  18.572  0.00  0.00    +0.000 C 
ATOM     31  C   UNL     1       1.183  12.223  18.760  0.00  0.00    +0.000 C 
ENDBRANCH  22  25
ENDBRANCH  17  19
ENDBRANCH   1  17
TORSDOF 8
ENDMDL
MODEL 6
REMARK VINA RESULT:      -7.4      1.767      2.761
REMARK  Name = 
REMARK  10 active torsions:
REMARK  status: ('A' for Active; 'I' for Inactive)
REMARK    1  A    between atoms: C_1  and  C_2
REMARK    2  A    between atoms: C_2  and  C_3
REMARK    3  A    between atoms: C_3  and  O_4
REMARK    4  A    between atoms: O_4  and  C_5
REMARK    5  A    between atoms: C_9  and  C_10
REMARK    6  A    between atoms: N_12  and  C_13
REMARK    7  A    between atoms: C_13  and  N_15
REMARK    8  A    between atoms: N_15  and  C_16
REMARK    9  A    between atoms: C_19  and  N_20
REMARK   10  A    between atoms: N_23  and  C_24
REMARK                            x       y       z     vdW  Elec       q    Type
REMARK                         _______ _______ _______ _____ _____    ______ ____
ROOT
ATOM      1  C   UNL     1       3.990   3.707  17.786  0.00  0.00    +0.000 C 
ATOM      2  S   UNL     1       3.123   2.289  17.991  0.00  0.00    +0.000 S 
ENDROOT
BRANCH   1   5
ATOM      3  C   UNL     1       5.863   4.277  16.251  0.00  0.00    +0.000 C 
ATOM      4  O   UNL     1       6.665   4.592  17.130  0.00  0.00    +0.000 OA
ATOM      5  N   UNL     1       4.552   3.921  16.539  0.00  0.00    +0.000 N 
ATOM      6  H   UNL     1       3.920   3.691  15.788  0.00  0.00    +0.000 HD
BRANCH   3  11
ATOM      7  C   UNL     1       6.111   3.858  12.441  0.00  0.00    +0.000 A 
ATOM      8  C   UNL     1       7.279   4.588  12.206  0.00  0.00    +0.000 A 
ATOM      9  C   UNL     1       7.963   5.184  13.258  0.00  0.00    +0.000 A 
ATOM     10  C   UNL     1       7.478   5.047  14.555  0.00  0.00    +0.000 A 
ATOM     11  C   UNL     1       6.300   4.324  14.818  0.00  0.00    +0.000 A 
ATOM     12  C   UNL     1       5.621   3.716  13.747  0.00  0.00    +0.000 A 
BRANCH   7  13
ATOM     13  O   UNL     1       5.583   3.276  11.322  0.00  0.00    +0.000 OA
BRANCH  13  14
ATOM     14  C   UNL     1       5.208   1.903  11.416  0.00  0.00    +0.000 C 
BRANCH  14  16
ATOM     15  C   UNL     1       6.195  -0.417  11.245  0.00  0.00    +0.000 C 
ATOM     16  C   UNL     1       6.454   1.072  11.111  0.00  0.00    +0.000 C 
ENDBRANCH  14  16
ENDBRANCH  13  14
ENDBRANCH   7  13
ENDBRANCH   3  11
ENDBRANCH   1   5
BRANCH   1  17
ATOM     17  N   UNL     1       4.177   4.710  18.706  0.00  0.00    +0.000 N 
ATOM     18  H   UNL     1       4.878   4.504  19.419  0.00  0.00    +0.000 HD
BRANCH  17  19
ATOM     19  C   UNL     1       3.453   5.900  18.912  0.00  0.00    +0.000 A 
ATOM     20  C   UNL     1       3.410   6.932  17.982  0.00  0.00    +0.000 A 
ATOM     21  C   UNL     1       2.568   8.037  18.186  0.00  0.00    +0.000 A 
ATOM     22  C   UNL     1       1.731   8.155  19.305  0.00  0.00    +0.000 A 
ATOM     23  C   UNL     1       1.822   7.120  20.244  0.00  0.00    +0.000 A 
ATOM     24  C   UNL     1       2.647   5.996  20.044  0.00  0.00    +0.000 A 
BRANCH  22  25
ATOM     25  N   UNL     1       0.924   9.289  19.477  0.00  0.00    +0.000 N 
ATOM     26  C   UNL     1       0.879   9.889  20.833  0.00  0.00    +0.000 C 
ATOM     27  C   UNL     1      -0.338  10.833  20.970  0.00  0.00    +0.000 C 
ATOM     28  N   UNL     1      -0.353  11.902  19.947  0.00  0.00    +0.000 NA
ATOM     29  C   UNL     1      -1.551  12.727  20.085  0.00  0.00    +0.000 C 
ATOM     30  C   UNL     1      -0.307  11.274  18.609  0.00  0.00    +0.000 C 
ATOM     31  C   UNL     1       0.901  10.324  18.420  0.00  0.00    +0.000 C 
ENDBRANCH  22  25
ENDBRANCH  17  19
ENDBRANCH   1  17
TORSDOF 8
ENDMDL
MODEL 7
REMARK VINA RESULT:      -7.2      2.184      3.348
REMARK  Name = 
REMARK  10 active torsions:
REMARK  status: ('A' for Active; 'I' for Inactive)
REMARK    1  A    between atoms: C_1  and  C_2
REMARK    2  A    between atoms: C_2  and  C_3
REMARK    3  A    between atoms: C_3  and  O_4
REMARK    4  A    between atoms: O_4  and  C_5
REMARK    5  A    between atoms: C_9  and  C_10
REMARK    6  A    between atoms: N_12  and  C_13
REMARK    7  A    between atoms: C_13  and  N_15
REMARK    8  A    between atoms: N_15  and  C_16
REMARK    9  A    between atoms: C_19  and  N_20
REMARK   10  A    between atoms: N_23  and  C_24
REMARK                            x       y       z     vdW  Elec       q    Type
REMARK                         _______ _______ _______ _____ _____    ______ ____
ROOT
ATOM      1  C   UNL     1       4.848   4.931  18.012  0.00  0.00    +0.000 C 
ATOM      2  S   UNL     1       6.094   5.134  19.113  0.00  0.00    +0.000 S 
ENDROOT
BRANCH   1   5
ATOM      3  C   UNL     1       5.598   5.417  15.690  0.00  0.00    +0.000 C 
ATOM      4  O   UNL     1       5.530   6.643  15.781  0.00  0.00    +0.000 OA
ATOM      5  N   UNL     1       5.205   4.576  16.722  0.00  0.00    +0.000 N 
ATOM      6  H   UNL     1       5.256   3.576  16.599  0.00  0.00    +0.000 HD
BRANCH   3  11
ATOM      7  C   UNL     1       5.988   3.265  12.533  0.00  0.00    +0.000 A 
ATOM      8  C   UNL     1       7.119   3.871  11.981  0.00  0.00    +0.000 A 
ATOM      9  C   UNL     1       7.735   4.936  12.626  0.00  0.00    +0.000 A 
ATOM     10  C   UNL     1       7.219   5.397  13.833  0.00  0.00    +0.000 A 
ATOM     11  C   UNL     1       6.076   4.810  14.406  0.00  0.00    +0.000 A 
ATOM     12  C   UNL     1       5.466   3.725  13.750  0.00  0.00    +0.000 A 
BRANCH   7  13
ATOM     13  O   UNL     1       5.529   2.191  11.823  0.00  0.00    +0.000 OA
BRANCH  13  14
ATOM     14  C   UNL     1       6.451   1.548  10.944  0.00  0.00    +0.000 C 
BRANCH  14  16
ATOM     15  C   UNL     1       5.857  -0.884  11.284  0.00  0.00    +0.000 C 
ATOM     16  C   UNL     1       6.847   0.223  11.594  0.00  0.00    +0.000 C 
ENDBRANCH  14  16
ENDBRANCH  13  14
ENDBRANCH   7  13
ENDBRANCH   3  11
ENDBRANCH   1   5
BRANCH   1  17
ATOM     17  N   UNL     1       3.500   5.038  18.250  0.00  0.00    +0.000 N 
ATOM     18  H   UNL     1       2.934   4.305  17.819  0.00  0.00    +0.000 HD
BRANCH  17  19
ATOM     19  C   UNL     1       2.764   6.074  18.858  0.00  0.00    +0.000 A 
ATOM     20  C   UNL     1       2.198   5.962  20.122  0.00  0.00    +0.000 A 
ATOM     21  C   UNL     1       1.588   7.070  20.728  0.00  0.00    +0.000 A 
ATOM     22  C   UNL     1       1.527   8.330  20.115  0.00  0.00    +0.000 A 
ATOM     23  C   UNL     1       2.070   8.406  18.826  0.00  0.00    +0.000 A 
ATOM     24  C   UNL     1       2.703   7.307  18.214  0.00  0.00    +0.000 A 
BRANCH  22  25
ATOM     25  N   UNL     1       0.885   9.404  20.750  0.00  0.00    +0.000 N 
ATOM     26  C   UNL     1       0.345  10.480  19.883  0.00  0.00    +0.000 C 
ATOM     27  C   UNL     1       0.061  11.755  20.710  0.00  0.00    +0.000 C 
ATOM     28  N   UNL     1      -0.860  11.511  21.842  0.00  0.00    +0.000 NA
ATOM     29  C   UNL     1      -1.046  12.732  22.623  0.00  0.00    +0.000 C 
ATOM     30  C   UNL     1      -0.296  10.436  22.687  0.00  0.00    +0.000 C 
ATOM     31  C   UNL     1      -0.001   9.134  21.903  0.00  0.00    +0.000 C 
ENDBRANCH  22  25
ENDBRANCH  17  19
ENDBRANCH   1  17
TORSDOF 8
ENDMDL
MODEL 8
REMARK VINA RESULT:      -7.2      3.363      5.015
REMARK  Name = 
REMARK  10 active torsions:
REMARK  status: ('A' for Active; 'I' for Inactive)
REMARK    1  A    between atoms: C_1  and  C_2
REMARK    2  A    between atoms: C_2  and  C_3
REMARK    3  A    between atoms: C_3  and  O_4
REMARK    4  A    between atoms: O_4  and  C_5
REMARK    5  A    between atoms: C_9  and  C_10
REMARK    6  A    between atoms: N_12  and  C_13
REMARK    7  A    between atoms: C_13  and  N_15
REMARK    8  A    between atoms: N_15  and  C_16
REMARK    9  A    between atoms: C_19  and  N_20
REMARK   10  A    between atoms: N_23  and  C_24
REMARK                            x       y       z     vdW  Elec       q    Type
REMARK                         _______ _______ _______ _____ _____    ______ ____
ROOT
ATOM      1  C   UNL     1       1.113   9.193  19.440  0.00  0.00    +0.000 C 
ATOM      2  S   UNL     1       0.259   9.919  18.195  0.00  0.00    +0.000 S 
ENDROOT
BRANCH   1   5
ATOM      3  C   UNL     1       2.130   6.939  19.709  0.00  0.00    +0.000 C 
ATOM      4  O   UNL     1       1.575   6.668  20.774  0.00  0.00    +0.000 OA
ATOM      5  N   UNL     1       1.981   8.172  19.091  0.00  0.00    +0.000 N 
ATOM      6  H   UNL     1       2.471   8.363  18.230  0.00  0.00    +0.000 HD
BRANCH   3  11
ATOM      7  C   UNL     1       5.134   4.738  18.769  0.00  0.00    +0.000 A 
ATOM      8  C   UNL     1       4.527   3.915  17.817  0.00  0.00    +0.000 A 
ATOM      9  C   UNL     1       3.187   4.084  17.490  0.00  0.00    +0.000 A 
ATOM     10  C   UNL     1       2.450   5.085  18.117  0.00  0.00    +0.000 A 
ATOM     11  C   UNL     1       3.036   5.921  19.083  0.00  0.00    +0.000 A 
ATOM     12  C   UNL     1       4.396   5.749  19.400  0.00  0.00    +0.000 A 
BRANCH   7  13
ATOM     13  O   UNL     1       6.469   4.499  18.940  0.00  0.00    +0.000 OA
BRANCH  13  14
ATOM     14  C   UNL     1       7.329   5.634  19.031  0.00  0.00    +0.000 C 
BRANCH  14  16
ATOM     15  C   UNL     1       7.665   7.715  17.638  0.00  0.00    +0.000 C 
ATOM     16  C   UNL     1       7.467   6.211  17.623  0.00  0.00    +0.000 C 
ENDBRANCH  14  16
ENDBRANCH  13  14
ENDBRANCH   7  13
ENDBRANCH   3  11
ENDBRANCH   1   5
BRANCH   1  17
ATOM     17  N   UNL     1       1.082   9.521  20.773  0.00  0.00    +0.000 N 
ATOM     18  H   UNL     1       1.515   8.831  21.389  0.00  0.00    +0.000 HD
BRANCH  17  19
ATOM     19  C   UNL     1       0.416  10.571  21.435  0.00  0.00    +0.000 A 
ATOM     20  C   UNL     1       0.571  11.906  21.085  0.00  0.00    +0.000 A 
ATOM     21  C   UNL     1      -0.215  12.896  21.695  0.00  0.00    +0.000 A 
ATOM     22  C   UNL     1      -1.190  12.601  22.660  0.00  0.00    +0.000 A 
ATOM     23  C   UNL     1      -1.299  11.253  23.021  0.00  0.00    +0.000 A 
ATOM     24  C   UNL     1      -0.530  10.247  22.404  0.00  0.00    +0.000 A 
BRANCH  22  25
ATOM     25  N   UNL     1      -1.936  13.628  23.258  0.00  0.00    +0.000 N 
ATOM     26  C   UNL     1      -3.262  13.264  23.816  0.00  0.00    +0.000 C 
ATOM     27  C   UNL     1      -4.121  14.529  24.047  0.00  0.00    +0.000 C 
ATOM     28  N   UNL     1      -3.460  15.518  24.926  0.00  0.00    +0.000 NA
ATOM     29  C   UNL     1      -4.286  16.716  25.061  0.00  0.00    +0.000 C 
ATOM     30  C   UNL     1      -2.143  15.861  24.344  0.00  0.00    +0.000 C 
ATOM     31  C   UNL     1      -1.243  14.625  24.101  0.00  0.00    +0.000 C 
ENDBRANCH  22  25
ENDBRANCH  17  19
ENDBRANCH   1  17
TORSDOF 8
ENDMDL
MODEL 9
REMARK VINA RESULT:      -7.2      2.084      2.997
REMARK  Name = 
REMARK  10 active torsions:
REMARK  status: ('A' for Active; 'I' for Inactive)
REMARK    1  A    between atoms: C_1  and  C_2
REMARK    2  A    between atoms: C_2  and  C_3
REMARK    3  A    between atoms: C_3  and  O_4
REMARK    4  A    between atoms: O_4  and  C_5
REMARK    5  A    between atoms: C_9  and  C_10
REMARK    6  A    between atoms: N_12  and  C_13
REMARK    7  A    between atoms: C_13  and  N_15
REMARK    8  A    between atoms: N_15  and  C_16
REMARK    9  A    between atoms: C_19  and  N_20
REMARK   10  A    between atoms: N_23  and  C_24
REMARK                            x       y       z     vdW  Elec       q    Type
REMARK                         _______ _______ _______ _____ _____    ______ ____
ROOT
ATOM      1  C   UNL     1       4.687   5.702  17.917  0.00  0.00    +0.000 C 
ATOM      2  S   UNL     1       5.746   5.570  19.208  0.00  0.00    +0.000 S 
ENDROOT
BRANCH   1   5
ATOM      3  C   UNL     1       5.309   4.201  16.032  0.00  0.00    +0.000 C 
ATOM      4  O   UNL     1       5.079   3.144  16.622  0.00  0.00    +0.000 OA
ATOM      5  N   UNL     1       5.200   5.435  16.658  0.00  0.00    +0.000 N 
ATOM      6  H   UNL     1       5.419   6.276  16.146  0.00  0.00    +0.000 HD
BRANCH   3  11
ATOM      7  C   UNL     1       5.566   3.622  12.244  0.00  0.00    +0.000 A 
ATOM      8  C   UNL     1       6.806   4.220  12.004  0.00  0.00    +0.000 A 
ATOM      9  C   UNL     1       7.532   4.781  13.047  0.00  0.00    +0.000 A 
ATOM     10  C   UNL     1       7.017   4.742  14.340  0.00  0.00    +0.000 A 
ATOM     11  C   UNL     1       5.769   4.152  14.606  0.00  0.00    +0.000 A 
ATOM     12  C   UNL     1       5.046   3.577  13.545  0.00  0.00    +0.000 A 
BRANCH   7  13
ATOM     13  O   UNL     1       4.998   3.056  11.137  0.00  0.00    +0.000 OA
BRANCH  13  14
ATOM     14  C   UNL     1       3.590   3.221  10.970  0.00  0.00    +0.000 C 
BRANCH  14  16
ATOM     15  C   UNL     1       2.379   4.758   9.371  0.00  0.00    +0.000 C 
ATOM     16  C   UNL     1       3.349   3.600   9.509  0.00  0.00    +0.000 C 
ENDBRANCH  14  16
ENDBRANCH  13  14
ENDBRANCH   7  13
ENDBRANCH   3  11
ENDBRANCH   1   5
BRANCH   1  17
ATOM     17  N   UNL     1       3.349   6.008  17.964  0.00  0.00    +0.000 N 
ATOM     18  H   UNL     1       2.758   5.411  17.385  0.00  0.00    +0.000 HD
BRANCH  17  19
ATOM     19  C   UNL     1       2.688   7.104  18.554  0.00  0.00    +0.000 A 
ATOM     20  C   UNL     1       2.317   8.237  17.843  0.00  0.00    +0.000 A 
ATOM     21  C   UNL     1       1.547   9.239  18.455  0.00  0.00    +0.000 A 
ATOM     22  C   UNL     1       1.107   9.150  19.784  0.00  0.00    +0.000 A 
ATOM     23  C   UNL     1       1.527   8.015  20.489  0.00  0.00    +0.000 A 
ATOM     24  C   UNL     1       2.283   6.993  19.882  0.00  0.00    +0.000 A 
BRANCH  22  25
ATOM     25  N   UNL     1       0.359  10.187  20.359  0.00  0.00    +0.000 N 
ATOM     26  C   UNL     1      -0.647  10.857  19.497  0.00  0.00    +0.000 C 
ATOM     27  C   UNL     1      -1.073  12.212  20.109  0.00  0.00    +0.000 C 
ATOM     28  N   UNL     1      -1.599  12.078  21.485  0.00  0.00    +0.000 NA
ATOM     29  C   UNL     1      -1.930  13.391  22.037  0.00  0.00    +0.000 C 
ATOM     30  C   UNL     1      -0.577  11.410  22.319  0.00  0.00    +0.000 C 
ATOM     31  C   UNL     1      -0.123  10.043  21.750  0.00  0.00    +0.000 C 
ENDBRANCH  22  25
ENDBRANCH  17  19
ENDBRANCH   1  17
TORSDOF 8
ENDMDL
