MODEL 1
REMARK VINA RESULT:      -8.1      0.000      0.000
REMARK  Name = 
REMARK  2 active torsions:
REMARK  status: ('A' for Active; 'I' for Inactive)
REMARK    1  A    between atoms: C_4  and  C_5
REMARK    2  A    between atoms: C_13  and  C_14
REMARK                            x       y       z     vdW  Elec       q    Type
REMARK                         _______ _______ _______ _____ _____    ______ ____
ROOT
ATOM      1  O   UNL     1       7.973   7.518  17.908  0.00  0.00    +0.000 OA
ATOM      2  C   UNL     1       7.355   6.682  17.281  0.00  0.00    +0.000 C 
ATOM      3  O   UNL     1       7.581   6.267  16.003  0.00  0.00    +0.000 OA
ATOM      4  C   UNL     1       6.641   5.328  15.736  0.00  0.00    +0.000 C 
ATOM      5  N   UNL     1       5.799   5.033  16.675  0.00  0.00    +0.000 NA
ATOM      6  C   UNL     1       6.192   5.857  17.696  0.00  0.00    +0.000 C 
ATOM      7  C   UNL     1       5.651   5.945  18.916  0.00  0.00    +0.000 C 
ENDROOT
BRANCH   7   8
ATOM      8  C   UNL     1       4.541   5.090  19.337  0.00  0.00    +0.000 A 
ATOM      9  C   UNL     1       3.306   5.671  19.648  0.00  0.00    +0.000 A 
ATOM     10  C   UNL     1       2.244   4.876  20.084  0.00  0.00    +0.000 A 
ATOM     11  C   UNL     1       2.419   3.499  20.210  0.00  0.00    +0.000 A 
ATOM     12 CL   UNL     1       1.111   2.520  20.749  0.00  0.00    +0.000 Cl
ATOM     13  C   UNL     1       3.646   2.911  19.904  0.00  0.00    +0.000 A 
ATOM     14  C   UNL     1       4.709   3.708  19.469  0.00  0.00    +0.000 A 
ENDBRANCH   7   8
BRANCH   4  15
ATOM     15  C   UNL     1       6.664   4.768  14.377  0.00  0.00    +0.000 A 
ATOM     16  C   UNL     1       7.641   5.146  13.449  0.00  0.00    +0.000 A 
ATOM     17  C   UNL     1       7.599   4.636  12.149  0.00  0.00    +0.000 A 
ATOM     18  C   UNL     1       6.588   3.750  11.776  0.00  0.00    +0.000 A 
ATOM     19  C   UNL     1       5.624   3.358  12.705  0.00  0.00    +0.000 A 
ATOM     20  C   UNL     1       5.663   3.862  14.005  0.00  0.00    +0.000 A 
ENDBRANCH   4  15
TORSDOF 2
ENDMDL
MODEL 2
REMARK VINA RESULT:      -8.1      0.164      1.537
REMARK  Name = 
REMARK  2 active torsions:
REMARK  status: ('A' for Active; 'I' for Inactive)
REMARK    1  A    between atoms: C_4  and  C_5
REMARK    2  A    between atoms: C_13  and  C_14
REMARK                            x       y       z     vdW  Elec       q    Type
REMARK                         _______ _______ _______ _____ _____    ______ ____
ROOT
ATOM      1  O   UNL     1       8.000   7.422  18.015  0.00  0.00    +0.000 OA
ATOM      2  C   UNL     1       7.353   6.631  17.360  0.00  0.00    +0.000 C 
ATOM      3  O   UNL     1       7.576   6.239  16.073  0.00  0.00    +0.000 OA
ATOM      4  C   UNL     1       6.598   5.350  15.772  0.00  0.00    +0.000 C 
ATOM      5  N   UNL     1       5.733   5.069  16.694  0.00  0.00    +0.000 NA
ATOM      6  C   UNL     1       6.149   5.848  17.740  0.00  0.00    +0.000 C 
ATOM      7  C   UNL     1       5.598   5.928  18.957  0.00  0.00    +0.000 C 
ENDROOT
BRANCH   7   8
ATOM      8  C   UNL     1       4.447   5.114  19.343  0.00  0.00    +0.000 A 
ATOM      9  C   UNL     1       4.602   3.731  19.496  0.00  0.00    +0.000 A 
ATOM     10  C   UNL     1       3.507   2.932  19.830  0.00  0.00    +0.000 A 
ATOM     11  C   UNL     1       2.255   3.517  20.012  0.00  0.00    +0.000 A 
ATOM     12 CL   UNL     1       0.906   2.533  20.422  0.00  0.00    +0.000 Cl
ATOM     13  C   UNL     1       2.090   4.894  19.860  0.00  0.00    +0.000 A 
ATOM     14  C   UNL     1       3.186   5.693  19.523  0.00  0.00    +0.000 A 
ENDBRANCH   7   8
BRANCH   4  15
ATOM     15  C   UNL     1       6.613   4.825  14.399  0.00  0.00    +0.000 A 
ATOM     16  C   UNL     1       5.694   3.858  13.977  0.00  0.00    +0.000 A 
ATOM     17  C   UNL     1       5.773   3.343  12.681  0.00  0.00    +0.000 A 
ATOM     18  C   UNL     1       6.764   3.791  11.808  0.00  0.00    +0.000 A 
ATOM     19  C   UNL     1       7.670   4.768  12.221  0.00  0.00    +0.000 A 
ATOM     20  C   UNL     1       7.593   5.288  13.513  0.00  0.00    +0.000 A 
ENDBRANCH   4  15
TORSDOF 2
ENDMDL
MODEL 3
REMARK VINA RESULT:      -8.0      0.146      1.092
REMARK  Name = 
REMARK  2 active torsions:
REMARK  status: ('A' for Active; 'I' for Inactive)
REMARK    1  A    between atoms: C_4  and  C_5
REMARK    2  A    between atoms: C_13  and  C_14
REMARK                            x       y       z     vdW  Elec       q    Type
REMARK                         _______ _______ _______ _____ _____    ______ ____
ROOT
ATOM      1  O   UNL     1       7.904   7.559  17.894  0.00  0.00    +0.000 OA
ATOM      2  C   UNL     1       7.288   6.720  17.270  0.00  0.00    +0.000 C 
ATOM      3  O   UNL     1       7.532   6.281  16.003  0.00  0.00    +0.000 OA
ATOM      4  C   UNL     1       6.586   5.348  15.735  0.00  0.00    +0.000 C 
ATOM      5  N   UNL     1       5.725   5.078  16.663  0.00  0.00    +0.000 NA
ATOM      6  C   UNL     1       6.108   5.915  17.677  0.00  0.00    +0.000 C 
ATOM      7  C   UNL     1       5.546   6.028  18.886  0.00  0.00    +0.000 C 
ENDROOT
BRANCH   7   8
ATOM      8  C   UNL     1       4.419   5.193  19.300  0.00  0.00    +0.000 A 
ATOM      9  C   UNL     1       4.582   3.805  19.372  0.00  0.00    +0.000 A 
ATOM     10  C   UNL     1       3.508   2.988  19.732  0.00  0.00    +0.000 A 
ATOM     11  C   UNL     1       2.271   3.562  20.021  0.00  0.00    +0.000 A 
ATOM     12 CL   UNL     1       0.948   2.555  20.463  0.00  0.00    +0.000 Cl
ATOM     13  C   UNL     1       2.099   4.944  19.951  0.00  0.00    +0.000 A 
ATOM     14  C   UNL     1       3.173   5.760  19.588  0.00  0.00    +0.000 A 
ENDBRANCH   7   8
BRANCH   4  15
ATOM     15  C   UNL     1       6.628   4.766  14.385  0.00  0.00    +0.000 A 
ATOM     16  C   UNL     1       7.628   5.114  13.471  0.00  0.00    +0.000 A 
ATOM     17  C   UNL     1       7.604   4.582  12.179  0.00  0.00    +0.000 A 
ATOM     18  C   UNL     1       6.588   3.705  11.801  0.00  0.00    +0.000 A 
ATOM     19  C   UNL     1       5.599   3.344  12.716  0.00  0.00    +0.000 A 
ATOM     20  C   UNL     1       5.620   3.869  14.009  0.00  0.00    +0.000 A 
ENDBRANCH   4  15
TORSDOF 2
ENDMDL
MODEL 4
REMARK VINA RESULT:      -7.9      0.732      1.300
REMARK  Name = 
REMARK  2 active torsions:
REMARK  status: ('A' for Active; 'I' for Inactive)
REMARK    1  A    between atoms: C_4  and  C_5
REMARK    2  A    between atoms: C_13  and  C_14
REMARK                            x       y       z     vdW  Elec       q    Type
REMARK                         _______ _______ _______ _____ _____    ______ ____
ROOT
ATOM      1  O   UNL     1       7.824   7.013  17.980  0.00  0.00    +0.000 OA
ATOM      2  C   UNL     1       7.210   6.284  17.228  0.00  0.00    +0.000 C 
ATOM      3  O   UNL     1       7.528   5.960  15.943  0.00  0.00    +0.000 OA
ATOM      4  C   UNL     1       6.552   5.126  15.508  0.00  0.00    +0.000 C 
ATOM      5  N   UNL     1       5.604   4.825  16.337  0.00  0.00    +0.000 NA
ATOM      6  C   UNL     1       5.954   5.526  17.459  0.00  0.00    +0.000 C 
ATOM      7  C   UNL     1       5.305   5.556  18.628  0.00  0.00    +0.000 C 
ENDROOT
BRANCH   7   8
ATOM      8  C   UNL     1       4.100   4.763  18.868  0.00  0.00    +0.000 A 
ATOM      9  C   UNL     1       2.855   5.266  18.470  0.00  0.00    +0.000 A 
ATOM     10  C   UNL     1       1.690   4.540  18.721  0.00  0.00    +0.000 A 
ATOM     11  C   UNL     1       1.769   3.310  19.371  0.00  0.00    +0.000 A 
ATOM     12 CL   UNL     1       0.333   2.416  19.681  0.00  0.00    +0.000 Cl
ATOM     13  C   UNL     1       3.004   2.801  19.773  0.00  0.00    +0.000 A 
ATOM     14  C   UNL     1       4.170   3.529  19.523  0.00  0.00    +0.000 A 
ENDBRANCH   7   8
BRANCH   4  15
ATOM     15  C   UNL     1       6.666   4.681  14.112  0.00  0.00    +0.000 A 
ATOM     16  C   UNL     1       5.828   3.689  13.591  0.00  0.00    +0.000 A 
ATOM     17  C   UNL     1       6.002   3.253  12.275  0.00  0.00    +0.000 A 
ATOM     18  C   UNL     1       7.007   3.804  11.481  0.00  0.00    +0.000 A 
ATOM     19  C   UNL     1       7.833   4.805  11.993  0.00  0.00    +0.000 A 
ATOM     20  C   UNL     1       7.661   5.247  13.305  0.00  0.00    +0.000 A 
ENDBRANCH   4  15
TORSDOF 2
ENDMDL
MODEL 5
REMARK VINA RESULT:      -7.8      3.993      7.128
REMARK  Name = 
REMARK  2 active torsions:
REMARK  status: ('A' for Active; 'I' for Inactive)
REMARK    1  A    between atoms: C_4  and  C_5
REMARK    2  A    between atoms: C_13  and  C_14
REMARK                            x       y       z     vdW  Elec       q    Type
REMARK                         _______ _______ _______ _____ _____    ______ ____
ROOT
ATOM      1  O   UNL     1       3.088   3.309  20.541  0.00  0.00    +0.000 OA
ATOM      2  C   UNL     1       3.107   4.350  19.916  0.00  0.00    +0.000 C 
ATOM      3  O   UNL     1       2.438   5.503  20.203  0.00  0.00    +0.000 OA
ATOM      4  C   UNL     1       2.764   6.384  19.226  0.00  0.00    +0.000 C 
ATOM      5  N   UNL     1       3.584   5.989  18.306  0.00  0.00    +0.000 NA
ATOM      6  C   UNL     1       3.849   4.698  18.678  0.00  0.00    +0.000 C 
ATOM      7  C   UNL     1       4.659   3.830  18.061  0.00  0.00    +0.000 C 
ENDROOT
BRANCH   7   8
ATOM      8  C   UNL     1       5.431   4.196  16.874  0.00  0.00    +0.000 A 
ATOM      9  C   UNL     1       4.852   4.054  15.607  0.00  0.00    +0.000 A 
ATOM     10  C   UNL     1       5.585   4.366  14.460  0.00  0.00    +0.000 A 
ATOM     11  C   UNL     1       6.897   4.820  14.581  0.00  0.00    +0.000 A 
ATOM     12 CL   UNL     1       7.799   5.203  13.168  0.00  0.00    +0.000 Cl
ATOM     13  C   UNL     1       7.483   4.963  15.839  0.00  0.00    +0.000 A 
ATOM     14  C   UNL     1       6.750   4.649  16.986  0.00  0.00    +0.000 A 
ENDBRANCH   7   8
BRANCH   4  15
ATOM     15  C   UNL     1       2.110   7.699  19.308  0.00  0.00    +0.000 A 
ATOM     16  C   UNL     1       1.523   8.150  20.495  0.00  0.00    +0.000 A 
ATOM     17  C   UNL     1       0.863   9.380  20.521  0.00  0.00    +0.000 A 
ATOM     18  C   UNL     1       0.789  10.160  19.367  0.00  0.00    +0.000 A 
ATOM     19  C   UNL     1       1.387   9.720  18.186  0.00  0.00    +0.000 A 
ATOM     20  C   UNL     1       2.052   8.493  18.156  0.00  0.00    +0.000 A 
ENDBRANCH   4  15
TORSDOF 2
ENDMDL
MODEL 6
REMARK VINA RESULT:      -7.7      3.996      7.106
REMARK  Name = 
REMARK  2 active torsions:
REMARK  status: ('A' for Active; 'I' for Inactive)
REMARK    1  A    between atoms: C_4  and  C_5
REMARK    2  A    between atoms: C_13  and  C_14
REMARK                            x       y       z     vdW  Elec       q    Type
REMARK                         _______ _______ _______ _____ _____    ______ ____
ROOT
ATOM      1  O   UNL     1       3.109   3.354  20.598  0.00  0.00    +0.000 OA
ATOM      2  C   UNL     1       3.111   4.385  19.957  0.00  0.00    +0.000 C 
ATOM      3  O   UNL     1       2.426   5.532  20.227  0.00  0.00    +0.000 OA
ATOM      4  C   UNL     1       2.737   6.403  19.236  0.00  0.00    +0.000 C 
ATOM      5  N   UNL     1       3.560   6.005  18.320  0.00  0.00    +0.000 NA
ATOM      6  C   UNL     1       3.846   4.724  18.712  0.00  0.00    +0.000 C 
ATOM      7  C   UNL     1       4.667   3.859  18.107  0.00  0.00    +0.000 C 
ENDROOT
BRANCH   7   8
ATOM      8  C   UNL     1       5.430   4.218  16.912  0.00  0.00    +0.000 A 
ATOM      9  C   UNL     1       4.835   4.092  15.652  0.00  0.00    +0.000 A 
ATOM     10  C   UNL     1       5.559   4.397  14.498  0.00  0.00    +0.000 A 
ATOM     11  C   UNL     1       6.880   4.828  14.605  0.00  0.00    +0.000 A 
ATOM     12 CL   UNL     1       7.772   5.202  13.183  0.00  0.00    +0.000 Cl
ATOM     13  C   UNL     1       7.483   4.955  15.857  0.00  0.00    +0.000 A 
ATOM     14  C   UNL     1       6.758   4.648  17.011  0.00  0.00    +0.000 A 
ENDBRANCH   7   8
BRANCH   4  15
ATOM     15  C   UNL     1       2.064   7.709  19.299  0.00  0.00    +0.000 A 
ATOM     16  C   UNL     1       2.004   8.553  18.185  0.00  0.00    +0.000 A 
ATOM     17  C   UNL     1       1.404   9.810  18.296  0.00  0.00    +0.000 A 
ATOM     18  C   UNL     1       0.864  10.223  19.514  0.00  0.00    +0.000 A 
ATOM     19  C   UNL     1       0.908   9.376  20.622  0.00  0.00    +0.000 A 
ATOM     20  C   UNL     1       1.503   8.118  20.515  0.00  0.00    +0.000 A 
ENDBRANCH   4  15
TORSDOF 2
ENDMDL
MODEL 7
REMARK VINA RESULT:      -7.7      3.926      7.067
REMARK  Name = 
REMARK  2 active torsions:
REMARK  status: ('A' for Active; 'I' for Inactive)
REMARK    1  A    between atoms: C_4  and  C_5
REMARK    2  A    between atoms: C_13  and  C_14
REMARK                            x       y       z     vdW  Elec       q    Type
REMARK                         _______ _______ _______ _____ _____    ______ ____
ROOT
ATOM      1  O   UNL     1       3.340   3.178  20.358  0.00  0.00    +0.000 OA
ATOM      2  C   UNL     1       3.324   4.216  19.729  0.00  0.00    +0.000 C 
ATOM      3  O   UNL     1       2.640   5.357  20.027  0.00  0.00    +0.000 OA
ATOM      4  C   UNL     1       2.927   6.241  19.040  0.00  0.00    +0.000 C 
ATOM      5  N   UNL     1       3.733   5.857  18.103  0.00  0.00    +0.000 NA
ATOM      6  C   UNL     1       4.031   4.573  18.473  0.00  0.00    +0.000 C 
ATOM      7  C   UNL     1       4.843   3.718  17.841  0.00  0.00    +0.000 C 
ENDROOT
BRANCH   7   8
ATOM      8  C   UNL     1       5.580   4.094  16.635  0.00  0.00    +0.000 A 
ATOM      9  C   UNL     1       6.809   4.754  16.758  0.00  0.00    +0.000 A 
ATOM     10  C   UNL     1       7.511   5.151  15.618  0.00  0.00    +0.000 A 
ATOM     11  C   UNL     1       6.983   4.889  14.355  0.00  0.00    +0.000 A 
ATOM     12 CL   UNL     1       7.847   5.380  12.952  0.00  0.00    +0.000 Cl
ATOM     13  C   UNL     1       5.758   4.234  14.223  0.00  0.00    +0.000 A 
ATOM     14  C   UNL     1       5.055   3.838  15.364  0.00  0.00    +0.000 A 
ENDBRANCH   7   8
BRANCH   4  15
ATOM     15  C   UNL     1       2.250   7.542  19.132  0.00  0.00    +0.000 A 
ATOM     16  C   UNL     1       1.734   8.013  20.345  0.00  0.00    +0.000 A 
ATOM     17  C   UNL     1       1.049   9.230  20.384  0.00  0.00    +0.000 A 
ATOM     18  C   UNL     1       0.879   9.976  19.217  0.00  0.00    +0.000 A 
ATOM     19  C   UNL     1       1.407   9.517  18.010  0.00  0.00    +0.000 A 
ATOM     20  C   UNL     1       2.096   8.304  17.967  0.00  0.00    +0.000 A 
ENDBRANCH   4  15
TORSDOF 2
ENDMDL
MODEL 8
REMARK VINA RESULT:      -7.6      4.226      7.292
REMARK  Name = 
REMARK  2 active torsions:
REMARK  status: ('A' for Active; 'I' for Inactive)
REMARK    1  A    between atoms: C_4  and  C_5
REMARK    2  A    between atoms: C_13  and  C_14
REMARK                            x       y       z     vdW  Elec       q    Type
REMARK                         _______ _______ _______ _____ _____    ______ ____
ROOT
ATOM      1  O   UNL     1       2.216   3.809  21.534  0.00  0.00    +0.000 OA
ATOM      2  C   UNL     1       2.353   4.775  20.811  0.00  0.00    +0.000 C 
ATOM      3  O   UNL     1       1.755   5.994  20.933  0.00  0.00    +0.000 OA
ATOM      4  C   UNL     1       2.208   6.744  19.899  0.00  0.00    +0.000 C 
ATOM      5  N   UNL     1       3.053   6.199  19.083  0.00  0.00    +0.000 NA
ATOM      6  C   UNL     1       3.197   4.940  19.601  0.00  0.00    +0.000 C 
ATOM      7  C   UNL     1       3.977   3.959  19.134  0.00  0.00    +0.000 C 
ENDROOT
BRANCH   7   8
ATOM      8  C   UNL     1       4.848   4.145  17.974  0.00  0.00    +0.000 A 
ATOM      9  C   UNL     1       6.177   4.540  18.168  0.00  0.00    +0.000 A 
ATOM     10  C   UNL     1       7.014   4.756  17.071  0.00  0.00    +0.000 A 
ATOM     11  C   UNL     1       6.521   4.577  15.780  0.00  0.00    +0.000 A 
ATOM     12 CL   UNL     1       7.552   4.845  14.430  0.00  0.00    +0.000 Cl
ATOM     13  C   UNL     1       5.198   4.185  15.576  0.00  0.00    +0.000 A 
ATOM     14  C   UNL     1       4.360   3.971  16.674  0.00  0.00    +0.000 A 
ENDBRANCH   7   8
BRANCH   4  15
ATOM     15  C   UNL     1       1.651   8.101  19.802  0.00  0.00    +0.000 A 
ATOM     16  C   UNL     1       1.723   8.837  18.614  0.00  0.00    +0.000 A 
ATOM     17  C   UNL     1       1.232  10.144  18.574  0.00  0.00    +0.000 A 
ATOM     18  C   UNL     1       0.669  10.715  19.715  0.00  0.00    +0.000 A 
ATOM     19  C   UNL     1       0.580   9.978  20.896  0.00  0.00    +0.000 A 
ATOM     20  C   UNL     1       1.066   8.671  20.940  0.00  0.00    +0.000 A 
ENDBRANCH   4  15
TORSDOF 2
ENDMDL
MODEL 9
REMARK VINA RESULT:      -7.6      4.196      7.340
REMARK  Name = 
REMARK  2 active torsions:
REMARK  status: ('A' for Active; 'I' for Inactive)
REMARK    1  A    between atoms: C_4  and  C_5
REMARK    2  A    between atoms: C_13  and  C_14
REMARK                            x       y       z     vdW  Elec       q    Type
REMARK                         _______ _______ _______ _____ _____    ______ ____
ROOT
ATOM      1  O   UNL     1       2.340   3.649  21.434  0.00  0.00    +0.000 OA
ATOM      2  C   UNL     1       2.459   4.654  20.764  0.00  0.00    +0.000 C 
ATOM      3  O   UNL     1       1.847   5.857  20.954  0.00  0.00    +0.000 OA
ATOM      4  C   UNL     1       2.283   6.667  19.959  0.00  0.00    +0.000 C 
ATOM      5  N   UNL     1       3.130   6.178  19.111  0.00  0.00    +0.000 NA
ATOM      6  C   UNL     1       3.293   4.894  19.559  0.00  0.00    +0.000 C 
ATOM      7  C   UNL     1       4.082   3.950  19.035  0.00  0.00    +0.000 C 
ENDROOT
BRANCH   7   8
ATOM      8  C   UNL     1       4.943   4.210  17.881  0.00  0.00    +0.000 A 
ATOM      9  C   UNL     1       4.436   4.026  16.589  0.00  0.00    +0.000 A 
ATOM     10  C   UNL     1       5.253   4.236  15.476  0.00  0.00    +0.000 A 
ATOM     11  C   UNL     1       6.577   4.629  15.656  0.00  0.00    +0.000 A 
ATOM     12 CL   UNL     1       7.583   4.886  14.285  0.00  0.00    +0.000 Cl
ATOM     13  C   UNL     1       7.092   4.813  16.939  0.00  0.00    +0.000 A 
ATOM     14  C   UNL     1       6.275   4.601  18.053  0.00  0.00    +0.000 A 
ENDBRANCH   7   8
BRANCH   4  15
ATOM     15  C   UNL     1       1.708   8.020  19.939  0.00  0.00    +0.000 A 
ATOM     16  C   UNL     1       1.095   8.570  21.070  0.00  0.00    +0.000 A 
ATOM     17  C   UNL     1       0.511   9.837  20.997  0.00  0.00    +0.000 A 
ATOM     18  C   UNL     1       0.539  10.554  19.801  0.00  0.00    +0.000 A 
ATOM     19  C   UNL     1       1.164  10.015  18.677  0.00  0.00    +0.000 A 
ATOM     20  C   UNL     1       1.753   8.751  18.745  0.00  0.00    +0.000 A 
ENDBRANCH   4  15
TORSDOF 2
ENDMDL
