MODEL 1
REMARK VINA RESULT:      -5.6      0.000      0.000
REMARK  Name = 
REMARK  5 active torsions:
REMARK  status: ('A' for Active; 'I' for Inactive)
REMARK    1  A    between atoms: C_1  and  C_2
REMARK    2  A    between atoms: C_2  and  C_3
REMARK    3  A    between atoms: C_2  and  C_4
REMARK    4  A    between atoms: C_7  and  C_8
REMARK    5  A    between atoms: C_10  and  O_11
REMARK                            x       y       z     vdW  Elec       q    Type
REMARK                         _______ _______ _______ _____ _____    ______ ____
ROOT
ATOM      1  C   UNL     1       4.044   4.182  16.996  0.00  0.00    +0.000 C 
ATOM      2  C   UNL     1       3.238   5.269  17.743  0.00  0.00    +0.000 C 
ATOM      3  C   UNL     1       1.940   4.736  18.353  0.00  0.00    +0.000 C 
ATOM      4  C   UNL     1       2.178   3.534  19.272  0.00  0.00    +0.000 C 
ATOM      5  C   UNL     1       0.857   2.992  19.817  0.00  0.00    +0.000 C 
ATOM      6  C   UNL     1       2.942   2.440  18.519  0.00  0.00    +0.000 C 
ATOM      7  C   UNL     1       4.254   2.952  17.914  0.00  0.00    +0.000 C 
ENDROOT
BRANCH   1   9
ATOM      8  C   UNL     1       5.950   3.866  15.298  0.00  0.00    +0.000 C 
ATOM      9  C   UNL     1       5.387   4.742  16.426  0.00  0.00    +0.000 C 
ATOM     10  C   UNL     1       5.250   6.172  15.886  0.00  0.00    +0.000 C 
ENDBRANCH   1   9
BRANCH   7  11
ATOM     11  O   UNL     1       5.183   3.240  18.958  0.00  0.00    +0.000 OA
ATOM     12  H   UNL     1       5.751   3.975  18.681  0.00  0.00    +0.000 HD
ENDBRANCH   7  11
TORSDOF 2
ENDMDL
MODEL 2
REMARK VINA RESULT:      -5.5      1.335      1.468
REMARK  Name = 
REMARK  5 active torsions:
REMARK  status: ('A' for Active; 'I' for Inactive)
REMARK    1  A    between atoms: C_1  and  C_2
REMARK    2  A    between atoms: C_2  and  C_3
REMARK    3  A    between atoms: C_2  and  C_4
REMARK    4  A    between atoms: C_7  and  C_8
REMARK    5  A    between atoms: C_10  and  O_11
REMARK                            x       y       z     vdW  Elec       q    Type
REMARK                         _______ _______ _______ _____ _____    ______ ____
ROOT
ATOM      1  C   UNL     1       3.656   4.536  18.285  0.00  0.00    +0.000 C 
ATOM      2  C   UNL     1       3.332   5.370  19.546  0.00  0.00    +0.000 C 
ATOM      3  C   UNL     1       2.251   4.733  20.421  0.00  0.00    +0.000 C 
ATOM      4  C   UNL     1       2.592   3.293  20.816  0.00  0.00    +0.000 C 
ATOM      5  C   UNL     1       1.465   2.670  21.638  0.00  0.00    +0.000 C 
ATOM      6  C   UNL     1       2.873   2.457  19.563  0.00  0.00    +0.000 C 
ATOM      7  C   UNL     1       3.967   3.072  18.682  0.00  0.00    +0.000 C 
ENDROOT
BRANCH   1   9
ATOM      8  C   UNL     1       5.020   4.452  16.105  0.00  0.00    +0.000 C 
ATOM      9  C   UNL     1       4.798   5.183  17.437  0.00  0.00    +0.000 C 
ATOM     10  C   UNL     1       4.536   6.662  17.122  0.00  0.00    +0.000 C 
ENDBRANCH   1   9
BRANCH   7  11
ATOM     11  O   UNL     1       5.227   2.973  19.344  0.00  0.00    +0.000 OA
ATOM     12  H   UNL     1       5.160   3.392  20.215  0.00  0.00    +0.000 HD
ENDBRANCH   7  11
TORSDOF 2
ENDMDL
MODEL 3
REMARK VINA RESULT:      -5.5      1.559      4.361
REMARK  Name = 
REMARK  5 active torsions:
REMARK  status: ('A' for Active; 'I' for Inactive)
REMARK    1  A    between atoms: C_1  and  C_2
REMARK    2  A    between atoms: C_2  and  C_3
REMARK    3  A    between atoms: C_2  and  C_4
REMARK    4  A    between atoms: C_7  and  C_8
REMARK    5  A    between atoms: C_10  and  O_11
REMARK                            x       y       z     vdW  Elec       q    Type
REMARK                         _______ _______ _______ _____ _____    ______ ____
ROOT
ATOM      1  C   UNL     1       2.802   3.956  19.525  0.00  0.00    +0.000 C 
ATOM      2  C   UNL     1       2.183   4.721  18.332  0.00  0.00    +0.000 C 
ATOM      3  C   UNL     1       3.017   5.928  17.900  0.00  0.00    +0.000 C 
ATOM      4  C   UNL     1       4.469   5.553  17.588  0.00  0.00    +0.000 C 
ATOM      5  C   UNL     1       5.286   6.791  17.217  0.00  0.00    +0.000 C 
ATOM      6  C   UNL     1       5.094   4.831  18.786  0.00  0.00    +0.000 C 
ATOM      7  C   UNL     1       4.281   3.609  19.223  0.00  0.00    +0.000 C 
ENDROOT
BRANCH   1   9
ATOM      8  C   UNL     1       1.353   2.818  21.320  0.00  0.00    +0.000 C 
ATOM      9  C   UNL     1       1.957   2.701  19.913  0.00  0.00    +0.000 C 
ATOM     10  C   UNL     1       0.808   2.433  18.931  0.00  0.00    +0.000 C 
ENDBRANCH   1   9
BRANCH   7  11
ATOM     11  O   UNL     1       4.378   2.588  18.230  0.00  0.00    +0.000 OA
ATOM     12  H   UNL     1       5.274   2.592  17.861  0.00  0.00    +0.000 HD
ENDBRANCH   7  11
TORSDOF 2
ENDMDL
MODEL 4
REMARK VINA RESULT:      -5.5      1.811      4.451
REMARK  Name = 
REMARK  5 active torsions:
REMARK  status: ('A' for Active; 'I' for Inactive)
REMARK    1  A    between atoms: C_1  and  C_2
REMARK    2  A    between atoms: C_2  and  C_3
REMARK    3  A    between atoms: C_2  and  C_4
REMARK    4  A    between atoms: C_7  and  C_8
REMARK    5  A    between atoms: C_10  and  O_11
REMARK                            x       y       z     vdW  Elec       q    Type
REMARK                         _______ _______ _______ _____ _____    ______ ____
ROOT
ATOM      1  C   UNL     1       3.724   5.210  18.888  0.00  0.00    +0.000 C 
ATOM      2  C   UNL     1       3.869   5.766  17.452  0.00  0.00    +0.000 C 
ATOM      3  C   UNL     1       5.066   6.705  17.294  0.00  0.00    +0.000 C 
ATOM      4  C   UNL     1       6.379   6.057  17.741  0.00  0.00    +0.000 C 
ATOM      5  C   UNL     1       7.543   7.041  17.625  0.00  0.00    +0.000 C 
ATOM      6  C   UNL     1       6.248   5.542  19.179  0.00  0.00    +0.000 C 
ATOM      7  C   UNL     1       5.063   4.586  19.353  0.00  0.00    +0.000 C 
ENDROOT
BRANCH   1   9
ATOM      8  C   UNL     1       1.638   4.519  20.225  0.00  0.00    +0.000 C 
ATOM      9  C   UNL     1       2.525   4.216  19.008  0.00  0.00    +0.000 C 
ATOM     10  C   UNL     1       1.627   4.216  17.763  0.00  0.00    +0.000 C 
ENDBRANCH   1   9
BRANCH   7  11
ATOM     11  O   UNL     1       5.329   3.364  18.666  0.00  0.00    +0.000 OA
ATOM     12  H   UNL     1       5.934   3.540  17.930  0.00  0.00    +0.000 HD
ENDBRANCH   7  11
TORSDOF 2
ENDMDL
MODEL 5
REMARK VINA RESULT:      -5.4      1.380      4.390
REMARK  Name = 
REMARK  5 active torsions:
REMARK  status: ('A' for Active; 'I' for Inactive)
REMARK    1  A    between atoms: C_1  and  C_2
REMARK    2  A    between atoms: C_2  and  C_3
REMARK    3  A    between atoms: C_2  and  C_4
REMARK    4  A    between atoms: C_7  and  C_8
REMARK    5  A    between atoms: C_10  and  O_11
REMARK                            x       y       z     vdW  Elec       q    Type
REMARK                         _______ _______ _______ _____ _____    ______ ____
ROOT
ATOM      1  C   UNL     1       3.173   3.936  18.824  0.00  0.00    +0.000 C 
ATOM      2  C   UNL     1       3.255   3.557  17.327  0.00  0.00    +0.000 C 
ATOM      3  C   UNL     1       4.336   4.334  16.574  0.00  0.00    +0.000 C 
ATOM      4  C   UNL     1       5.715   4.199  17.227  0.00  0.00    +0.000 C 
ATOM      5  C   UNL     1       6.757   5.034  16.484  0.00  0.00    +0.000 C 
ATOM      6  C   UNL     1       5.641   4.614  18.700  0.00  0.00    +0.000 C 
ATOM      7  C   UNL     1       4.574   3.833  19.476  0.00  0.00    +0.000 C 
ENDROOT
BRANCH   1   9
ATOM      8  C   UNL     1       1.341   3.919  20.631  0.00  0.00    +0.000 C 
ATOM      9  C   UNL     1       2.096   3.092  19.579  0.00  0.00    +0.000 C 
ATOM     10  C   UNL     1       1.055   2.476  18.633  0.00  0.00    +0.000 C 
ENDBRANCH   1   9
BRANCH   7  11
ATOM     11  O   UNL     1       4.980   2.472  19.613  0.00  0.00    +0.000 OA
ATOM     12  H   UNL     1       5.935   2.412  19.460  0.00  0.00    +0.000 HD
ENDBRANCH   7  11
TORSDOF 2
ENDMDL
MODEL 6
REMARK VINA RESULT:      -5.3      2.303      3.012
REMARK  Name = 
REMARK  5 active torsions:
REMARK  status: ('A' for Active; 'I' for Inactive)
REMARK    1  A    between atoms: C_1  and  C_2
REMARK    2  A    between atoms: C_2  and  C_3
REMARK    3  A    between atoms: C_2  and  C_4
REMARK    4  A    between atoms: C_7  and  C_8
REMARK    5  A    between atoms: C_10  and  O_11
REMARK                            x       y       z     vdW  Elec       q    Type
REMARK                         _______ _______ _______ _____ _____    ______ ____
ROOT
ATOM      1  C   UNL     1       5.866   5.849  17.879  0.00  0.00    +0.000 C 
ATOM      2  C   UNL     1       5.357   5.252  19.212  0.00  0.00    +0.000 C 
ATOM      3  C   UNL     1       3.877   4.867  19.166  0.00  0.00    +0.000 C 
ATOM      4  C   UNL     1       3.556   3.918  18.008  0.00  0.00    +0.000 C 
ATOM      5  C   UNL     1       2.061   3.602  17.958  0.00  0.00    +0.000 C 
ATOM      6  C   UNL     1       4.024   4.529  16.683  0.00  0.00    +0.000 C 
ATOM      7  C   UNL     1       5.509   4.906  16.704  0.00  0.00    +0.000 C 
ENDROOT
BRANCH   1   9
ATOM      8  C   UNL     1       7.670   7.668  17.646  0.00  0.00    +0.000 C 
ATOM      9  C   UNL     1       7.390   6.186  17.937  0.00  0.00    +0.000 C 
ATOM     10  C   UNL     1       8.020   5.849  19.296  0.00  0.00    +0.000 C 
ENDBRANCH   1   9
BRANCH   7  11
ATOM     11  O   UNL     1       6.304   3.721  16.734  0.00  0.00    +0.000 OA
ATOM     12  H   UNL     1       7.183   3.922  16.380  0.00  0.00    +0.000 HD
ENDBRANCH   7  11
TORSDOF 2
ENDMDL
MODEL 7
REMARK VINA RESULT:      -5.3      1.417      2.031
REMARK  Name = 
REMARK  5 active torsions:
REMARK  status: ('A' for Active; 'I' for Inactive)
REMARK    1  A    between atoms: C_1  and  C_2
REMARK    2  A    between atoms: C_2  and  C_3
REMARK    3  A    between atoms: C_2  and  C_4
REMARK    4  A    between atoms: C_7  and  C_8
REMARK    5  A    between atoms: C_10  and  O_11
REMARK                            x       y       z     vdW  Elec       q    Type
REMARK                         _______ _______ _______ _____ _____    ______ ____
ROOT
ATOM      1  C   UNL     1       4.743   4.562  16.520  0.00  0.00    +0.000 C 
ATOM      2  C   UNL     1       4.951   6.040  16.924  0.00  0.00    +0.000 C 
ATOM      3  C   UNL     1       3.796   6.600  17.756  0.00  0.00    +0.000 C 
ATOM      4  C   UNL     1       3.506   5.752  18.997  0.00  0.00    +0.000 C 
ATOM      5  C   UNL     1       2.310   6.306  19.772  0.00  0.00    +0.000 C 
ATOM      6  C   UNL     1       3.259   4.295  18.592  0.00  0.00    +0.000 C 
ATOM      7  C   UNL     1       4.415   3.711  17.772  0.00  0.00    +0.000 C 
ENDROOT
BRANCH   1   9
ATOM      8  C   UNL     1       5.711   4.017  14.200  0.00  0.00    +0.000 C 
ATOM      9  C   UNL     1       5.959   4.002  15.715  0.00  0.00    +0.000 C 
ATOM     10  C   UNL     1       7.256   4.778  15.985  0.00  0.00    +0.000 C 
ENDBRANCH   1   9
BRANCH   7  11
ATOM     11  O   UNL     1       5.563   3.555  18.605  0.00  0.00    +0.000 OA
ATOM     12  H   UNL     1       5.272   3.382  19.513  0.00  0.00    +0.000 HD
ENDBRANCH   7  11
TORSDOF 2
ENDMDL
MODEL 8
REMARK VINA RESULT:      -5.3      1.428      1.692
REMARK  Name = 
REMARK  5 active torsions:
REMARK  status: ('A' for Active; 'I' for Inactive)
REMARK    1  A    between atoms: C_1  and  C_2
REMARK    2  A    between atoms: C_2  and  C_3
REMARK    3  A    between atoms: C_2  and  C_4
REMARK    4  A    between atoms: C_7  and  C_8
REMARK    5  A    between atoms: C_10  and  O_11
REMARK                            x       y       z     vdW  Elec       q    Type
REMARK                         _______ _______ _______ _____ _____    ______ ____
ROOT
ATOM      1  C   UNL     1       4.567   4.621  17.172  0.00  0.00    +0.000 C 
ATOM      2  C   UNL     1       5.024   5.098  18.570  0.00  0.00    +0.000 C 
ATOM      3  C   UNL     1       3.856   5.490  19.477  0.00  0.00    +0.000 C 
ATOM      4  C   UNL     1       2.822   4.369  19.616  0.00  0.00    +0.000 C 
ATOM      5  C   UNL     1       1.643   4.816  20.480  0.00  0.00    +0.000 C 
ATOM      6  C   UNL     1       2.340   3.924  18.231  0.00  0.00    +0.000 C 
ATOM      7  C   UNL     1       3.495   3.511  17.313  0.00  0.00    +0.000 C 
ENDROOT
BRANCH   1   9
ATOM      8  C   UNL     1       5.695   4.756  14.864  0.00  0.00    +0.000 C 
ATOM      9  C   UNL     1       5.775   4.179  16.285  0.00  0.00    +0.000 C 
ATOM     10  C   UNL     1       7.129   4.589  16.881  0.00  0.00    +0.000 C 
ENDBRANCH   1   9
BRANCH   7  11
ATOM     11  O   UNL     1       4.072   2.295  17.786  0.00  0.00    +0.000 OA
ATOM     12  H   UNL     1       4.028   1.630  17.082  0.00  0.00    +0.000 HD
ENDBRANCH   7  11
TORSDOF 2
ENDMDL
MODEL 9
REMARK VINA RESULT:      -5.3      1.680      2.563
REMARK  Name = 
REMARK  5 active torsions:
REMARK  status: ('A' for Active; 'I' for Inactive)
REMARK    1  A    between atoms: C_1  and  C_2
REMARK    2  A    between atoms: C_2  and  C_3
REMARK    3  A    between atoms: C_2  and  C_4
REMARK    4  A    between atoms: C_7  and  C_8
REMARK    5  A    between atoms: C_10  and  O_11
REMARK                            x       y       z     vdW  Elec       q    Type
REMARK                         _______ _______ _______ _____ _____    ______ ____
ROOT
ATOM      1  C   UNL     1       3.604   4.702  18.393  0.00  0.00    +0.000 C 
ATOM      2  C   UNL     1       4.094   3.308  18.848  0.00  0.00    +0.000 C 
ATOM      3  C   UNL     1       3.518   2.885  20.200  0.00  0.00    +0.000 C 
ATOM      4  C   UNL     1       1.988   2.938  20.225  0.00  0.00    +0.000 C 
ATOM      5  C   UNL     1       1.450   2.566  21.607  0.00  0.00    +0.000 C 
ATOM      6  C   UNL     1       1.504   4.332  19.813  0.00  0.00    +0.000 C 
ATOM      7  C   UNL     1       2.058   4.766  18.452  0.00  0.00    +0.000 C 
ENDROOT
BRANCH   1   9
ATOM      8  C   UNL     1       4.975   6.392  17.021  0.00  0.00    +0.000 C 
ATOM      9  C   UNL     1       4.168   5.087  16.987  0.00  0.00    +0.000 C 
ATOM     10  C   UNL     1       5.067   3.995  16.390  0.00  0.00    +0.000 C 
ENDBRANCH   1   9
BRANCH   7  11
ATOM     11  O   UNL     1       1.469   3.976  17.420  0.00  0.00    +0.000 OA
ATOM     12  H   UNL     1       2.166   3.666  16.824  0.00  0.00    +0.000 HD
ENDBRANCH   7  11
TORSDOF 2
ENDMDL
