MODEL 1
REMARK VINA RESULT:      -9.8      0.000      0.000
REMARK  Name = 
REMARK  9 active torsions:
REMARK  status: ('A' for Active; 'I' for Inactive)
REMARK    1  A    between atoms: C_1  and  C_2
REMARK    2  A    between atoms: C_3  and  C_4
REMARK    3  A    between atoms: N_6  and  C_7
REMARK    4  A    between atoms: C_7  and  C_8
REMARK    5  A    between atoms: C_8  and  C_9
REMARK    6  A    between atoms: C_9  and  N_10
REMARK    7  A    between atoms: C_13  and  C_14
REMARK    8  A    between atoms: C_23  and  C_24
REMARK    9  A    between atoms: N_35  and  C_36
REMARK                            x       y       z     vdW  Elec       q    Type
REMARK                         _______ _______ _______ _____ _____    ______ ____
ROOT
ATOM      1  C   UNL     1       2.221   6.795  18.883  0.00  0.00    +0.000 C 
ATOM      2  O   UNL     1       2.112   7.527  17.903  0.00  0.00    +0.000 OA
ATOM      3  N   UNL     1       2.048   7.249  20.165  0.00  0.00    +0.000 N 
ATOM      4  H   UNL     1       2.289   6.662  20.950  0.00  0.00    +0.000 HD
ENDROOT
BRANCH   1   7
ATOM      5  C   UNL     1       1.214   4.379  20.559  0.00  0.00    +0.000 C 
ATOM      6  C   UNL     1       2.184   4.287  19.396  0.00  0.00    +0.000 C 
ATOM      7  C   UNL     1       2.641   5.358  18.702  0.00  0.00    +0.000 C 
ATOM      8  C   UNL     1       3.609   5.203  17.545  0.00  0.00    +0.000 C 
ATOM      9  C   UNL     1       3.672   3.797  16.969  0.00  0.00    +0.000 C 
ATOM     10  C   UNL     1       3.411   2.692  17.952  0.00  0.00    +0.000 C 
ATOM     11  O   UNL     1       3.821   1.557  17.695  0.00  0.00    +0.000 OA
ATOM     12  N   UNL     1       2.615   2.987  19.058  0.00  0.00    +0.000 N 
ATOM     13  C   UNL     1       2.202   1.838  19.868  0.00  0.00    +0.000 C 
BRANCH   8  14
ATOM     14  C   UNL     1       5.003   5.720  17.888  0.00  0.00    +0.000 A 
ATOM     15  C   UNL     1       5.600   6.703  17.074  0.00  0.00    +0.000 A 
ATOM     16  C   UNL     1       6.879   7.189  17.352  0.00  0.00    +0.000 A 
ATOM     17  C   UNL     1       7.567   6.703  18.458  0.00  0.00    +0.000 A 
ATOM     18  F   UNL     1       8.790   7.178  18.732  0.00  0.00    +0.000 F 
ATOM     19  C   UNL     1       6.990   5.733  19.271  0.00  0.00    +0.000 A 
ATOM     20  F   UNL     1       7.659   5.274  20.338  0.00  0.00    +0.000 F 
ATOM     21  C   UNL     1       5.721   5.242  19.000  0.00  0.00    +0.000 A 
ENDBRANCH   8  14
ENDBRANCH   1   7
BRANCH   3  22
ATOM     22  C   UNL     1       1.664   8.628  20.434  0.00  0.00    +0.000 C 
BRANCH  22  23
ATOM     23  C   UNL     1       0.566   8.735  21.494  0.00  0.00    +0.000 C 
BRANCH  23  24
ATOM     24  C   UNL     1       0.820   9.878  22.489  0.00  0.00    +0.000 C 
BRANCH  24  25
ATOM     25  N   UNL     1       0.195  11.170  22.128  0.00  0.00    +0.000 NA
ATOM     26  C   UNL     1       0.736  11.672  20.854  0.00  0.00    +0.000 C 
ATOM     27  C   UNL     1       0.006  12.902  20.306  0.00  0.00    +0.000 C 
ATOM     28  C   UNL     1      -1.513  12.699  20.204  0.00  0.00    +0.000 C 
ATOM     29  C   UNL     1      -1.995  12.264  21.600  0.00  0.00    +0.000 C 
ATOM     30  C   UNL     1      -1.269  11.010  22.089  0.00  0.00    +0.000 C 
BRANCH  28  31
ATOM     31  C   UNL     1      -2.014  11.791  19.076  0.00  0.00    +0.000 A 
ATOM     32  C   UNL     1      -3.358  11.737  18.663  0.00  0.00    +0.000 A 
ATOM     33  C   UNL     1      -3.763  10.897  17.621  0.00  0.00    +0.000 A 
ATOM     34  C   UNL     1      -2.835  10.080  16.999  0.00  0.00    +0.000 A 
ATOM     35  F   UNL     1      -3.224   9.274  16.002  0.00  0.00    +0.000 F 
ATOM     36  C   UNL     1      -1.509  10.079  17.404  0.00  0.00    +0.000 A 
ATOM     37  C   UNL     1      -1.103  10.924  18.441  0.00  0.00    +0.000 A 
ENDBRANCH  28  31
ENDBRANCH  24  25
ENDBRANCH  23  24
ENDBRANCH  22  23
ENDBRANCH   3  22
TORSDOF 7
ENDMDL
MODEL 2
REMARK VINA RESULT:      -9.5      2.161      3.239
REMARK  Name = 
REMARK  9 active torsions:
REMARK  status: ('A' for Active; 'I' for Inactive)
REMARK    1  A    between atoms: C_1  and  C_2
REMARK    2  A    between atoms: C_3  and  C_4
REMARK    3  A    between atoms: N_6  and  C_7
REMARK    4  A    between atoms: C_7  and  C_8
REMARK    5  A    between atoms: C_8  and  C_9
REMARK    6  A    between atoms: C_9  and  N_10
REMARK    7  A    between atoms: C_13  and  C_14
REMARK    8  A    between atoms: C_23  and  C_24
REMARK    9  A    between atoms: N_35  and  C_36
REMARK                            x       y       z     vdW  Elec       q    Type
REMARK                         _______ _______ _______ _____ _____    ______ ____
ROOT
ATOM      1  C   UNL     1       2.382   7.127  18.965  0.00  0.00    +0.000 C 
ATOM      2  O   UNL     1       2.274   7.554  20.111  0.00  0.00    +0.000 OA
ATOM      3  N   UNL     1       2.188   7.918  17.861  0.00  0.00    +0.000 N 
ATOM      4  H   UNL     1       2.137   7.505  16.942  0.00  0.00    +0.000 HD
ENDROOT
BRANCH   1   7
ATOM      5  C   UNL     1       1.103   4.767  20.530  0.00  0.00    +0.000 C 
ATOM      6  C   UNL     1       2.080   4.619  19.380  0.00  0.00    +0.000 C 
ATOM      7  C   UNL     1       2.657   5.662  18.734  0.00  0.00    +0.000 C 
ATOM      8  C   UNL     1       3.626   5.452  17.587  0.00  0.00    +0.000 C 
ATOM      9  C   UNL     1       3.556   4.069  16.958  0.00  0.00    +0.000 C 
ATOM     10  C   UNL     1       3.165   2.960  17.894  0.00  0.00    +0.000 C 
ATOM     11  O   UNL     1       3.462   1.800  17.599  0.00  0.00    +0.000 OA
ATOM     12  N   UNL     1       2.382   3.295  18.998  0.00  0.00    +0.000 N 
ATOM     13  C   UNL     1       1.839   2.165  19.757  0.00  0.00    +0.000 C 
BRANCH   8  14
ATOM     14  C   UNL     1       5.059   5.809  17.971  0.00  0.00    +0.000 A 
ATOM     15  C   UNL     1       5.657   5.186  19.084  0.00  0.00    +0.000 A 
ATOM     16  C   UNL     1       6.962   5.499  19.469  0.00  0.00    +0.000 A 
ATOM     17  C   UNL     1       7.685   6.430  18.733  0.00  0.00    +0.000 A 
ATOM     18  F   UNL     1       8.942   6.722  19.096  0.00  0.00    +0.000 F 
ATOM     19  C   UNL     1       7.108   7.053  17.631  0.00  0.00    +0.000 A 
ATOM     20  F   UNL     1       7.815   7.946  16.925  0.00  0.00    +0.000 F 
ATOM     21  C   UNL     1       5.811   6.751  17.244  0.00  0.00    +0.000 A 
ENDBRANCH   8  14
ENDBRANCH   1   7
BRANCH   3  22
ATOM     22  C   UNL     1       1.896   9.339  17.992  0.00  0.00    +0.000 C 
BRANCH  22  23
ATOM     23  C   UNL     1       0.395   9.631  18.008  0.00  0.00    +0.000 C 
BRANCH  23  24
ATOM     24  C   UNL     1      -0.111  10.028  19.404  0.00  0.00    +0.000 C 
BRANCH  24  25
ATOM     25  N   UNL     1       0.030  11.465  19.732  0.00  0.00    +0.000 NA
ATOM     26  C   UNL     1      -1.085  12.240  19.162  0.00  0.00    +0.000 C 
ATOM     27  C   UNL     1      -1.126  13.702  19.617  0.00  0.00    +0.000 C 
ATOM     28  C   UNL     1      -1.089  13.854  21.145  0.00  0.00    +0.000 C 
ATOM     29  C   UNL     1       0.154  13.088  21.635  0.00  0.00    +0.000 C 
ATOM     30  C   UNL     1       0.132  11.624  21.193  0.00  0.00    +0.000 C 
BRANCH  28  31
ATOM     31  C   UNL     1      -2.368  13.490  21.906  0.00  0.00    +0.000 A 
ATOM     32  C   UNL     1      -3.612  13.292  21.280  0.00  0.00    +0.000 A 
ATOM     33  C   UNL     1      -4.750  12.952  22.019  0.00  0.00    +0.000 A 
ATOM     34  C   UNL     1      -4.661  12.833  23.396  0.00  0.00    +0.000 A 
ATOM     35  F   UNL     1      -5.752  12.508  24.104  0.00  0.00    +0.000 F 
ATOM     36  C   UNL     1      -3.460  13.057  24.050  0.00  0.00    +0.000 A 
ATOM     37  C   UNL     1      -2.322  13.390  23.310  0.00  0.00    +0.000 A 
ENDBRANCH  28  31
ENDBRANCH  24  25
ENDBRANCH  23  24
ENDBRANCH  22  23
ENDBRANCH   3  22
TORSDOF 7
ENDMDL
MODEL 3
REMARK VINA RESULT:      -9.4      2.173      3.133
REMARK  Name = 
REMARK  9 active torsions:
REMARK  status: ('A' for Active; 'I' for Inactive)
REMARK    1  A    between atoms: C_1  and  C_2
REMARK    2  A    between atoms: C_3  and  C_4
REMARK    3  A    between atoms: N_6  and  C_7
REMARK    4  A    between atoms: C_7  and  C_8
REMARK    5  A    between atoms: C_8  and  C_9
REMARK    6  A    between atoms: C_9  and  N_10
REMARK    7  A    between atoms: C_13  and  C_14
REMARK    8  A    between atoms: C_23  and  C_24
REMARK    9  A    between atoms: N_35  and  C_36
REMARK                            x       y       z     vdW  Elec       q    Type
REMARK                         _______ _______ _______ _____ _____    ______ ____
ROOT
ATOM      1  C   UNL     1       2.237   6.955  18.888  0.00  0.00    +0.000 C 
ATOM      2  O   UNL     1       2.114   7.675  17.901  0.00  0.00    +0.000 OA
ATOM      3  N   UNL     1       2.113   7.431  20.169  0.00  0.00    +0.000 N 
ATOM      4  H   UNL     1       2.366   6.850  20.954  0.00  0.00    +0.000 HD
ENDROOT
BRANCH   1   7
ATOM      5  C   UNL     1       1.174   4.575  20.581  0.00  0.00    +0.000 C 
ATOM      6  C   UNL     1       2.140   4.452  19.418  0.00  0.00    +0.000 C 
ATOM      7  C   UNL     1       2.622   5.507  18.716  0.00  0.00    +0.000 C 
ATOM      8  C   UNL     1       3.585   5.321  17.559  0.00  0.00    +0.000 C 
ATOM      9  C   UNL     1       3.613   3.911  16.992  0.00  0.00    +0.000 C 
ATOM     10  C   UNL     1       3.327   2.818  17.983  0.00  0.00    +0.000 C 
ATOM     11  O   UNL     1       3.708   1.672  17.732  0.00  0.00    +0.000 OA
ATOM     12  N   UNL     1       2.539   3.140  19.087  0.00  0.00    +0.000 N 
ATOM     13  C   UNL     1       2.099   2.006  19.905  0.00  0.00    +0.000 C 
BRANCH   8  14
ATOM     14  C   UNL     1       4.992   5.806  17.897  0.00  0.00    +0.000 A 
ATOM     15  C   UNL     1       5.599   6.792  17.095  0.00  0.00    +0.000 A 
ATOM     16  C   UNL     1       6.890   7.249  17.369  0.00  0.00    +0.000 A 
ATOM     17  C   UNL     1       7.579   6.731  18.459  0.00  0.00    +0.000 A 
ATOM     18  F   UNL     1       8.813   7.179  18.729  0.00  0.00    +0.000 F 
ATOM     19  C   UNL     1       6.991   5.759  19.262  0.00  0.00    +0.000 A 
ATOM     20  F   UNL     1       7.661   5.269  20.314  0.00  0.00    +0.000 F 
ATOM     21  C   UNL     1       5.711   5.296  18.994  0.00  0.00    +0.000 A 
ENDBRANCH   8  14
ENDBRANCH   1   7
BRANCH   3  22
ATOM     22  C   UNL     1       1.766   8.821  20.428  0.00  0.00    +0.000 C 
BRANCH  22  23
ATOM     23  C   UNL     1       0.483   8.962  21.249  0.00  0.00    +0.000 C 
BRANCH  23  24
ATOM     24  C   UNL     1      -0.610   9.741  20.502  0.00  0.00    +0.000 C 
BRANCH  24  25
ATOM     25  N   UNL     1      -0.561  11.210  20.679  0.00  0.00    +0.000 NA
ATOM     26  C   UNL     1      -1.683  11.856  19.979  0.00  0.00    +0.000 C 
ATOM     27  C   UNL     1      -1.822  13.354  20.270  0.00  0.00    +0.000 C 
ATOM     28  C   UNL     1      -1.871  13.668  21.772  0.00  0.00    +0.000 C 
ATOM     29  C   UNL     1      -0.617  13.029  22.398  0.00  0.00    +0.000 C 
ATOM     30  C   UNL     1      -0.540  11.528  22.116  0.00  0.00    +0.000 C 
BRANCH  28  31
ATOM     31  C   UNL     1      -3.166  13.315  22.510  0.00  0.00    +0.000 A 
ATOM     32  C   UNL     1      -3.198  12.820  23.827  0.00  0.00    +0.000 A 
ATOM     33  C   UNL     1      -4.408  12.521  24.460  0.00  0.00    +0.000 A 
ATOM     34  C   UNL     1      -5.599  12.688  23.775  0.00  0.00    +0.000 A 
ATOM     35  F   UNL     1      -6.759  12.400  24.382  0.00  0.00    +0.000 F 
ATOM     36  C   UNL     1      -5.605  13.138  22.464  0.00  0.00    +0.000 A 
ATOM     37  C   UNL     1      -4.395  13.443  21.834  0.00  0.00    +0.000 A 
ENDBRANCH  28  31
ENDBRANCH  24  25
ENDBRANCH  23  24
ENDBRANCH  22  23
ENDBRANCH   3  22
TORSDOF 7
ENDMDL
MODEL 4
REMARK VINA RESULT:      -9.4      6.885     10.823
REMARK  Name = 
REMARK  9 active torsions:
REMARK  status: ('A' for Active; 'I' for Inactive)
REMARK    1  A    between atoms: C_1  and  C_2
REMARK    2  A    between atoms: C_3  and  C_4
REMARK    3  A    between atoms: N_6  and  C_7
REMARK    4  A    between atoms: C_7  and  C_8
REMARK    5  A    between atoms: C_8  and  C_9
REMARK    6  A    between atoms: C_9  and  N_10
REMARK    7  A    between atoms: C_13  and  C_14
REMARK    8  A    between atoms: C_23  and  C_24
REMARK    9  A    between atoms: N_35  and  C_36
REMARK                            x       y       z     vdW  Elec       q    Type
REMARK                         _______ _______ _______ _____ _____    ______ ____
ROOT
ATOM      1  C   UNL     1       9.672  11.875  19.158  0.00  0.00    +0.000 C 
ATOM      2  O   UNL     1      10.340  11.492  20.114  0.00  0.00    +0.000 OA
ATOM      3  N   UNL     1       8.955  11.013  18.367  0.00  0.00    +0.000 N 
ATOM      4  H   UNL     1       8.540  11.338  17.507  0.00  0.00    +0.000 HD
ENDROOT
BRANCH   1   7
ATOM      5  C   UNL     1      11.760  13.237  17.302  0.00  0.00    +0.000 C 
ATOM      6  C   UNL     1      10.568  13.934  17.929  0.00  0.00    +0.000 C 
ATOM      7  C   UNL     1       9.689  13.331  18.767  0.00  0.00    +0.000 C 
ATOM      8  C   UNL     1       8.513  14.081  19.361  0.00  0.00    +0.000 C 
ATOM      9  C   UNL     1       8.158  15.366  18.629  0.00  0.00    +0.000 C 
ATOM     10  C   UNL     1       9.315  16.070  17.979  0.00  0.00    +0.000 C 
ATOM     11  O   UNL     1       9.211  17.272  17.722  0.00  0.00    +0.000 OA
ATOM     12  N   UNL     1      10.408  15.295  17.596  0.00  0.00    +0.000 N 
ATOM     13  C   UNL     1      11.411  15.976  16.771  0.00  0.00    +0.000 C 
BRANCH   8  14
ATOM     14  C   UNL     1       8.685  14.330  20.857  0.00  0.00    +0.000 A 
ATOM     15  C   UNL     1       7.733  13.817  21.761  0.00  0.00    +0.000 A 
ATOM     16  C   UNL     1       7.854  14.038  23.134  0.00  0.00    +0.000 A 
ATOM     17  C   UNL     1       8.938  14.762  23.616  0.00  0.00    +0.000 A 
ATOM     18  F   UNL     1       9.060  14.963  24.936  0.00  0.00    +0.000 F 
ATOM     19  C   UNL     1       9.886  15.272  22.736  0.00  0.00    +0.000 A 
ATOM     20  F   UNL     1      10.930  15.965  23.210  0.00  0.00    +0.000 F 
ATOM     21  C   UNL     1       9.772  15.062  21.369  0.00  0.00    +0.000 A 
ENDBRANCH   8  14
ENDBRANCH   1   7
BRANCH   3  22
ATOM     22  C   UNL     1       8.901   9.587  18.658  0.00  0.00    +0.000 C 
BRANCH  22  23
ATOM     23  C   UNL     1       7.963   8.832  17.716  0.00  0.00    +0.000 C 
BRANCH  23  24
ATOM     24  C   UNL     1       7.882   7.333  18.045  0.00  0.00    +0.000 C 
BRANCH  24  25
ATOM     25  N   UNL     1       7.228   6.502  17.009  0.00  0.00    +0.000 NA
ATOM     26  C   UNL     1       7.274   5.077  17.379  0.00  0.00    +0.000 C 
ATOM     27  C   UNL     1       6.450   4.166  16.463  0.00  0.00    +0.000 C 
ATOM     28  C   UNL     1       4.996   4.636  16.305  0.00  0.00    +0.000 C 
ATOM     29  C   UNL     1       5.054   6.101  15.833  0.00  0.00    +0.000 C 
ATOM     30  C   UNL     1       5.851   6.980  16.797  0.00  0.00    +0.000 C 
BRANCH  28  31
ATOM     31  C   UNL     1       4.067   4.419  17.503  0.00  0.00    +0.000 A 
ATOM     32  C   UNL     1       2.971   5.252  17.795  0.00  0.00    +0.000 A 
ATOM     33  C   UNL     1       2.146   5.007  18.897  0.00  0.00    +0.000 A 
ATOM     34  C   UNL     1       2.423   3.941  19.736  0.00  0.00    +0.000 A 
ATOM     35  F   UNL     1       1.633   3.706  20.792  0.00  0.00    +0.000 F 
ATOM     36  C   UNL     1       3.516   3.120  19.501  0.00  0.00    +0.000 A 
ATOM     37  C   UNL     1       4.336   3.363  18.395  0.00  0.00    +0.000 A 
ENDBRANCH  28  31
ENDBRANCH  24  25
ENDBRANCH  23  24
ENDBRANCH  22  23
ENDBRANCH   3  22
TORSDOF 7
ENDMDL
MODEL 5
REMARK VINA RESULT:      -9.4      2.047      2.938
REMARK  Name = 
REMARK  9 active torsions:
REMARK  status: ('A' for Active; 'I' for Inactive)
REMARK    1  A    between atoms: C_1  and  C_2
REMARK    2  A    between atoms: C_3  and  C_4
REMARK    3  A    between atoms: N_6  and  C_7
REMARK    4  A    between atoms: C_7  and  C_8
REMARK    5  A    between atoms: C_8  and  C_9
REMARK    6  A    between atoms: C_9  and  N_10
REMARK    7  A    between atoms: C_13  and  C_14
REMARK    8  A    between atoms: C_23  and  C_24
REMARK    9  A    between atoms: N_35  and  C_36
REMARK                            x       y       z     vdW  Elec       q    Type
REMARK                         _______ _______ _______ _____ _____    ______ ____
ROOT
ATOM      1  C   UNL     1       2.237   6.854  18.939  0.00  0.00    +0.000 C 
ATOM      2  O   UNL     1       2.150   7.606  17.972  0.00  0.00    +0.000 OA
ATOM      3  N   UNL     1       2.091   7.294  20.230  0.00  0.00    +0.000 N 
ATOM      4  H   UNL     1       2.315   6.684  21.003  0.00  0.00    +0.000 HD
ENDROOT
BRANCH   1   7
ATOM      5  C   UNL     1       1.114   4.447  20.552  0.00  0.00    +0.000 C 
ATOM      6  C   UNL     1       2.092   4.340  19.398  0.00  0.00    +0.000 C 
ATOM      7  C   UNL     1       2.600   5.405  18.731  0.00  0.00    +0.000 C 
ATOM      8  C   UNL     1       3.573   5.235  17.582  0.00  0.00    +0.000 C 
ATOM      9  C   UNL     1       3.585   3.840  16.976  0.00  0.00    +0.000 C 
ATOM     10  C   UNL     1       3.269   2.726  17.933  0.00  0.00    +0.000 C 
ATOM     11  O   UNL     1       3.634   1.581  17.655  0.00  0.00    +0.000 OA
ATOM     12  N   UNL     1       2.473   3.031  19.036  0.00  0.00    +0.000 N 
ATOM     13  C   UNL     1       2.004   1.883  19.817  0.00  0.00    +0.000 C 
BRANCH   8  14
ATOM     14  C   UNL     1       4.984   5.687  17.950  0.00  0.00    +0.000 A 
ATOM     15  C   UNL     1       5.645   5.084  19.038  0.00  0.00    +0.000 A 
ATOM     16  C   UNL     1       6.931   5.482  19.408  0.00  0.00    +0.000 A 
ATOM     17  C   UNL     1       7.572   6.479  18.683  0.00  0.00    +0.000 A 
ATOM     18  F   UNL     1       8.812   6.852  19.031  0.00  0.00    +0.000 F 
ATOM     19  C   UNL     1       6.932   7.082  17.605  0.00  0.00    +0.000 A 
ATOM     20  F   UNL     1       7.560   8.040  16.908  0.00  0.00    +0.000 F 
ATOM     21  C   UNL     1       5.653   6.696  17.232  0.00  0.00    +0.000 A 
ENDBRANCH   8  14
ENDBRANCH   1   7
BRANCH   3  22
ATOM     22  C   UNL     1       1.762   8.682  20.524  0.00  0.00    +0.000 C 
BRANCH  22  23
ATOM     23  C   UNL     1       0.821   8.820  21.721  0.00  0.00    +0.000 C 
BRANCH  23  24
ATOM     24  C   UNL     1      -0.497   9.519  21.354  0.00  0.00    +0.000 C 
BRANCH  24  25
ATOM     25  N   UNL     1      -0.503  10.986  21.556  0.00  0.00    +0.000 NA
ATOM     26  C   UNL     1      -1.153  11.665  20.423  0.00  0.00    +0.000 C 
ATOM     27  C   UNL     1      -1.377  13.165  20.638  0.00  0.00    +0.000 C 
ATOM     28  C   UNL     1      -2.116  13.476  21.949  0.00  0.00    +0.000 C 
ATOM     29  C   UNL     1      -1.315  12.801  23.078  0.00  0.00    +0.000 C 
ATOM     30  C   UNL     1      -1.150  11.299  22.842  0.00  0.00    +0.000 C 
BRANCH  28  31
ATOM     31  C   UNL     1      -3.613  13.156  21.990  0.00  0.00    +0.000 A 
ATOM     32  C   UNL     1      -4.371  12.842  20.847  0.00  0.00    +0.000 A 
ATOM     33  C   UNL     1      -5.735  12.549  20.938  0.00  0.00    +0.000 A 
ATOM     34  C   UNL     1      -6.364  12.592  22.171  0.00  0.00    +0.000 A 
ATOM     35  F   UNL     1      -7.671  12.313  22.258  0.00  0.00    +0.000 F 
ATOM     36  C   UNL     1      -5.658  12.934  23.314  0.00  0.00    +0.000 A 
ATOM     37  C   UNL     1      -4.292  13.220  23.222  0.00  0.00    +0.000 A 
ENDBRANCH  28  31
ENDBRANCH  24  25
ENDBRANCH  23  24
ENDBRANCH  22  23
ENDBRANCH   3  22
TORSDOF 7
ENDMDL
MODEL 6
REMARK VINA RESULT:      -9.4      6.787     10.752
REMARK  Name = 
REMARK  9 active torsions:
REMARK  status: ('A' for Active; 'I' for Inactive)
REMARK    1  A    between atoms: C_1  and  C_2
REMARK    2  A    between atoms: C_3  and  C_4
REMARK    3  A    between atoms: N_6  and  C_7
REMARK    4  A    between atoms: C_7  and  C_8
REMARK    5  A    between atoms: C_8  and  C_9
REMARK    6  A    between atoms: C_9  and  N_10
REMARK    7  A    between atoms: C_13  and  C_14
REMARK    8  A    between atoms: C_23  and  C_24
REMARK    9  A    between atoms: N_35  and  C_36
REMARK                            x       y       z     vdW  Elec       q    Type
REMARK                         _______ _______ _______ _____ _____    ______ ____
ROOT
ATOM      1  C   UNL     1       9.532  11.811  19.250  0.00  0.00    +0.000 C 
ATOM      2  O   UNL     1      10.002  11.470  20.332  0.00  0.00    +0.000 OA
ATOM      3  N   UNL     1       9.019  10.910  18.353  0.00  0.00    +0.000 N 
ATOM      4  H   UNL     1       8.779  11.203  17.417  0.00  0.00    +0.000 HD
ENDROOT
BRANCH   1   7
ATOM      5  C   UNL     1      11.676  13.094  17.402  0.00  0.00    +0.000 C 
ATOM      6  C   UNL     1      10.490  13.827  17.997  0.00  0.00    +0.000 C 
ATOM      7  C   UNL     1       9.586  13.259  18.832  0.00  0.00    +0.000 C 
ATOM      8  C   UNL     1       8.417  14.044  19.394  0.00  0.00    +0.000 C 
ATOM      9  C   UNL     1       8.100  15.322  18.633  0.00  0.00    +0.000 C 
ATOM     10  C   UNL     1       9.281  15.990  17.988  0.00  0.00    +0.000 C 
ATOM     11  O   UNL     1       9.207  17.188  17.707  0.00  0.00    +0.000 OA
ATOM     12  N   UNL     1      10.364  15.185  17.636  0.00  0.00    +0.000 N 
ATOM     13  C   UNL     1      11.393  15.829  16.814  0.00  0.00    +0.000 C 
BRANCH   8  14
ATOM     14  C   UNL     1       8.571  14.317  20.888  0.00  0.00    +0.000 A 
ATOM     15  C   UNL     1       9.700  15.021  21.352  0.00  0.00    +0.000 A 
ATOM     16  C   UNL     1       9.878  15.278  22.713  0.00  0.00    +0.000 A 
ATOM     17  C   UNL     1       8.918  14.844  23.620  0.00  0.00    +0.000 A 
ATOM     18  F   UNL     1       9.083  15.101  24.926  0.00  0.00    +0.000 F 
ATOM     19  C   UNL     1       7.798  14.149  23.176  0.00  0.00    +0.000 A 
ATOM     20  F   UNL     1       6.876  13.738  24.057  0.00  0.00    +0.000 F 
ATOM     21  C   UNL     1       7.615  13.886  21.826  0.00  0.00    +0.000 A 
ENDBRANCH   8  14
ENDBRANCH   1   7
BRANCH   3  22
ATOM     22  C   UNL     1       8.949   9.489  18.664  0.00  0.00    +0.000 C 
BRANCH  22  23
ATOM     23  C   UNL     1       7.888   8.759  17.838  0.00  0.00    +0.000 C 
BRANCH  23  24
ATOM     24  C   UNL     1       7.904   7.240  18.072  0.00  0.00    +0.000 C 
BRANCH  24  25
ATOM     25  N   UNL     1       7.226   6.441  17.026  0.00  0.00    +0.000 NA
ATOM     26  C   UNL     1       7.306   5.004  17.336  0.00  0.00    +0.000 C 
ATOM     27  C   UNL     1       6.464   4.118  16.412  0.00  0.00    +0.000 C 
ATOM     28  C   UNL     1       4.999   4.570  16.323  0.00  0.00    +0.000 C 
ATOM     29  C   UNL     1       5.019   6.053  15.909  0.00  0.00    +0.000 C 
ATOM     30  C   UNL     1       5.836   6.906  16.880  0.00  0.00    +0.000 C 
BRANCH  28  31
ATOM     31  C   UNL     1       4.115   4.290  17.541  0.00  0.00    +0.000 A 
ATOM     32  C   UNL     1       4.398   3.293  18.492  0.00  0.00    +0.000 A 
ATOM     33  C   UNL     1       3.563   3.082  19.594  0.00  0.00    +0.000 A 
ATOM     34  C   UNL     1       2.420   3.849  19.743  0.00  0.00    +0.000 A 
ATOM     35  F   UNL     1       1.619   3.646  20.798  0.00  0.00    +0.000 F 
ATOM     36  C   UNL     1       2.089   4.816  18.806  0.00  0.00    +0.000 A 
ATOM     37  C   UNL     1       2.928   5.030  17.709  0.00  0.00    +0.000 A 
ENDBRANCH  28  31
ENDBRANCH  24  25
ENDBRANCH  23  24
ENDBRANCH  22  23
ENDBRANCH   3  22
TORSDOF 7
ENDMDL
MODEL 7
REMARK VINA RESULT:      -9.3      1.168      1.533
REMARK  Name = 
REMARK  9 active torsions:
REMARK  status: ('A' for Active; 'I' for Inactive)
REMARK    1  A    between atoms: C_1  and  C_2
REMARK    2  A    between atoms: C_3  and  C_4
REMARK    3  A    between atoms: N_6  and  C_7
REMARK    4  A    between atoms: C_7  and  C_8
REMARK    5  A    between atoms: C_8  and  C_9
REMARK    6  A    between atoms: C_9  and  N_10
REMARK    7  A    between atoms: C_13  and  C_14
REMARK    8  A    between atoms: C_23  and  C_24
REMARK    9  A    between atoms: N_35  and  C_36
REMARK                            x       y       z     vdW  Elec       q    Type
REMARK                         _______ _______ _______ _____ _____    ______ ____
ROOT
ATOM      1  C   UNL     1       2.238   6.746  18.834  0.00  0.00    +0.000 C 
ATOM      2  O   UNL     1       2.026   7.444  17.846  0.00  0.00    +0.000 OA
ATOM      3  N   UNL     1       2.172   7.237  20.112  0.00  0.00    +0.000 N 
ATOM      4  H   UNL     1       2.496   6.680  20.889  0.00  0.00    +0.000 HD
ENDROOT
BRANCH   1   7
ATOM      5  C   UNL     1       1.233   4.323  20.501  0.00  0.00    +0.000 C 
ATOM      6  C   UNL     1       2.216   4.238  19.349  0.00  0.00    +0.000 C 
ATOM      7  C   UNL     1       2.671   5.312  18.658  0.00  0.00    +0.000 C 
ATOM      8  C   UNL     1       3.652   5.164  17.512  0.00  0.00    +0.000 C 
ATOM      9  C   UNL     1       3.733   3.758  16.937  0.00  0.00    +0.000 C 
ATOM     10  C   UNL     1       3.471   2.651  17.920  0.00  0.00    +0.000 C 
ATOM     11  O   UNL     1       3.892   1.520  17.668  0.00  0.00    +0.000 OA
ATOM     12  N   UNL     1       2.660   2.942  19.016  0.00  0.00    +0.000 N 
ATOM     13  C   UNL     1       2.248   1.790  19.824  0.00  0.00    +0.000 C 
BRANCH   8  14
ATOM     14  C   UNL     1       5.039   5.692  17.869  0.00  0.00    +0.000 A 
ATOM     15  C   UNL     1       5.642   6.668  17.052  0.00  0.00    +0.000 A 
ATOM     16  C   UNL     1       6.915   7.164  17.343  0.00  0.00    +0.000 A 
ATOM     17  C   UNL     1       7.589   6.695  18.464  0.00  0.00    +0.000 A 
ATOM     18  F   UNL     1       8.806   7.180  18.750  0.00  0.00    +0.000 F 
ATOM     19  C   UNL     1       7.005   5.732  19.280  0.00  0.00    +0.000 A 
ATOM     20  F   UNL     1       7.661   5.289  20.362  0.00  0.00    +0.000 F 
ATOM     21  C   UNL     1       5.743   5.231  18.997  0.00  0.00    +0.000 A 
ENDBRANCH   8  14
ENDBRANCH   1   7
BRANCH   3  22
ATOM     22  C   UNL     1       1.783   8.617  20.373  0.00  0.00    +0.000 C 
BRANCH  22  23
ATOM     23  C   UNL     1       1.124   8.791  21.742  0.00  0.00    +0.000 C 
BRANCH  23  24
ATOM     24  C   UNL     1      -0.273   9.424  21.645  0.00  0.00    +0.000 C 
BRANCH  24  25
ATOM     25  N   UNL     1      -0.314  10.744  20.977  0.00  0.00    +0.000 NA
ATOM     26  C   UNL     1      -0.506  10.588  19.525  0.00  0.00    +0.000 C 
ATOM     27  C   UNL     1      -0.757  11.904  18.782  0.00  0.00    +0.000 C 
ATOM     28  C   UNL     1      -1.902  12.725  19.392  0.00  0.00    +0.000 C 
ATOM     29  C   UNL     1      -1.567  12.910  20.884  0.00  0.00    +0.000 C 
ATOM     30  C   UNL     1      -1.365  11.571  21.594  0.00  0.00    +0.000 C 
BRANCH  28  31
ATOM     31  C   UNL     1      -3.325  12.214  19.147  0.00  0.00    +0.000 A 
ATOM     32  C   UNL     1      -4.412  12.512  19.989  0.00  0.00    +0.000 A 
ATOM     33  C   UNL     1      -5.695  12.029  19.717  0.00  0.00    +0.000 A 
ATOM     34  C   UNL     1      -5.901  11.219  18.613  0.00  0.00    +0.000 A 
ATOM     35  F   UNL     1      -7.131  10.754  18.353  0.00  0.00    +0.000 F 
ATOM     36  C   UNL     1      -4.847  10.873  17.781  0.00  0.00    +0.000 A 
ATOM     37  C   UNL     1      -3.566  11.363  18.051  0.00  0.00    +0.000 A 
ENDBRANCH  28  31
ENDBRANCH  24  25
ENDBRANCH  23  24
ENDBRANCH  22  23
ENDBRANCH   3  22
TORSDOF 7
ENDMDL
MODEL 8
REMARK VINA RESULT:      -9.3      2.069      2.982
REMARK  Name = 
REMARK  9 active torsions:
REMARK  status: ('A' for Active; 'I' for Inactive)
REMARK    1  A    between atoms: C_1  and  C_2
REMARK    2  A    between atoms: C_3  and  C_4
REMARK    3  A    between atoms: N_6  and  C_7
REMARK    4  A    between atoms: C_7  and  C_8
REMARK    5  A    between atoms: C_8  and  C_9
REMARK    6  A    between atoms: C_9  and  N_10
REMARK    7  A    between atoms: C_13  and  C_14
REMARK    8  A    between atoms: C_23  and  C_24
REMARK    9  A    between atoms: N_35  and  C_36
REMARK                            x       y       z     vdW  Elec       q    Type
REMARK                         _______ _______ _______ _____ _____    ______ ____
ROOT
ATOM      1  C   UNL     1       2.364   7.161  18.930  0.00  0.00    +0.000 C 
ATOM      2  O   UNL     1       2.212   7.605  20.066  0.00  0.00    +0.000 OA
ATOM      3  N   UNL     1       2.180   7.929  17.809  0.00  0.00    +0.000 N 
ATOM      4  H   UNL     1       2.166   7.499  16.895  0.00  0.00    +0.000 HD
ENDROOT
BRANCH   1   7
ATOM      5  C   UNL     1       1.188   4.803  20.578  0.00  0.00    +0.000 C 
ATOM      6  C   UNL     1       2.150   4.657  19.415  0.00  0.00    +0.000 C 
ATOM      7  C   UNL     1       2.682   5.701  18.733  0.00  0.00    +0.000 C 
ATOM      8  C   UNL     1       3.639   5.492  17.576  0.00  0.00    +0.000 C 
ATOM      9  C   UNL     1       3.605   4.091  16.983  0.00  0.00    +0.000 C 
ATOM     10  C   UNL     1       3.266   2.996  17.954  0.00  0.00    +0.000 C 
ATOM     11  O   UNL     1       3.595   1.838  17.684  0.00  0.00    +0.000 OA
ATOM     12  N   UNL     1       2.490   3.334  19.062  0.00  0.00    +0.000 N 
ATOM     13  C   UNL     1       1.996   2.207  19.859  0.00  0.00    +0.000 C 
BRANCH   8  14
ATOM     14  C   UNL     1       5.066   5.905  17.926  0.00  0.00    +0.000 A 
ATOM     15  C   UNL     1       5.730   6.857  17.126  0.00  0.00    +0.000 A 
ATOM     16  C   UNL     1       7.039   7.248  17.411  0.00  0.00    +0.000 A 
ATOM     17  C   UNL     1       7.691   6.700  18.509  0.00  0.00    +0.000 A 
ATOM     18  F   UNL     1       8.944   7.085  18.790  0.00  0.00    +0.000 F 
ATOM     19  C   UNL     1       7.048   5.761  19.309  0.00  0.00    +0.000 A 
ATOM     20  F   UNL     1       7.683   5.241  20.368  0.00  0.00    +0.000 F 
ATOM     21  C   UNL     1       5.748   5.363  19.031  0.00  0.00    +0.000 A 
ENDBRANCH   8  14
ENDBRANCH   1   7
BRANCH   3  22
ATOM     22  C   UNL     1       1.848   9.344  17.906  0.00  0.00    +0.000 C 
BRANCH  22  23
ATOM     23  C   UNL     1       0.344   9.585  18.046  0.00  0.00    +0.000 C 
BRANCH  23  24
ATOM     24  C   UNL     1      -0.060   9.957  19.481  0.00  0.00    +0.000 C 
BRANCH  24  25
ATOM     25  N   UNL     1       0.082  11.392  19.817  0.00  0.00    +0.000 NA
ATOM     26  C   UNL     1      -0.972  12.186  19.162  0.00  0.00    +0.000 C 
ATOM     27  C   UNL     1      -1.020  13.650  19.610  0.00  0.00    +0.000 C 
ATOM     28  C   UNL     1      -1.097  13.806  21.136  0.00  0.00    +0.000 C 
ATOM     29  C   UNL     1       0.091  13.019  21.720  0.00  0.00    +0.000 C 
ATOM     30  C   UNL     1       0.076  11.554  21.280  0.00  0.00    +0.000 C 
BRANCH  28  31
ATOM     31  C   UNL     1      -2.436  13.468  21.798  0.00  0.00    +0.000 A 
ATOM     32  C   UNL     1      -2.546  12.926  23.092  0.00  0.00    +0.000 A 
ATOM     33  C   UNL     1      -3.793  12.643  23.656  0.00  0.00    +0.000 A 
ATOM     34  C   UNL     1      -4.945  12.873  22.923  0.00  0.00    +0.000 A 
ATOM     35  F   UNL     1      -6.141  12.600  23.463  0.00  0.00    +0.000 F 
ATOM     36  C   UNL     1      -4.874  13.371  21.631  0.00  0.00    +0.000 A 
ATOM     37  C   UNL     1      -3.626  13.661  21.070  0.00  0.00    +0.000 A 
ENDBRANCH  28  31
ENDBRANCH  24  25
ENDBRANCH  23  24
ENDBRANCH  22  23
ENDBRANCH   3  22
TORSDOF 7
ENDMDL
MODEL 9
REMARK VINA RESULT:      -9.3      2.486      3.884
REMARK  Name = 
REMARK  9 active torsions:
REMARK  status: ('A' for Active; 'I' for Inactive)
REMARK    1  A    between atoms: C_1  and  C_2
REMARK    2  A    between atoms: C_3  and  C_4
REMARK    3  A    between atoms: N_6  and  C_7
REMARK    4  A    between atoms: C_7  and  C_8
REMARK    5  A    between atoms: C_8  and  C_9
REMARK    6  A    between atoms: C_9  and  N_10
REMARK    7  A    between atoms: C_13  and  C_14
REMARK    8  A    between atoms: C_23  and  C_24
REMARK    9  A    between atoms: N_35  and  C_36
REMARK                            x       y       z     vdW  Elec       q    Type
REMARK                         _______ _______ _______ _____ _____    ______ ____
ROOT
ATOM      1  C   UNL     1       2.388   7.181  19.007  0.00  0.00    +0.000 C 
ATOM      2  O   UNL     1       2.271   7.586  20.160  0.00  0.00    +0.000 OA
ATOM      3  N   UNL     1       2.232   8.000  17.918  0.00  0.00    +0.000 N 
ATOM      4  H   UNL     1       2.186   7.609  16.989  0.00  0.00    +0.000 HD
ENDROOT
BRANCH   1   7
ATOM      5  C   UNL     1       1.060   4.822  20.534  0.00  0.00    +0.000 C 
ATOM      6  C   UNL     1       2.030   4.673  19.377  0.00  0.00    +0.000 C 
ATOM      7  C   UNL     1       2.628   5.715  18.749  0.00  0.00    +0.000 C 
ATOM      8  C   UNL     1       3.588   5.503  17.595  0.00  0.00    +0.000 C 
ATOM      9  C   UNL     1       3.485   4.134  16.940  0.00  0.00    +0.000 C 
ATOM     10  C   UNL     1       3.072   3.018  17.858  0.00  0.00    +0.000 C 
ATOM     11  O   UNL     1       3.341   1.857  17.541  0.00  0.00    +0.000 OA
ATOM     12  N   UNL     1       2.300   3.350  18.970  0.00  0.00    +0.000 N 
ATOM     13  C   UNL     1       1.733   2.219  19.711  0.00  0.00    +0.000 C 
BRANCH   8  14
ATOM     14  C   UNL     1       5.030   5.821  17.980  0.00  0.00    +0.000 A 
ATOM     15  C   UNL     1       5.606   5.190  19.100  0.00  0.00    +0.000 A 
ATOM     16  C   UNL     1       6.919   5.467  19.486  0.00  0.00    +0.000 A 
ATOM     17  C   UNL     1       7.672   6.370  18.744  0.00  0.00    +0.000 A 
ATOM     18  F   UNL     1       8.936   6.627  19.109  0.00  0.00    +0.000 F 
ATOM     19  C   UNL     1       7.117   6.999  17.635  0.00  0.00    +0.000 A 
ATOM     20  F   UNL     1       7.852   7.865  16.923  0.00  0.00    +0.000 F 
ATOM     21  C   UNL     1       5.812   6.733  17.246  0.00  0.00    +0.000 A 
ENDBRANCH   8  14
ENDBRANCH   1   7
BRANCH   3  22
ATOM     22  C   UNL     1       1.975   9.425  18.075  0.00  0.00    +0.000 C 
BRANCH  22  23
ATOM     23  C   UNL     1       0.482   9.754  18.093  0.00  0.00    +0.000 C 
BRANCH  23  24
ATOM     24  C   UNL     1      -0.064   9.926  19.519  0.00  0.00    +0.000 C 
BRANCH  24  25
ATOM     25  N   UNL     1      -0.485  11.303  19.864  0.00  0.00    +0.000 NA
ATOM     26  C   UNL     1       0.250  11.792  21.042  0.00  0.00    +0.000 C 
ATOM     27  C   UNL     1       0.021  13.275  21.350  0.00  0.00    +0.000 C 
ATOM     28  C   UNL     1       0.279  14.183  20.139  0.00  0.00    +0.000 C 
ATOM     29  C   UNL     1      -0.596  13.647  18.991  0.00  0.00    +0.000 C 
ATOM     30  C   UNL     1      -0.306  12.176  18.691  0.00  0.00    +0.000 C 
BRANCH  28  31
ATOM     31  C   UNL     1       1.741  14.401  19.738  0.00  0.00    +0.000 A 
ATOM     32  C   UNL     1       2.171  14.517  18.404  0.00  0.00    +0.000 A 
ATOM     33  C   UNL     1       3.517  14.725  18.090  0.00  0.00    +0.000 A 
ATOM     34  C   UNL     1       4.455  14.793  19.107  0.00  0.00    +0.000 A 
ATOM     35  F   UNL     1       5.745  14.991  18.806  0.00  0.00    +0.000 F 
ATOM     36  C   UNL     1       4.074  14.647  20.432  0.00  0.00    +0.000 A 
ATOM     37  C   UNL     1       2.726  14.446  20.744  0.00  0.00    +0.000 A 
ENDBRANCH  28  31
ENDBRANCH  24  25
ENDBRANCH  23  24
ENDBRANCH  22  23
ENDBRANCH   3  22
TORSDOF 7
ENDMDL
