MODEL 1
REMARK VINA RESULT:      -8.9      0.000      0.000
REMARK  Name = 
REMARK  6 active torsions:
REMARK  status: ('A' for Active; 'I' for Inactive)
REMARK    1  A    between atoms: C_4  and  C_5
REMARK    2  A    between atoms: C_8  and  C_9
REMARK    3  A    between atoms: C_12  and  O_13
REMARK    4  A    between atoms: O_13  and  C_14
REMARK    5  A    between atoms: C_14  and  C_15
REMARK    6  A    between atoms: C_18  and  C_19
REMARK                            x       y       z     vdW  Elec       q    Type
REMARK                         _______ _______ _______ _____ _____    ______ ____
ROOT
ATOM      1  C   UNL     1       3.514   4.847  19.089  0.00  0.00    +0.000 A 
ATOM      2  C   UNL     1       2.746   4.443  20.189  0.00  0.00    +0.000 A 
ATOM      3  C   UNL     1       1.867   5.331  20.806  0.00  0.00    +0.000 A 
ATOM      4  C   UNL     1       1.776   6.649  20.364  0.00  0.00    +0.000 A 
ATOM      5  C   UNL     1       2.534   7.062  19.269  0.00  0.00    +0.000 A 
ATOM      6  C   UNL     1       3.407   6.171  18.638  0.00  0.00    +0.000 A 
ENDROOT
BRANCH   1  10
ATOM      7  C   UNL     1       5.755   4.203  16.545  0.00  0.00    +0.000 C 
ATOM      8  N   UNL     1       6.561   4.352  17.546  0.00  0.00    +0.000 NA
ATOM      9  O   UNL     1       5.817   4.186  18.733  0.00  0.00    +0.000 OA
ATOM     10  C   UNL     1       4.452   3.875  18.407  0.00  0.00    +0.000 C 
ATOM     11  C   UNL     1       4.340   3.915  16.899  0.00  0.00    +0.000 C 
BRANCH   7  15
ATOM     12  C   UNL     1       7.012   4.447  12.463  0.00  0.00    +0.000 A 
ATOM     13  C   UNL     1       5.948   3.622  12.824  0.00  0.00    +0.000 A 
ATOM     14  C   UNL     1       5.540   3.555  14.157  0.00  0.00    +0.000 A 
ATOM     15  C   UNL     1       6.196   4.313  15.135  0.00  0.00    +0.000 A 
ATOM     16  C   UNL     1       7.257   5.147  14.765  0.00  0.00    +0.000 A 
ATOM     17  C   UNL     1       7.665   5.210  13.429  0.00  0.00    +0.000 A 
ENDBRANCH   7  15
ENDBRANCH   1  10
BRANCH   4  18
ATOM     18  O   UNL     1       0.978   7.604  20.931  0.00  0.00    +0.000 OA
BRANCH  18  19
ATOM     19  C   UNL     1       1.459   8.947  20.773  0.00  0.00    +0.000 C 
BRANCH  19  20
ATOM     20  C   UNL     1       0.354   9.892  20.432  0.00  0.00    +0.000 A 
ATOM     21  C   UNL     1      -0.057  10.985  21.167  0.00  0.00    +0.000 A 
ATOM     22  S   UNL     1      -1.354  11.767  20.382  0.00  0.00    +0.000 S 
ATOM     23  C   UNL     1      -1.271  10.615  19.094  0.00  0.00    +0.000 A 
ATOM     24  N   UNL     1      -0.352   9.686  19.251  0.00  0.00    +0.000 NA
BRANCH  23  25
ATOM     25  C   UNL     1      -2.207  10.682  17.961  0.00  0.00    +0.000 A 
ATOM     26  C   UNL     1      -1.976   9.994  16.759  0.00  0.00    +0.000 A 
ATOM     27  C   UNL     1      -2.863  10.102  15.684  0.00  0.00    +0.000 A 
ATOM     28  C   UNL     1      -4.002  10.893  15.800  0.00  0.00    +0.000 A 
ATOM     29  C   UNL     1      -4.265  11.562  16.994  0.00  0.00    +0.000 A 
ATOM     30  C   UNL     1      -3.377  11.451  18.069  0.00  0.00    +0.000 A 
ENDBRANCH  23  25
ENDBRANCH  19  20
ENDBRANCH  18  19
ENDBRANCH   4  18
TORSDOF 6
ENDMDL
MODEL 2
REMARK VINA RESULT:      -8.8      2.301      9.487
REMARK  Name = 
REMARK  6 active torsions:
REMARK  status: ('A' for Active; 'I' for Inactive)
REMARK    1  A    between atoms: C_4  and  C_5
REMARK    2  A    between atoms: C_8  and  C_9
REMARK    3  A    between atoms: C_12  and  O_13
REMARK    4  A    between atoms: O_13  and  C_14
REMARK    5  A    between atoms: C_14  and  C_15
REMARK    6  A    between atoms: C_18  and  C_19
REMARK                            x       y       z     vdW  Elec       q    Type
REMARK                         _______ _______ _______ _____ _____    ______ ____
ROOT
ATOM      1  C   UNL     1       1.923   7.897  19.064  0.00  0.00    +0.000 A 
ATOM      2  C   UNL     1       2.358   7.355  17.849  0.00  0.00    +0.000 A 
ATOM      3  C   UNL     1       2.850   6.053  17.787  0.00  0.00    +0.000 A 
ATOM      4  C   UNL     1       2.960   5.288  18.947  0.00  0.00    +0.000 A 
ATOM      5  C   UNL     1       2.529   5.817  20.162  0.00  0.00    +0.000 A 
ATOM      6  C   UNL     1       2.021   7.118  20.227  0.00  0.00    +0.000 A 
ENDROOT
BRANCH   1  10
ATOM      7  C   UNL     1      -0.756  10.033  18.649  0.00  0.00    +0.000 C 
ATOM      8  N   UNL     1      -0.717   9.941  19.938  0.00  0.00    +0.000 NA
ATOM      9  O   UNL     1       0.562   9.472  20.304  0.00  0.00    +0.000 OA
ATOM     10  C   UNL     1       1.368   9.304  19.126  0.00  0.00    +0.000 C 
ATOM     11  C   UNL     1       0.490   9.639  17.941  0.00  0.00    +0.000 C 
BRANCH   7  15
ATOM     12  C   UNL     1      -4.260  11.365  16.586  0.00  0.00    +0.000 A 
ATOM     13  C   UNL     1      -4.009  11.783  17.892  0.00  0.00    +0.000 A 
ATOM     14  C   UNL     1      -2.860  11.350  18.554  0.00  0.00    +0.000 A 
ATOM     15  C   UNL     1      -1.956  10.494  17.912  0.00  0.00    +0.000 A 
ATOM     16  C   UNL     1      -2.207  10.086  16.598  0.00  0.00    +0.000 A 
ATOM     17  C   UNL     1      -3.360  10.520  15.938  0.00  0.00    +0.000 A 
ENDBRANCH   7  15
ENDBRANCH   1  10
BRANCH   4  18
ATOM     18  O   UNL     1       3.471   4.021  18.995  0.00  0.00    +0.000 OA
BRANCH  18  19
ATOM     19  C   UNL     1       4.871   3.959  19.305  0.00  0.00    +0.000 C 
BRANCH  19  20
ATOM     20  C   UNL     1       5.695   4.653  18.271  0.00  0.00    +0.000 A 
ATOM     21  C   UNL     1       6.509   5.752  18.461  0.00  0.00    +0.000 A 
ATOM     22  S   UNL     1       7.253   6.193  16.991  0.00  0.00    +0.000 S 
ATOM     23  C   UNL     1       6.466   4.875  16.194  0.00  0.00    +0.000 A 
ATOM     24  N   UNL     1       5.673   4.164  16.968  0.00  0.00    +0.000 NA
BRANCH  23  25
ATOM     25  C   UNL     1       6.660   4.639  14.755  0.00  0.00    +0.000 A 
ATOM     26  C   UNL     1       7.642   5.314  14.013  0.00  0.00    +0.000 A 
ATOM     27  C   UNL     1       7.784   5.099  12.639  0.00  0.00    +0.000 A 
ATOM     28  C   UNL     1       6.950   4.195  11.989  0.00  0.00    +0.000 A 
ATOM     29  C   UNL     1       5.987   3.493  12.711  0.00  0.00    +0.000 A 
ATOM     30  C   UNL     1       5.848   3.708  14.086  0.00  0.00    +0.000 A 
ENDBRANCH  23  25
ENDBRANCH  19  20
ENDBRANCH  18  19
ENDBRANCH   4  18
TORSDOF 6
ENDMDL
MODEL 3
REMARK VINA RESULT:      -8.6      3.079     10.618
REMARK  Name = 
REMARK  6 active torsions:
REMARK  status: ('A' for Active; 'I' for Inactive)
REMARK    1  A    between atoms: C_4  and  C_5
REMARK    2  A    between atoms: C_8  and  C_9
REMARK    3  A    between atoms: C_12  and  O_13
REMARK    4  A    between atoms: O_13  and  C_14
REMARK    5  A    between atoms: C_14  and  C_15
REMARK    6  A    between atoms: C_18  and  C_19
REMARK                            x       y       z     vdW  Elec       q    Type
REMARK                         _______ _______ _______ _____ _____    ______ ____
ROOT
ATOM      1  C   UNL     1       1.174   9.605  19.200  0.00  0.00    +0.000 A 
ATOM      2  C   UNL     1       1.814   9.095  18.063  0.00  0.00    +0.000 A 
ATOM      3  C   UNL     1       2.448   7.855  18.099  0.00  0.00    +0.000 A 
ATOM      4  C   UNL     1       2.494   7.125  19.286  0.00  0.00    +0.000 A 
ATOM      5  C   UNL     1       1.860   7.621  20.423  0.00  0.00    +0.000 A 
ATOM      6  C   UNL     1       1.211   8.859  20.388  0.00  0.00    +0.000 A 
ENDROOT
BRANCH   1  10
ATOM      7  C   UNL     1      -0.900  11.901  20.728  0.00  0.00    +0.000 C 
ATOM      8  N   UNL     1       0.253  12.462  20.902  0.00  0.00    +0.000 NA
ATOM      9  O   UNL     1       1.156  11.900  19.975  0.00  0.00    +0.000 OA
ATOM     10  C   UNL     1       0.468  10.942  19.153  0.00  0.00    +0.000 C 
ATOM     11  C   UNL     1      -0.956  10.870  19.659  0.00  0.00    +0.000 C 
BRANCH   7  15
ATOM     12  C   UNL     1      -4.331  12.844  23.104  0.00  0.00    +0.000 A 
ATOM     13  C   UNL     1      -3.202  12.274  23.691  0.00  0.00    +0.000 A 
ATOM     14  C   UNL     1      -2.085  11.977  22.910  0.00  0.00    +0.000 A 
ATOM     15  C   UNL     1      -2.092  12.248  21.536  0.00  0.00    +0.000 A 
ATOM     16  C   UNL     1      -3.224  12.830  20.953  0.00  0.00    +0.000 A 
ATOM     17  C   UNL     1      -4.342  13.124  21.738  0.00  0.00    +0.000 A 
ENDBRANCH   7  15
ENDBRANCH   1  10
BRANCH   4  18
ATOM     18  O   UNL     1       3.130   5.923  19.432  0.00  0.00    +0.000 OA
BRANCH  18  19
ATOM     19  C   UNL     1       3.088   5.086  18.266  0.00  0.00    +0.000 C 
BRANCH  19  20
ATOM     20  C   UNL     1       4.445   4.902  17.672  0.00  0.00    +0.000 A 
ATOM     21  C   UNL     1       5.642   4.812  18.353  0.00  0.00    +0.000 A 
ATOM     22  S   UNL     1       6.929   4.604  17.254  0.00  0.00    +0.000 S 
ATOM     23  C   UNL     1       5.809   4.618  15.935  0.00  0.00    +0.000 A 
ATOM     24  N   UNL     1       4.554   4.797  16.288  0.00  0.00    +0.000 NA
BRANCH  23  25
ATOM     25  C   UNL     1       6.277   4.488  14.546  0.00  0.00    +0.000 A 
ATOM     26  C   UNL     1       5.658   3.626  13.628  0.00  0.00    +0.000 A 
ATOM     27  C   UNL     1       6.144   3.493  12.323  0.00  0.00    +0.000 A 
ATOM     28  C   UNL     1       7.250   4.232  11.916  0.00  0.00    +0.000 A 
ATOM     29  C   UNL     1       7.862   5.115  12.804  0.00  0.00    +0.000 A 
ATOM     30  C   UNL     1       7.374   5.247  14.108  0.00  0.00    +0.000 A 
ENDBRANCH  23  25
ENDBRANCH  19  20
ENDBRANCH  18  19
ENDBRANCH   4  18
TORSDOF 6
ENDMDL
MODEL 4
REMARK VINA RESULT:      -8.4      2.880      3.953
REMARK  Name = 
REMARK  6 active torsions:
REMARK  status: ('A' for Active; 'I' for Inactive)
REMARK    1  A    between atoms: C_4  and  C_5
REMARK    2  A    between atoms: C_8  and  C_9
REMARK    3  A    between atoms: C_12  and  O_13
REMARK    4  A    between atoms: O_13  and  C_14
REMARK    5  A    between atoms: C_14  and  C_15
REMARK    6  A    between atoms: C_18  and  C_19
REMARK                            x       y       z     vdW  Elec       q    Type
REMARK                         _______ _______ _______ _____ _____    ______ ____
ROOT
ATOM      1  C   UNL     1       3.972   6.252  18.243  0.00  0.00    +0.000 A 
ATOM      2  C   UNL     1       3.733   7.397  17.472  0.00  0.00    +0.000 A 
ATOM      3  C   UNL     1       2.761   8.321  17.853  0.00  0.00    +0.000 A 
ATOM      4  C   UNL     1       1.980   8.091  18.985  0.00  0.00    +0.000 A 
ATOM      5  C   UNL     1       2.210   6.956  19.760  0.00  0.00    +0.000 A 
ATOM      6  C   UNL     1       3.193   6.033  19.389  0.00  0.00    +0.000 A 
ENDROOT
BRANCH   1  10
ATOM      7  C   UNL     1       6.095   5.031  15.812  0.00  0.00    +0.000 C 
ATOM      8  N   UNL     1       6.924   5.701  16.543  0.00  0.00    +0.000 NA
ATOM      9  O   UNL     1       6.329   5.902  17.806  0.00  0.00    +0.000 OA
ATOM     10  C   UNL     1       5.042   5.262  17.839  0.00  0.00    +0.000 C 
ATOM     11  C   UNL     1       4.808   4.675  16.465  0.00  0.00    +0.000 C 
BRANCH   7  15
ATOM     12  C   UNL     1       6.975   3.972  11.761  0.00  0.00    +0.000 A 
ATOM     13  C   UNL     1       7.778   4.886  12.441  0.00  0.00    +0.000 A 
ATOM     14  C   UNL     1       7.488   5.220  13.764  0.00  0.00    +0.000 A 
ATOM     15  C   UNL     1       6.391   4.640  14.414  0.00  0.00    +0.000 A 
ATOM     16  C   UNL     1       5.594   3.714  13.730  0.00  0.00    +0.000 A 
ATOM     17  C   UNL     1       5.887   3.384  12.404  0.00  0.00    +0.000 A 
ENDBRANCH   7  15
ENDBRANCH   1  10
BRANCH   4  18
ATOM     18  O   UNL     1       0.975   8.913  19.413  0.00  0.00    +0.000 OA
BRANCH  18  19
ATOM     19  C   UNL     1       0.977   9.162  20.827  0.00  0.00    +0.000 C 
BRANCH  19  20
ATOM     20  C   UNL     1       0.614  10.576  21.138  0.00  0.00    +0.000 A 
ATOM     21  C   UNL     1       1.213  11.714  20.637  0.00  0.00    +0.000 A 
ATOM     22  S   UNL     1       0.458  13.105  21.274  0.00  0.00    +0.000 S 
ATOM     23  C   UNL     1      -0.641  12.105  22.160  0.00  0.00    +0.000 A 
ATOM     24  N   UNL     1      -0.442  10.813  22.014  0.00  0.00    +0.000 NA
BRANCH  23  25
ATOM     25  C   UNL     1      -1.667  12.700  23.031  0.00  0.00    +0.000 A 
ATOM     26  C   UNL     1      -2.832  12.007  23.393  0.00  0.00    +0.000 A 
ATOM     27  C   UNL     1      -3.809  12.607  24.194  0.00  0.00    +0.000 A 
ATOM     28  C   UNL     1      -3.627  13.907  24.653  0.00  0.00    +0.000 A 
ATOM     29  C   UNL     1      -2.465  14.604  24.329  0.00  0.00    +0.000 A 
ATOM     30  C   UNL     1      -1.488  14.001  23.530  0.00  0.00    +0.000 A 
ENDBRANCH  23  25
ENDBRANCH  19  20
ENDBRANCH  18  19
ENDBRANCH   4  18
TORSDOF 6
ENDMDL
MODEL 5
REMARK VINA RESULT:      -8.4      3.002      3.743
REMARK  Name = 
REMARK  6 active torsions:
REMARK  status: ('A' for Active; 'I' for Inactive)
REMARK    1  A    between atoms: C_4  and  C_5
REMARK    2  A    between atoms: C_8  and  C_9
REMARK    3  A    between atoms: C_12  and  O_13
REMARK    4  A    between atoms: O_13  and  C_14
REMARK    5  A    between atoms: C_14  and  C_15
REMARK    6  A    between atoms: C_18  and  C_19
REMARK                            x       y       z     vdW  Elec       q    Type
REMARK                         _______ _______ _______ _____ _____    ______ ____
ROOT
ATOM      1  C   UNL     1       3.765   5.508  18.383  0.00  0.00    +0.000 A 
ATOM      2  C   UNL     1       3.068   5.302  19.580  0.00  0.00    +0.000 A 
ATOM      3  C   UNL     1       2.259   6.304  20.113  0.00  0.00    +0.000 A 
ATOM      4  C   UNL     1       2.172   7.545  19.483  0.00  0.00    +0.000 A 
ATOM      5  C   UNL     1       2.860   7.760  18.291  0.00  0.00    +0.000 A 
ATOM      6  C   UNL     1       3.662   6.753  17.745  0.00  0.00    +0.000 A 
ENDROOT
BRANCH   1  10
ATOM      7  C   UNL     1       5.943   4.471  15.916  0.00  0.00    +0.000 C 
ATOM      8  N   UNL     1       6.761   4.649  16.902  0.00  0.00    +0.000 NA
ATOM      9  O   UNL     1       6.011   4.647  18.096  0.00  0.00    +0.000 OA
ATOM     10  C   UNL     1       4.625   4.411  17.794  0.00  0.00    +0.000 C 
ATOM     11  C   UNL     1       4.512   4.323  16.289  0.00  0.00    +0.000 C 
BRANCH   7  15
ATOM     12  C   UNL     1       7.212   4.248  11.835  0.00  0.00    +0.000 A 
ATOM     13  C   UNL     1       6.187   3.426  12.301  0.00  0.00    +0.000 A 
ATOM     14  C   UNL     1       5.775   3.510  13.631  0.00  0.00    +0.000 A 
ATOM     15  C   UNL     1       6.387   4.420  14.503  0.00  0.00    +0.000 A 
ATOM     16  C   UNL     1       7.408   5.250  14.028  0.00  0.00    +0.000 A 
ATOM     17  C   UNL     1       7.820   5.161  12.696  0.00  0.00    +0.000 A 
ENDBRANCH   7  15
ENDBRANCH   1  10
BRANCH   4  18
ATOM     18  O   UNL     1       1.443   8.603  19.952  0.00  0.00    +0.000 OA
BRANCH  18  19
ATOM     19  C   UNL     1       0.946   9.478  18.928  0.00  0.00    +0.000 C 
BRANCH  19  20
ATOM     20  C   UNL     1       0.885  10.894  19.397  0.00  0.00    +0.000 A 
ATOM     21  C   UNL     1       0.215  11.371  20.506  0.00  0.00    +0.000 A 
ATOM     22  S   UNL     1       0.431  13.057  20.643  0.00  0.00    +0.000 S 
ATOM     23  C   UNL     1       1.429  13.046  19.230  0.00  0.00    +0.000 A 
ATOM     24  N   UNL     1       1.570  11.864  18.671  0.00  0.00    +0.000 NA
BRANCH  23  25
ATOM     25  C   UNL     1       2.008  14.294  18.706  0.00  0.00    +0.000 A 
ATOM     26  C   UNL     1       1.369  15.534  18.855  0.00  0.00    +0.000 A 
ATOM     27  C   UNL     1       1.922  16.700  18.317  0.00  0.00    +0.000 A 
ATOM     28  C   UNL     1       3.131  16.642  17.631  0.00  0.00    +0.000 A 
ATOM     29  C   UNL     1       3.797  15.425  17.496  0.00  0.00    +0.000 A 
ATOM     30  C   UNL     1       3.242  14.261  18.037  0.00  0.00    +0.000 A 
ENDBRANCH  23  25
ENDBRANCH  19  20
ENDBRANCH  18  19
ENDBRANCH   4  18
TORSDOF 6
ENDMDL
MODEL 6
REMARK VINA RESULT:      -8.4      7.141      9.430
REMARK  Name = 
REMARK  6 active torsions:
REMARK  status: ('A' for Active; 'I' for Inactive)
REMARK    1  A    between atoms: C_4  and  C_5
REMARK    2  A    between atoms: C_8  and  C_9
REMARK    3  A    between atoms: C_12  and  O_13
REMARK    4  A    between atoms: O_13  and  C_14
REMARK    5  A    between atoms: C_14  and  C_15
REMARK    6  A    between atoms: C_18  and  C_19
REMARK                            x       y       z     vdW  Elec       q    Type
REMARK                         _______ _______ _______ _____ _____    ______ ____
ROOT
ATOM      1  C   UNL     1       7.012   5.981  17.999  0.00  0.00    +0.000 A 
ATOM      2  C   UNL     1       8.002   6.285  18.942  0.00  0.00    +0.000 A 
ATOM      3  C   UNL     1       8.551   7.564  19.010  0.00  0.00    +0.000 A 
ATOM      4  C   UNL     1       8.153   8.547  18.105  0.00  0.00    +0.000 A 
ATOM      5  C   UNL     1       7.168   8.257  17.164  0.00  0.00    +0.000 A 
ATOM      6  C   UNL     1       6.605   6.978  17.100  0.00  0.00    +0.000 A 
ENDROOT
BRANCH   1  10
ATOM      7  C   UNL     1       4.202   3.987  18.175  0.00  0.00    +0.000 C 
ATOM      8  N   UNL     1       4.409   4.001  16.898  0.00  0.00    +0.000 NA
ATOM      9  O   UNL     1       5.746   4.394  16.678  0.00  0.00    +0.000 OA
ATOM     10  C   UNL     1       6.402   4.598  17.940  0.00  0.00    +0.000 C 
ATOM     11  C   UNL     1       5.365   4.370  19.017  0.00  0.00    +0.000 C 
BRANCH   7  15
ATOM     12  C   UNL     1       0.465   2.929  19.971  0.00  0.00    +0.000 A 
ATOM     13  C   UNL     1       1.333   3.809  20.616  0.00  0.00    +0.000 A 
ATOM     14  C   UNL     1       2.546   4.154  20.019  0.00  0.00    +0.000 A 
ATOM     15  C   UNL     1       2.897   3.619  18.773  0.00  0.00    +0.000 A 
ATOM     16  C   UNL     1       2.018   2.745  18.125  0.00  0.00    +0.000 A 
ATOM     17  C   UNL     1       0.804   2.399  18.727  0.00  0.00    +0.000 A 
ENDBRANCH   7  15
ENDBRANCH   1  10
BRANCH   4  18
ATOM     18  O   UNL     1       8.664   9.815  18.064  0.00  0.00    +0.000 OA
BRANCH  18  19
ATOM     19  C   UNL     1       9.281  10.244  19.287  0.00  0.00    +0.000 C 
BRANCH  19  20
ATOM     20  C   UNL     1      10.174  11.421  19.070  0.00  0.00    +0.000 A 
ATOM     21  C   UNL     1      11.554  11.420  19.050  0.00  0.00    +0.000 A 
ATOM     22  S   UNL     1      12.138  12.997  18.766  0.00  0.00    +0.000 S 
ATOM     23  C   UNL     1      10.513  13.583  18.659  0.00  0.00    +0.000 A 
ATOM     24  N   UNL     1       9.590  12.665  18.852  0.00  0.00    +0.000 NA
BRANCH  23  25
ATOM     25  C   UNL     1      10.239  15.008  18.421  0.00  0.00    +0.000 A 
ATOM     26  C   UNL     1       9.472  15.780  19.307  0.00  0.00    +0.000 A 
ATOM     27  C   UNL     1       9.195  17.124  19.040  0.00  0.00    +0.000 A 
ATOM     28  C   UNL     1       9.693  17.719  17.886  0.00  0.00    +0.000 A 
ATOM     29  C   UNL     1      10.480  16.979  17.006  0.00  0.00    +0.000 A 
ATOM     30  C   UNL     1      10.757  15.635  17.276  0.00  0.00    +0.000 A 
ENDBRANCH  23  25
ENDBRANCH  19  20
ENDBRANCH  18  19
ENDBRANCH   4  18
TORSDOF 6
ENDMDL
MODEL 7
REMARK VINA RESULT:      -8.4      2.789     10.444
REMARK  Name = 
REMARK  6 active torsions:
REMARK  status: ('A' for Active; 'I' for Inactive)
REMARK    1  A    between atoms: C_4  and  C_5
REMARK    2  A    between atoms: C_8  and  C_9
REMARK    3  A    between atoms: C_12  and  O_13
REMARK    4  A    between atoms: O_13  and  C_14
REMARK    5  A    between atoms: C_14  and  C_15
REMARK    6  A    between atoms: C_18  and  C_19
REMARK                            x       y       z     vdW  Elec       q    Type
REMARK                         _______ _______ _______ _____ _____    ______ ____
ROOT
ATOM      1  C   UNL     1       1.096   9.964  18.855  0.00  0.00    +0.000 A 
ATOM      2  C   UNL     1       1.805   9.409  17.782  0.00  0.00    +0.000 A 
ATOM      3  C   UNL     1       2.440   8.175  17.911  0.00  0.00    +0.000 A 
ATOM      4  C   UNL     1       2.415   7.498  19.129  0.00  0.00    +0.000 A 
ATOM      5  C   UNL     1       1.711   8.040  20.203  0.00  0.00    +0.000 A 
ATOM      6  C   UNL     1       1.062   9.271  20.074  0.00  0.00    +0.000 A 
ENDROOT
BRANCH   1  10
ATOM      7  C   UNL     1      -1.728  11.879  19.372  0.00  0.00    +0.000 C 
ATOM      8  N   UNL     1      -0.949  12.342  20.295  0.00  0.00    +0.000 NA
ATOM      9  O   UNL     1       0.377  11.996  19.960  0.00  0.00    +0.000 OA
ATOM     10  C   UNL     1       0.390  11.294  18.706  0.00  0.00    +0.000 C 
ATOM     11  C   UNL     1      -1.051  11.146  18.270  0.00  0.00    +0.000 C 
BRANCH   7  15
ATOM     12  C   UNL     1      -5.975  12.397  19.374  0.00  0.00    +0.000 A 
ATOM     13  C   UNL     1      -5.345  11.749  18.313  0.00  0.00    +0.000 A 
ATOM     14  C   UNL     1      -3.960  11.578  18.324  0.00  0.00    +0.000 A 
ATOM     15  C   UNL     1      -3.198  12.055  19.399  0.00  0.00    +0.000 A 
ATOM     16  C   UNL     1      -3.838  12.695  20.467  0.00  0.00    +0.000 A 
ATOM     17  C   UNL     1      -5.225  12.867  20.451  0.00  0.00    +0.000 A 
ENDBRANCH   7  15
ENDBRANCH   1  10
BRANCH   4  18
ATOM     18  O   UNL     1       3.044   6.307  19.367  0.00  0.00    +0.000 OA
BRANCH  18  19
ATOM     19  C   UNL     1       3.008   5.389  18.263  0.00  0.00    +0.000 C 
BRANCH  19  20
ATOM     20  C   UNL     1       4.372   5.145  17.706  0.00  0.00    +0.000 A 
ATOM     21  C   UNL     1       5.553   5.060  18.415  0.00  0.00    +0.000 A 
ATOM     22  S   UNL     1       6.856   4.769  17.353  0.00  0.00    +0.000 S 
ATOM     23  C   UNL     1       5.762   4.747  16.013  0.00  0.00    +0.000 A 
ATOM     24  N   UNL     1       4.505   4.971  16.331  0.00  0.00    +0.000 NA
BRANCH  23  25
ATOM     25  C   UNL     1       6.253   4.540  14.641  0.00  0.00    +0.000 A 
ATOM     26  C   UNL     1       7.384   5.207  14.145  0.00  0.00    +0.000 A 
ATOM     27  C   UNL     1       7.810   5.021  12.826  0.00  0.00    +0.000 A 
ATOM     28  C   UNL     1       7.116   4.154  11.988  0.00  0.00    +0.000 A 
ATOM     29  C   UNL     1       6.007   3.460  12.470  0.00  0.00    +0.000 A 
ATOM     30  C   UNL     1       5.583   3.647  13.789  0.00  0.00    +0.000 A 
ENDBRANCH  23  25
ENDBRANCH  19  20
ENDBRANCH  18  19
ENDBRANCH   4  18
TORSDOF 6
ENDMDL
MODEL 8
REMARK VINA RESULT:      -8.3      2.123      2.827
REMARK  Name = 
REMARK  6 active torsions:
REMARK  status: ('A' for Active; 'I' for Inactive)
REMARK    1  A    between atoms: C_4  and  C_5
REMARK    2  A    between atoms: C_8  and  C_9
REMARK    3  A    between atoms: C_12  and  O_13
REMARK    4  A    between atoms: O_13  and  C_14
REMARK    5  A    between atoms: C_14  and  C_15
REMARK    6  A    between atoms: C_18  and  C_19
REMARK                            x       y       z     vdW  Elec       q    Type
REMARK                         _______ _______ _______ _____ _____    ______ ____
ROOT
ATOM      1  C   UNL     1       3.790   5.451  18.373  0.00  0.00    +0.000 A 
ATOM      2  C   UNL     1       3.161   5.263  19.610  0.00  0.00    +0.000 A 
ATOM      3  C   UNL     1       2.354   6.259  20.156  0.00  0.00    +0.000 A 
ATOM      4  C   UNL     1       2.202   7.478  19.497  0.00  0.00    +0.000 A 
ATOM      5  C   UNL     1       2.822   7.676  18.265  0.00  0.00    +0.000 A 
ATOM      6  C   UNL     1       3.621   6.673  17.707  0.00  0.00    +0.000 A 
ENDROOT
BRANCH   1  10
ATOM      7  C   UNL     1       5.970   4.440  15.896  0.00  0.00    +0.000 C 
ATOM      8  N   UNL     1       6.787   4.602  16.885  0.00  0.00    +0.000 NA
ATOM      9  O   UNL     1       6.034   4.587  18.079  0.00  0.00    +0.000 OA
ATOM     10  C   UNL     1       4.648   4.359  17.772  0.00  0.00    +0.000 C 
ATOM     11  C   UNL     1       4.537   4.291  16.265  0.00  0.00    +0.000 C 
BRANCH   7  15
ATOM     12  C   UNL     1       7.241   4.266  11.814  0.00  0.00    +0.000 A 
ATOM     13  C   UNL     1       6.180   3.478  12.256  0.00  0.00    +0.000 A 
ATOM     14  C   UNL     1       5.767   3.546  13.587  0.00  0.00    +0.000 A 
ATOM     15  C   UNL     1       6.416   4.405  14.484  0.00  0.00    +0.000 A 
ATOM     16  C   UNL     1       7.473   5.203  14.032  0.00  0.00    +0.000 A 
ATOM     17  C   UNL     1       7.886   5.130  12.699  0.00  0.00    +0.000 A 
ENDBRANCH   7  15
ENDBRANCH   1  10
BRANCH   4  18
ATOM     18  O   UNL     1       1.469   8.530  19.973  0.00  0.00    +0.000 OA
BRANCH  18  19
ATOM     19  C   UNL     1       1.176   9.537  18.993  0.00  0.00    +0.000 C 
BRANCH  19  20
ATOM     20  C   UNL     1       0.668  10.790  19.626  0.00  0.00    +0.000 A 
ATOM     21  C   UNL     1       1.324  12.002  19.707  0.00  0.00    +0.000 A 
ATOM     22  S   UNL     1       0.352  13.144  20.518  0.00  0.00    +0.000 S 
ATOM     23  C   UNL     1      -0.900  11.962  20.688  0.00  0.00    +0.000 A 
ATOM     24  N   UNL     1      -0.601  10.778  20.197  0.00  0.00    +0.000 NA
BRANCH  23  25
ATOM     25  C   UNL     1      -2.157  12.288  21.379  0.00  0.00    +0.000 A 
ATOM     26  C   UNL     1      -3.330  12.614  20.680  0.00  0.00    +0.000 A 
ATOM     27  C   UNL     1      -4.503  12.955  21.359  0.00  0.00    +0.000 A 
ATOM     28  C   UNL     1      -4.522  12.964  22.750  0.00  0.00    +0.000 A 
ATOM     29  C   UNL     1      -3.377  12.617  23.464  0.00  0.00    +0.000 A 
ATOM     30  C   UNL     1      -2.205  12.274  22.782  0.00  0.00    +0.000 A 
ENDBRANCH  23  25
ENDBRANCH  19  20
ENDBRANCH  18  19
ENDBRANCH   4  18
TORSDOF 6
ENDMDL
MODEL 9
REMARK VINA RESULT:      -8.3      2.850      3.849
REMARK  Name = 
REMARK  6 active torsions:
REMARK  status: ('A' for Active; 'I' for Inactive)
REMARK    1  A    between atoms: C_4  and  C_5
REMARK    2  A    between atoms: C_8  and  C_9
REMARK    3  A    between atoms: C_12  and  O_13
REMARK    4  A    between atoms: O_13  and  C_14
REMARK    5  A    between atoms: C_14  and  C_15
REMARK    6  A    between atoms: C_18  and  C_19
REMARK                            x       y       z     vdW  Elec       q    Type
REMARK                         _______ _______ _______ _____ _____    ______ ____
ROOT
ATOM      1  C   UNL     1       3.942   6.104  18.246  0.00  0.00    +0.000 A 
ATOM      2  C   UNL     1       3.793   7.326  17.578  0.00  0.00    +0.000 A 
ATOM      3  C   UNL     1       2.839   8.252  17.994  0.00  0.00    +0.000 A 
ATOM      4  C   UNL     1       1.986   7.951  19.055  0.00  0.00    +0.000 A 
ATOM      5  C   UNL     1       2.126   6.739  19.728  0.00  0.00    +0.000 A 
ATOM      6  C   UNL     1       3.091   5.813  19.322  0.00  0.00    +0.000 A 
ENDROOT
BRANCH   1  10
ATOM      7  C   UNL     1       6.090   4.973  15.793  0.00  0.00    +0.000 C 
ATOM      8  N   UNL     1       6.920   5.572  16.584  0.00  0.00    +0.000 NA
ATOM      9  O   UNL     1       6.299   5.711  17.843  0.00  0.00    +0.000 OA
ATOM     10  C   UNL     1       4.994   5.109  17.805  0.00  0.00    +0.000 C 
ATOM     11  C   UNL     1       4.778   4.616  16.392  0.00  0.00    +0.000 C 
BRANCH   7  15
ATOM     12  C   UNL     1       6.995   3.999  11.726  0.00  0.00    +0.000 A 
ATOM     13  C   UNL     1       5.937   3.372  12.382  0.00  0.00    +0.000 A 
ATOM     14  C   UNL     1       5.645   3.701  13.706  0.00  0.00    +0.000 A 
ATOM     15  C   UNL     1       6.410   4.661  14.381  0.00  0.00    +0.000 A 
ATOM     16  C   UNL     1       7.465   5.295  13.714  0.00  0.00    +0.000 A 
ATOM     17  C   UNL     1       7.756   4.960  12.388  0.00  0.00    +0.000 A 
ENDBRANCH   7  15
ENDBRANCH   1  10
BRANCH   4  18
ATOM     18  O   UNL     1       0.991   8.774  19.507  0.00  0.00    +0.000 OA
BRANCH  18  19
ATOM     19  C   UNL     1       1.155   9.208  20.866  0.00  0.00    +0.000 C 
BRANCH  19  20
ATOM     20  C   UNL     1       0.715  10.623  21.048  0.00  0.00    +0.000 A 
ATOM     21  C   UNL     1       1.173  11.728  20.359  0.00  0.00    +0.000 A 
ATOM     22  S   UNL     1       0.379  13.134  20.908  0.00  0.00    +0.000 S 
ATOM     23  C   UNL     1      -0.550  12.180  22.014  0.00  0.00    +0.000 A 
ATOM     24  N   UNL     1      -0.266  10.896  21.997  0.00  0.00    +0.000 NA
BRANCH  23  25
ATOM     25  C   UNL     1      -1.529  12.809  22.914  0.00  0.00    +0.000 A 
ATOM     26  C   UNL     1      -1.302  14.061  23.507  0.00  0.00    +0.000 A 
ATOM     27  C   UNL     1      -2.232  14.621  24.388  0.00  0.00    +0.000 A 
ATOM     28  C   UNL     1      -3.410  13.941  24.678  0.00  0.00    +0.000 A 
ATOM     29  C   UNL     1      -3.668  12.710  24.079  0.00  0.00    +0.000 A 
ATOM     30  C   UNL     1      -2.737  12.152  23.197  0.00  0.00    +0.000 A 
ENDBRANCH  23  25
ENDBRANCH  19  20
ENDBRANCH  18  19
ENDBRANCH   4  18
TORSDOF 6
ENDMDL
