MODEL 1
REMARK VINA RESULT:      -9.0      0.000      0.000
REMARK  Name = 
REMARK  7 active torsions:
REMARK  status: ('A' for Active; 'I' for Inactive)
REMARK    1  A    between atoms: C_1  and  C_2
REMARK    2  A    between atoms: C_5  and  N_6
REMARK    3  A    between atoms: N_6  and  C_7
REMARK    4  A    between atoms: N_6  and  C_20
REMARK    5  A    between atoms: C_7  and  C_8
REMARK    6  A    between atoms: N_10  and  C_11
REMARK    7  A    between atoms: C_11  and  C_12
REMARK                            x       y       z     vdW  Elec       q    Type
REMARK                         _______ _______ _______ _____ _____    ______ ____
ROOT
ATOM      1  N   UNL     1       3.249   5.985  18.079  0.00  0.00    +0.000 N 
ENDROOT
BRANCH   1   2
ATOM      2  C   UNL     1       4.445   5.871  17.306  0.00  0.00    +0.000 C 
ATOM      3  C   UNL     1       5.568   6.618  17.323  0.00  0.00    +0.000 C 
ATOM      4  C   UNL     1       6.766   6.368  16.462  0.00  0.00    +0.000 C 
ATOM      5  O   UNL     1       7.824   6.954  16.666  0.00  0.00    +0.000 OA
ATOM      6  C   UNL     1       6.594   5.456  15.316  0.00  0.00    +0.000 A 
ATOM      7  C   UNL     1       7.573   5.255  14.341  0.00  0.00    +0.000 A 
ATOM      8  C   UNL     1       7.309   4.405  13.258  0.00  0.00    +0.000 A 
ATOM      9  C   UNL     1       6.063   3.780  13.130  0.00  0.00    +0.000 A 
ATOM     10  C   UNL     1       5.111   3.939  14.128  0.00  0.00    +0.000 A 
ATOM     11  C   UNL     1       5.407   4.751  15.225  0.00  0.00    +0.000 A 
ATOM     12  C   UNL     1       4.600   4.657  16.429  0.00  0.00    +0.000 C 
ATOM     13  O   UNL     1       4.227   3.532  16.733  0.00  0.00    +0.000 OA
ENDBRANCH   1   2
BRANCH   1  18
ATOM     14  C   UNL     1       1.074   2.398  22.120  0.00  0.00    +0.000 C 
ATOM     15  C   UNL     1       1.659   3.251  21.032  0.00  0.00    +0.000 A 
ATOM     16  C   UNL     1       2.934   3.784  21.160  0.00  0.00    +0.000 A 
ATOM     17  C   UNL     1       3.469   4.615  20.163  0.00  0.00    +0.000 A 
ATOM     18  C   UNL     1       2.750   5.001  19.009  0.00  0.00    +0.000 A 
ATOM     19  C   UNL     1       1.525   4.326  18.845  0.00  0.00    +0.000 A 
ATOM     20  C   UNL     1       0.976   3.487  19.841  0.00  0.00    +0.000 A 
ENDBRANCH   1  18
BRANCH   1  21
ATOM     21  C   UNL     1       2.231   7.020  17.651  0.00  0.00    +0.000 C 
BRANCH  21  22
ATOM     22  C   UNL     1       2.003   8.310  18.415  0.00  0.00    +0.000 A 
ATOM     23  C   UNL     1       1.840   9.603  17.945  0.00  0.00    +0.000 A 
ATOM     24  N   UNL     1       1.210  10.272  18.960  0.00  0.00    +0.000 N 
ATOM     25  N   UNL     1       1.152   9.496  20.061  0.00  0.00    +0.000 NA
ATOM     26  N   UNL     1       1.625   8.295  19.738  0.00  0.00    +0.000 NA
BRANCH  24  27
ATOM     27  C   UNL     1       0.286  11.393  18.796  0.00  0.00    +0.000 C 
BRANCH  27  28
ATOM     28  C   UNL     1      -1.147  11.045  18.465  0.00  0.00    +0.000 A 
ATOM     29  C   UNL     1      -2.176  11.882  18.941  0.00  0.00    +0.000 A 
ATOM     30  C   UNL     1      -3.504  11.682  18.561  0.00  0.00    +0.000 A 
ATOM     31  C   UNL     1      -3.828  10.643  17.692  0.00  0.00    +0.000 A 
ATOM     32  C   UNL     1      -2.823   9.806  17.208  0.00  0.00    +0.000 A 
ATOM     33  C   UNL     1      -1.490  10.010  17.587  0.00  0.00    +0.000 A 
ENDBRANCH  27  28
ENDBRANCH  24  27
ENDBRANCH  21  22
ENDBRANCH   1  21
TORSDOF 6
ENDMDL
MODEL 2
REMARK VINA RESULT:      -9.0      4.485      8.204
REMARK  Name = 
REMARK  7 active torsions:
REMARK  status: ('A' for Active; 'I' for Inactive)
REMARK    1  A    between atoms: C_1  and  C_2
REMARK    2  A    between atoms: C_5  and  N_6
REMARK    3  A    between atoms: N_6  and  C_7
REMARK    4  A    between atoms: N_6  and  C_20
REMARK    5  A    between atoms: C_7  and  C_8
REMARK    6  A    between atoms: N_10  and  C_11
REMARK    7  A    between atoms: C_11  and  C_12
REMARK                            x       y       z     vdW  Elec       q    Type
REMARK                         _______ _______ _______ _____ _____    ______ ____
ROOT
ATOM      1  N   UNL     1       5.274   5.563  16.516  0.00  0.00    +0.000 N 
ENDROOT
BRANCH   1   2
ATOM      2  C   UNL     1       4.714   4.785  17.574  0.00  0.00    +0.000 C 
ATOM      3  C   UNL     1       5.308   3.952  18.453  0.00  0.00    +0.000 C 
ATOM      4  C   UNL     1       4.591   3.210  19.536  0.00  0.00    +0.000 C 
ATOM      5  O   UNL     1       5.211   2.631  20.422  0.00  0.00    +0.000 OA
ATOM      6  C   UNL     1       3.121   3.136  19.444  0.00  0.00    +0.000 A 
ATOM      7  C   UNL     1       2.337   2.349  20.289  0.00  0.00    +0.000 A 
ATOM      8  C   UNL     1       0.948   2.300  20.102  0.00  0.00    +0.000 A 
ATOM      9  C   UNL     1       0.345   3.010  19.058  0.00  0.00    +0.000 A 
ATOM     10  C   UNL     1       1.120   3.835  18.253  0.00  0.00    +0.000 A 
ATOM     11  C   UNL     1       2.495   3.909  18.482  0.00  0.00    +0.000 A 
ATOM     12  C   UNL     1       3.263   5.003  17.912  0.00  0.00    +0.000 C 
ATOM     13  O   UNL     1       2.704   6.093  17.895  0.00  0.00    +0.000 OA
ENDBRANCH   1   2
BRANCH   1  18
ATOM     14  C   UNL     1       7.325   3.803  11.357  0.00  0.00    +0.000 C 
ATOM     15  C   UNL     1       6.849   4.196  12.724  0.00  0.00    +0.000 A 
ATOM     16  C   UNL     1       5.653   3.701  13.225  0.00  0.00    +0.000 A 
ATOM     17  C   UNL     1       5.184   4.098  14.488  0.00  0.00    +0.000 A 
ATOM     18  C   UNL     1       5.851   5.043  15.300  0.00  0.00    +0.000 A 
ATOM     19  C   UNL     1       7.125   5.407  14.825  0.00  0.00    +0.000 A 
ATOM     20  C   UNL     1       7.609   5.014  13.557  0.00  0.00    +0.000 A 
ENDBRANCH   1  18
BRANCH   1  21
ATOM     21  C   UNL     1       5.634   7.003  16.817  0.00  0.00    +0.000 C 
BRANCH  21  22
ATOM     22  C   UNL     1       6.971   7.409  17.406  0.00  0.00    +0.000 A 
ATOM     23  C   UNL     1       7.610   8.638  17.395  0.00  0.00    +0.000 A 
ATOM     24  N   UNL     1       8.502   8.582  18.432  0.00  0.00    +0.000 N 
ATOM     25  N   UNL     1       8.548   7.333  18.937  0.00  0.00    +0.000 NA
ATOM     26  N   UNL     1       7.614   6.611  18.324  0.00  0.00    +0.000 NA
BRANCH  24  27
ATOM     27  C   UNL     1       8.950   9.720  19.233  0.00  0.00    +0.000 C 
BRANCH  27  28
ATOM     28  C   UNL     1       9.558  10.880  18.479  0.00  0.00    +0.000 A 
ATOM     29  C   UNL     1       8.720  11.936  18.067  0.00  0.00    +0.000 A 
ATOM     30  C   UNL     1       9.246  13.089  17.482  0.00  0.00    +0.000 A 
ATOM     31  C   UNL     1      10.621  13.211  17.302  0.00  0.00    +0.000 A 
ATOM     32  C   UNL     1      11.467  12.178  17.707  0.00  0.00    +0.000 A 
ATOM     33  C   UNL     1      10.939  11.023  18.297  0.00  0.00    +0.000 A 
ENDBRANCH  27  28
ENDBRANCH  24  27
ENDBRANCH  21  22
ENDBRANCH   1  21
TORSDOF 6
ENDMDL
MODEL 3
REMARK VINA RESULT:      -8.9      0.341      1.205
REMARK  Name = 
REMARK  7 active torsions:
REMARK  status: ('A' for Active; 'I' for Inactive)
REMARK    1  A    between atoms: C_1  and  C_2
REMARK    2  A    between atoms: C_5  and  N_6
REMARK    3  A    between atoms: N_6  and  C_7
REMARK    4  A    between atoms: N_6  and  C_20
REMARK    5  A    between atoms: C_7  and  C_8
REMARK    6  A    between atoms: N_10  and  C_11
REMARK    7  A    between atoms: C_11  and  C_12
REMARK                            x       y       z     vdW  Elec       q    Type
REMARK                         _______ _______ _______ _____ _____    ______ ____
ROOT
ATOM      1  N   UNL     1       3.147   6.305  18.141  0.00  0.00    +0.000 N 
ENDROOT
BRANCH   1   2
ATOM      2  C   UNL     1       4.348   6.088  17.400  0.00  0.00    +0.000 C 
ATOM      3  C   UNL     1       5.520   6.755  17.423  0.00  0.00    +0.000 C 
ATOM      4  C   UNL     1       6.716   6.399  16.598  0.00  0.00    +0.000 C 
ATOM      5  O   UNL     1       7.807   6.917  16.811  0.00  0.00    +0.000 OA
ATOM      6  C   UNL     1       6.507   5.468  15.474  0.00  0.00    +0.000 A 
ATOM      7  C   UNL     1       7.490   5.172  14.528  0.00  0.00    +0.000 A 
ATOM      8  C   UNL     1       7.192   4.311  13.463  0.00  0.00    +0.000 A 
ATOM      9  C   UNL     1       5.909   3.771  13.322  0.00  0.00    +0.000 A 
ATOM     10  C   UNL     1       4.948   4.023  14.292  0.00  0.00    +0.000 A 
ATOM     11  C   UNL     1       5.276   4.844  15.374  0.00  0.00    +0.000 A 
ATOM     12  C   UNL     1       4.438   4.841  16.561  0.00  0.00    +0.000 C 
ATOM     13  O   UNL     1       3.982   3.753  16.886  0.00  0.00    +0.000 OA
ENDBRANCH   1   2
BRANCH   1  18
ATOM     14  C   UNL     1       1.156   2.290  21.862  0.00  0.00    +0.000 C 
ATOM     15  C   UNL     1       1.614   3.383  20.940  0.00  0.00    +0.000 A 
ATOM     16  C   UNL     1       1.099   3.485  19.655  0.00  0.00    +0.000 A 
ATOM     17  C   UNL     1       1.554   4.482  18.776  0.00  0.00    +0.000 A 
ATOM     18  C   UNL     1       2.577   5.398  19.107  0.00  0.00    +0.000 A 
ATOM     19  C   UNL     1       2.967   5.356  20.460  0.00  0.00    +0.000 A 
ATOM     20  C   UNL     1       2.517   4.360  21.355  0.00  0.00    +0.000 A 
ENDBRANCH   1  18
BRANCH   1  21
ATOM     21  C   UNL     1       2.196   7.372  17.641  0.00  0.00    +0.000 C 
BRANCH  21  22
ATOM     22  C   UNL     1       1.893   8.633  18.427  0.00  0.00    +0.000 A 
ATOM     23  C   UNL     1       1.773   9.943  17.992  0.00  0.00    +0.000 A 
ATOM     24  N   UNL     1       1.047  10.574  18.966  0.00  0.00    +0.000 N 
ATOM     25  N   UNL     1       0.886   9.758  20.026  0.00  0.00    +0.000 NA
ATOM     26  N   UNL     1       1.391   8.570  19.706  0.00  0.00    +0.000 NA
BRANCH  24  27
ATOM     27  C   UNL     1       0.139  11.701  18.756  0.00  0.00    +0.000 C 
BRANCH  27  28
ATOM     28  C   UNL     1      -1.275  11.363  18.345  0.00  0.00    +0.000 A 
ATOM     29  C   UNL     1      -1.488  10.268  17.483  0.00  0.00    +0.000 A 
ATOM     30  C   UNL     1      -2.777   9.832  17.173  0.00  0.00    +0.000 A 
ATOM     31  C   UNL     1      -3.880  10.479  17.724  0.00  0.00    +0.000 A 
ATOM     32  C   UNL     1      -3.689  11.563  18.582  0.00  0.00    +0.000 A 
ATOM     33  C   UNL     1      -2.395  11.997  18.896  0.00  0.00    +0.000 A 
ENDBRANCH  27  28
ENDBRANCH  24  27
ENDBRANCH  21  22
ENDBRANCH   1  21
TORSDOF 6
ENDMDL
MODEL 4
REMARK VINA RESULT:      -8.9      3.132      6.534
REMARK  Name = 
REMARK  7 active torsions:
REMARK  status: ('A' for Active; 'I' for Inactive)
REMARK    1  A    between atoms: C_1  and  C_2
REMARK    2  A    between atoms: C_5  and  N_6
REMARK    3  A    between atoms: N_6  and  C_7
REMARK    4  A    between atoms: N_6  and  C_20
REMARK    5  A    between atoms: C_7  and  C_8
REMARK    6  A    between atoms: N_10  and  C_11
REMARK    7  A    between atoms: C_11  and  C_12
REMARK                            x       y       z     vdW  Elec       q    Type
REMARK                         _______ _______ _______ _____ _____    ______ ____
ROOT
ATOM      1  N   UNL     1       0.496  10.231  19.202  0.00  0.00    +0.000 N 
ENDROOT
BRANCH   1   2
ATOM      2  C   UNL     1       1.374   9.119  19.025  0.00  0.00    +0.000 C 
ATOM      3  C   UNL     1       2.200   8.814  18.003  0.00  0.00    +0.000 C 
ATOM      4  C   UNL     1       3.090   7.612  17.961  0.00  0.00    +0.000 C 
ATOM      5  O   UNL     1       3.959   7.499  17.103  0.00  0.00    +0.000 OA
ATOM      6  C   UNL     1       2.824   6.541  18.940  0.00  0.00    +0.000 A 
ATOM      7  C   UNL     1       3.466   5.302  18.915  0.00  0.00    +0.000 A 
ATOM      8  C   UNL     1       3.119   4.322  19.856  0.00  0.00    +0.000 A 
ATOM      9  C   UNL     1       2.114   4.564  20.799  0.00  0.00    +0.000 A 
ATOM     10  C   UNL     1       1.515   5.815  20.856  0.00  0.00    +0.000 A 
ATOM     11  C   UNL     1       1.906   6.797  19.942  0.00  0.00    +0.000 A 
ATOM     12  C   UNL     1       1.571   8.189  20.193  0.00  0.00    +0.000 C 
ATOM     13  O   UNL     1       1.632   8.548  21.361  0.00  0.00    +0.000 OA
ENDBRANCH   1   2
BRANCH   1  18
ATOM     14  C   UNL     1      -4.544  11.294  16.483  0.00  0.00    +0.000 C 
ATOM     15  C   UNL     1      -3.282  10.947  17.218  0.00  0.00    +0.000 A 
ATOM     16  C   UNL     1      -2.986  11.544  18.435  0.00  0.00    +0.000 A 
ATOM     17  C   UNL     1      -1.787  11.252  19.106  0.00  0.00    +0.000 A 
ATOM     18  C   UNL     1      -0.797  10.390  18.583  0.00  0.00    +0.000 A 
ATOM     19  C   UNL     1      -1.197   9.696  17.425  0.00  0.00    +0.000 A 
ATOM     20  C   UNL     1      -2.400   9.979  16.741  0.00  0.00    +0.000 A 
ENDBRANCH   1  18
BRANCH   1  21
ATOM     21  C   UNL     1       1.081  11.504  19.777  0.00  0.00    +0.000 C 
BRANCH  21  22
ATOM     22  C   UNL     1       0.619  12.097  21.093  0.00  0.00    +0.000 A 
ATOM     23  C   UNL     1       0.369  13.416  21.434  0.00  0.00    +0.000 A 
ATOM     24  N   UNL     1      -0.449  13.351  22.529  0.00  0.00    +0.000 N 
ATOM     25  N   UNL     1      -0.552  12.076  22.955  0.00  0.00    +0.000 NA
ATOM     26  N   UNL     1       0.089  11.302  22.084  0.00  0.00    +0.000 NA
BRANCH  24  27
ATOM     27  C   UNL     1      -1.467  14.335  22.892  0.00  0.00    +0.000 C 
BRANCH  27  28
ATOM     28  C   UNL     1      -2.908  13.911  22.724  0.00  0.00    +0.000 A 
ATOM     29  C   UNL     1      -3.423  13.758  21.421  0.00  0.00    +0.000 A 
ATOM     30  C   UNL     1      -4.704  13.246  21.206  0.00  0.00    +0.000 A 
ATOM     31  C   UNL     1      -5.493  12.872  22.290  0.00  0.00    +0.000 A 
ATOM     32  C   UNL     1      -4.999  13.012  23.587  0.00  0.00    +0.000 A 
ATOM     33  C   UNL     1      -3.712  13.522  23.802  0.00  0.00    +0.000 A 
ENDBRANCH  27  28
ENDBRANCH  24  27
ENDBRANCH  21  22
ENDBRANCH   1  21
TORSDOF 6
ENDMDL
MODEL 5
REMARK VINA RESULT:      -8.8      3.145      6.584
REMARK  Name = 
REMARK  7 active torsions:
REMARK  status: ('A' for Active; 'I' for Inactive)
REMARK    1  A    between atoms: C_1  and  C_2
REMARK    2  A    between atoms: C_5  and  N_6
REMARK    3  A    between atoms: N_6  and  C_7
REMARK    4  A    between atoms: N_6  and  C_20
REMARK    5  A    between atoms: C_7  and  C_8
REMARK    6  A    between atoms: N_10  and  C_11
REMARK    7  A    between atoms: C_11  and  C_12
REMARK                            x       y       z     vdW  Elec       q    Type
REMARK                         _______ _______ _______ _____ _____    ______ ____
ROOT
ATOM      1  N   UNL     1       0.491  10.299  19.309  0.00  0.00    +0.000 N 
ENDROOT
BRANCH   1   2
ATOM      2  C   UNL     1       1.349   9.178  19.092  0.00  0.00    +0.000 C 
ATOM      3  C   UNL     1       2.153   8.883  18.050  0.00  0.00    +0.000 C 
ATOM      4  C   UNL     1       3.023   7.670  17.965  0.00  0.00    +0.000 C 
ATOM      5  O   UNL     1       3.875   7.563  17.089  0.00  0.00    +0.000 OA
ATOM      6  C   UNL     1       2.757   6.581  18.925  0.00  0.00    +0.000 A 
ATOM      7  C   UNL     1       3.380   5.334  18.862  0.00  0.00    +0.000 A 
ATOM      8  C   UNL     1       3.034   4.338  19.786  0.00  0.00    +0.000 A 
ATOM      9  C   UNL     1       2.049   4.575  20.752  0.00  0.00    +0.000 A 
ATOM     10  C   UNL     1       1.470   5.833  20.847  0.00  0.00    +0.000 A 
ATOM     11  C   UNL     1       1.860   6.829  19.948  0.00  0.00    +0.000 A 
ATOM     12  C   UNL     1       1.552   8.219  20.235  0.00  0.00    +0.000 C 
ATOM     13  O   UNL     1       1.638   8.551  21.411  0.00  0.00    +0.000 OA
ENDBRANCH   1   2
BRANCH   1  18
ATOM     14  C   UNL     1      -4.703  10.997  16.769  0.00  0.00    +0.000 C 
ATOM     15  C   UNL     1      -3.334  10.884  17.374  0.00  0.00    +0.000 A 
ATOM     16  C   UNL     1      -2.437   9.929  16.916  0.00  0.00    +0.000 A 
ATOM     17  C   UNL     1      -1.170   9.793  17.506  0.00  0.00    +0.000 A 
ATOM     18  C   UNL     1      -0.743  10.563  18.612  0.00  0.00    +0.000 A 
ATOM     19  C   UNL     1      -1.619  11.612  18.950  0.00  0.00    +0.000 A 
ATOM     20  C   UNL     1      -2.896  11.761  18.364  0.00  0.00    +0.000 A 
ENDBRANCH   1  18
BRANCH   1  21
ATOM     21  C   UNL     1       1.064  11.490  20.048  0.00  0.00    +0.000 C 
BRANCH  21  22
ATOM     22  C   UNL     1       0.489  11.998  21.355  0.00  0.00    +0.000 A 
ATOM     23  C   UNL     1       0.137  13.284  21.730  0.00  0.00    +0.000 A 
ATOM     24  N   UNL     1      -0.739  13.123  22.770  0.00  0.00    +0.000 N 
ATOM     25  N   UNL     1      -0.786  11.827  23.140  0.00  0.00    +0.000 NA
ATOM     26  N   UNL     1      -0.047  11.131  22.280  0.00  0.00    +0.000 NA
BRANCH  24  27
ATOM     27  C   UNL     1      -1.837  14.027  23.106  0.00  0.00    +0.000 C 
BRANCH  27  28
ATOM     28  C   UNL     1      -3.237  13.497  22.900  0.00  0.00    +0.000 A 
ATOM     29  C   UNL     1      -4.080  13.353  24.021  0.00  0.00    +0.000 A 
ATOM     30  C   UNL     1      -5.420  12.991  23.875  0.00  0.00    +0.000 A 
ATOM     31  C   UNL     1      -5.946  12.771  22.604  0.00  0.00    +0.000 A 
ATOM     32  C   UNL     1      -5.127  12.912  21.483  0.00  0.00    +0.000 A 
ATOM     33  C   UNL     1      -3.784  13.280  21.630  0.00  0.00    +0.000 A 
ENDBRANCH  27  28
ENDBRANCH  24  27
ENDBRANCH  21  22
ENDBRANCH   1  21
TORSDOF 6
ENDMDL
MODEL 6
REMARK VINA RESULT:      -8.6      2.502      8.168
REMARK  Name = 
REMARK  7 active torsions:
REMARK  status: ('A' for Active; 'I' for Inactive)
REMARK    1  A    between atoms: C_1  and  C_2
REMARK    2  A    between atoms: C_5  and  N_6
REMARK    3  A    between atoms: N_6  and  C_7
REMARK    4  A    between atoms: N_6  and  C_20
REMARK    5  A    between atoms: C_7  and  C_8
REMARK    6  A    between atoms: N_10  and  C_11
REMARK    7  A    between atoms: C_11  and  C_12
REMARK                            x       y       z     vdW  Elec       q    Type
REMARK                         _______ _______ _______ _____ _____    ______ ____
ROOT
ATOM      1  N   UNL     1       2.580   6.844  19.193  0.00  0.00    +0.000 N 
ENDROOT
BRANCH   1   2
ATOM      2  C   UNL     1       1.862   8.012  19.592  0.00  0.00    +0.000 C 
ATOM      3  C   UNL     1       1.660   8.536  20.818  0.00  0.00    +0.000 C 
ATOM      4  C   UNL     1       0.896   9.793  21.089  0.00  0.00    +0.000 C 
ATOM      5  O   UNL     1       0.921  10.321  22.196  0.00  0.00    +0.000 OA
ATOM      6  C   UNL     1       0.054  10.319  19.998  0.00  0.00    +0.000 A 
ATOM      7  C   UNL     1      -0.831  11.386  20.158  0.00  0.00    +0.000 A 
ATOM      8  C   UNL     1      -1.630  11.793  19.080  0.00  0.00    +0.000 A 
ATOM      9  C   UNL     1      -1.569  11.119  17.855  0.00  0.00    +0.000 A 
ATOM     10  C   UNL     1      -0.649  10.093  17.682  0.00  0.00    +0.000 A 
ATOM     11  C   UNL     1       0.173   9.731  18.752  0.00  0.00    +0.000 A 
ATOM     12  C   UNL     1       1.361   8.930  18.509  0.00  0.00    +0.000 C 
ATOM     13  O   UNL     1       1.972   9.184  17.479  0.00  0.00    +0.000 OA
ENDBRANCH   1   2
BRANCH   1  18
ATOM     14  C   UNL     1       0.876   1.284  18.882  0.00  0.00    +0.000 C 
ATOM     15  C   UNL     1       1.230   2.740  18.961  0.00  0.00    +0.000 A 
ATOM     16  C   UNL     1       1.581   3.445  17.819  0.00  0.00    +0.000 A 
ATOM     17  C   UNL     1       1.952   4.798  17.896  0.00  0.00    +0.000 A 
ATOM     18  C   UNL     1       2.040   5.509  19.113  0.00  0.00    +0.000 A 
ATOM     19  C   UNL     1       1.537   4.805  20.225  0.00  0.00    +0.000 A 
ATOM     20  C   UNL     1       1.161   3.445  20.161  0.00  0.00    +0.000 A 
ENDBRANCH   1  18
BRANCH   1  21
ATOM     21  C   UNL     1       4.093   6.912  19.200  0.00  0.00    +0.000 C 
BRANCH  21  22
ATOM     22  C   UNL     1       4.925   6.784  17.940  0.00  0.00    +0.000 A 
ATOM     23  C   UNL     1       6.188   6.244  17.761  0.00  0.00    +0.000 A 
ATOM     24  N   UNL     1       6.261   5.948  16.426  0.00  0.00    +0.000 N 
ATOM     25  N   UNL     1       5.185   6.444  15.782  0.00  0.00    +0.000 NA
ATOM     26  N   UNL     1       4.361   6.949  16.696  0.00  0.00    +0.000 NA
BRANCH  24  27
ATOM     27  C   UNL     1       7.039   4.861  15.836  0.00  0.00    +0.000 C 
BRANCH  27  28
ATOM     28  C   UNL     1       6.823   4.596  14.364  0.00  0.00    +0.000 A 
ATOM     29  C   UNL     1       7.701   5.185  13.432  0.00  0.00    +0.000 A 
ATOM     30  C   UNL     1       7.628   4.874  12.074  0.00  0.00    +0.000 A 
ATOM     31  C   UNL     1       6.678   3.963  11.620  0.00  0.00    +0.000 A 
ATOM     32  C   UNL     1       5.802   3.367  12.528  0.00  0.00    +0.000 A 
ATOM     33  C   UNL     1       5.879   3.676  13.892  0.00  0.00    +0.000 A 
ENDBRANCH  27  28
ENDBRANCH  24  27
ENDBRANCH  21  22
ENDBRANCH   1  21
TORSDOF 6
ENDMDL
MODEL 7
REMARK VINA RESULT:      -8.6      2.552      8.334
REMARK  Name = 
REMARK  7 active torsions:
REMARK  status: ('A' for Active; 'I' for Inactive)
REMARK    1  A    between atoms: C_1  and  C_2
REMARK    2  A    between atoms: C_5  and  N_6
REMARK    3  A    between atoms: N_6  and  C_7
REMARK    4  A    between atoms: N_6  and  C_20
REMARK    5  A    between atoms: C_7  and  C_8
REMARK    6  A    between atoms: N_10  and  C_11
REMARK    7  A    between atoms: C_11  and  C_12
REMARK                            x       y       z     vdW  Elec       q    Type
REMARK                         _______ _______ _______ _____ _____    ______ ____
ROOT
ATOM      1  N   UNL     1       2.350   7.164  18.722  0.00  0.00    +0.000 N 
ENDROOT
BRANCH   1   2
ATOM      2  C   UNL     1       1.694   8.246  19.384  0.00  0.00    +0.000 C 
ATOM      3  C   UNL     1       1.600   8.535  20.699  0.00  0.00    +0.000 C 
ATOM      4  C   UNL     1       0.891   9.728  21.257  0.00  0.00    +0.000 C 
ATOM      5  O   UNL     1       1.013  10.041  22.436  0.00  0.00    +0.000 OA
ATOM      6  C   UNL     1      -0.018  10.456  20.352  0.00  0.00    +0.000 A 
ATOM      7  C   UNL     1      -0.861  11.485  20.776  0.00  0.00    +0.000 A 
ATOM      8  C   UNL     1      -1.729  12.093  19.858  0.00  0.00    +0.000 A 
ATOM      9  C   UNL     1      -1.779  11.658  18.529  0.00  0.00    +0.000 A 
ATOM     10  C   UNL     1      -0.902  10.672  18.097  0.00  0.00    +0.000 A 
ATOM     11  C   UNL     1      -0.010  10.109  19.013  0.00  0.00    +0.000 A 
ATOM     12  C   UNL     1       1.135   9.354  18.533  0.00  0.00    +0.000 C 
ATOM     13  O   UNL     1       1.672   9.789  17.522  0.00  0.00    +0.000 OA
ENDBRANCH   1   2
BRANCH   1  18
ATOM     14  C   UNL     1       1.721   1.411  19.371  0.00  0.00    +0.000 C 
ATOM     15  C   UNL     1       1.801   2.903  19.236  0.00  0.00    +0.000 A 
ATOM     16  C   UNL     1       1.555   3.516  18.016  0.00  0.00    +0.000 A 
ATOM     17  C   UNL     1       1.669   4.909  17.876  0.00  0.00    +0.000 A 
ATOM     18  C   UNL     1       2.079   5.762  18.925  0.00  0.00    +0.000 A 
ATOM     19  C   UNL     1       2.175   5.124  20.176  0.00  0.00    +0.000 A 
ATOM     20  C   UNL     1       2.063   3.724  20.331  0.00  0.00    +0.000 A 
ENDBRANCH   1  18
BRANCH   1  21
ATOM     21  C   UNL     1       3.664   7.458  18.029  0.00  0.00    +0.000 C 
BRANCH  21  22
ATOM     22  C   UNL     1       4.643   6.370  17.634  0.00  0.00    +0.000 A 
ATOM     23  C   UNL     1       5.070   5.973  16.377  0.00  0.00    +0.000 A 
ATOM     24  N   UNL     1       6.256   5.324  16.594  0.00  0.00    +0.000 N 
ATOM     25  N   UNL     1       6.461   5.163  17.917  0.00  0.00    +0.000 NA
ATOM     26  N   UNL     1       5.488   5.803  18.561  0.00  0.00    +0.000 NA
BRANCH  24  27
ATOM     27  C   UNL     1       7.379   5.266  15.660  0.00  0.00    +0.000 C 
BRANCH  27  28
ATOM     28  C   UNL     1       7.094   4.685  14.295  0.00  0.00    +0.000 A 
ATOM     29  C   UNL     1       6.024   3.777  14.154  0.00  0.00    +0.000 A 
ATOM     30  C   UNL     1       5.635   3.309  12.898  0.00  0.00    +0.000 A 
ATOM     31  C   UNL     1       6.305   3.743  11.757  0.00  0.00    +0.000 A 
ATOM     32  C   UNL     1       7.364   4.644  11.877  0.00  0.00    +0.000 A 
ATOM     33  C   UNL     1       7.751   5.117  13.137  0.00  0.00    +0.000 A 
ENDBRANCH  27  28
ENDBRANCH  24  27
ENDBRANCH  21  22
ENDBRANCH   1  21
TORSDOF 6
ENDMDL
MODEL 8
REMARK VINA RESULT:      -8.6      3.376      8.856
REMARK  Name = 
REMARK  7 active torsions:
REMARK  status: ('A' for Active; 'I' for Inactive)
REMARK    1  A    between atoms: C_1  and  C_2
REMARK    2  A    between atoms: C_5  and  N_6
REMARK    3  A    between atoms: N_6  and  C_7
REMARK    4  A    between atoms: N_6  and  C_20
REMARK    5  A    between atoms: C_7  and  C_8
REMARK    6  A    between atoms: N_10  and  C_11
REMARK    7  A    between atoms: C_11  and  C_12
REMARK                            x       y       z     vdW  Elec       q    Type
REMARK                         _______ _______ _______ _____ _____    ______ ____
ROOT
ATOM      1  N   UNL     1       0.238  11.027  19.230  0.00  0.00    +0.000 N 
ENDROOT
BRANCH   1   2
ATOM      2  C   UNL     1       0.986  12.176  19.632  0.00  0.00    +0.000 C 
ATOM      3  C   UNL     1       1.040  12.809  20.822  0.00  0.00    +0.000 C 
ATOM      4  C   UNL     1       1.895  14.002  21.110  0.00  0.00    +0.000 C 
ATOM      5  O   UNL     1       2.050  14.405  22.258  0.00  0.00    +0.000 OA
ATOM      6  C   UNL     1       2.469  14.715  19.954  0.00  0.00    +0.000 A 
ATOM      7  C   UNL     1       3.150  15.929  20.062  0.00  0.00    +0.000 A 
ATOM      8  C   UNL     1       3.624  16.563  18.905  0.00  0.00    +0.000 A 
ATOM      9  C   UNL     1       3.394  16.006  17.642  0.00  0.00    +0.000 A 
ATOM     10  C   UNL     1       2.764  14.773  17.541  0.00  0.00    +0.000 A 
ATOM     11  C   UNL     1       2.340  14.131  18.707  0.00  0.00    +0.000 A 
ATOM     12  C   UNL     1       2.011  12.716  18.671  0.00  0.00    +0.000 C 
ATOM     13  O   UNL     1       2.721  12.023  17.954  0.00  0.00    +0.000 OA
ENDBRANCH   1   2
BRANCH   1  18
ATOM     14  C   UNL     1      -5.053  11.515  16.846  0.00  0.00    +0.000 C 
ATOM     15  C   UNL     1      -3.715  11.312  17.494  0.00  0.00    +0.000 A 
ATOM     16  C   UNL     1      -3.421  11.909  18.711  0.00  0.00    +0.000 A 
ATOM     17  C   UNL     1      -2.156  11.754  19.301  0.00  0.00    +0.000 A 
ATOM     18  C   UNL     1      -1.100  11.038  18.693  0.00  0.00    +0.000 A 
ATOM     19  C   UNL     1      -1.481  10.329  17.538  0.00  0.00    +0.000 A 
ATOM     20  C   UNL     1      -2.750  10.476  16.934  0.00  0.00    +0.000 A 
ENDBRANCH   1  18
BRANCH   1  21
ATOM     21  C   UNL     1       0.707   9.675  19.725  0.00  0.00    +0.000 C 
BRANCH  21  22
ATOM     22  C   UNL     1       1.749   8.851  18.995  0.00  0.00    +0.000 A 
ATOM     23  C   UNL     1       2.353   7.658  19.359  0.00  0.00    +0.000 A 
ATOM     24  N   UNL     1       2.819   7.125  18.188  0.00  0.00    +0.000 N 
ATOM     25  N   UNL     1       2.680   8.016  17.186  0.00  0.00    +0.000 NA
ATOM     26  N   UNL     1       2.022   9.068  17.664  0.00  0.00    +0.000 NA
BRANCH  24  27
ATOM     27  C   UNL     1       2.956   5.699  17.896  0.00  0.00    +0.000 C 
BRANCH  27  28
ATOM     28  C   UNL     1       2.398   4.742  18.924  0.00  0.00    +0.000 A 
ATOM     29  C   UNL     1       2.874   4.816  20.249  0.00  0.00    +0.000 A 
ATOM     30  C   UNL     1       2.304   4.047  21.265  0.00  0.00    +0.000 A 
ATOM     31  C   UNL     1       1.244   3.191  20.976  0.00  0.00    +0.000 A 
ATOM     32  C   UNL     1       0.758   3.107  19.671  0.00  0.00    +0.000 A 
ATOM     33  C   UNL     1       1.327   3.883  18.654  0.00  0.00    +0.000 A 
ENDBRANCH  27  28
ENDBRANCH  24  27
ENDBRANCH  21  22
ENDBRANCH   1  21
TORSDOF 6
ENDMDL
MODEL 9
REMARK VINA RESULT:      -8.6      4.562      8.026
REMARK  Name = 
REMARK  7 active torsions:
REMARK  status: ('A' for Active; 'I' for Inactive)
REMARK    1  A    between atoms: C_1  and  C_2
REMARK    2  A    between atoms: C_5  and  N_6
REMARK    3  A    between atoms: N_6  and  C_7
REMARK    4  A    between atoms: N_6  and  C_20
REMARK    5  A    between atoms: C_7  and  C_8
REMARK    6  A    between atoms: N_10  and  C_11
REMARK    7  A    between atoms: C_11  and  C_12
REMARK                            x       y       z     vdW  Elec       q    Type
REMARK                         _______ _______ _______ _____ _____    ______ ____
ROOT
ATOM      1  N   UNL     1       6.243   4.929  17.159  0.00  0.00    +0.000 N 
ENDROOT
BRANCH   1   2
ATOM      2  C   UNL     1       5.326   4.298  18.054  0.00  0.00    +0.000 C 
ATOM      3  C   UNL     1       5.544   3.404  19.040  0.00  0.00    +0.000 C 
ATOM      4  C   UNL     1       4.478   2.837  19.923  0.00  0.00    +0.000 C 
ATOM      5  O   UNL     1       4.766   2.189  20.924  0.00  0.00    +0.000 OA
ATOM      6  C   UNL     1       3.079   3.021  19.494  0.00  0.00    +0.000 A 
ATOM      7  C   UNL     1       1.995   2.413  20.130  0.00  0.00    +0.000 A 
ATOM      8  C   UNL     1       0.700   2.603  19.628  0.00  0.00    +0.000 A 
ATOM      9  C   UNL     1       0.489   3.372  18.478  0.00  0.00    +0.000 A 
ATOM     10  C   UNL     1       1.561   4.019  17.879  0.00  0.00    +0.000 A 
ATOM     11  C   UNL     1       2.839   3.858  18.420  0.00  0.00    +0.000 A 
ATOM     12  C   UNL     1       3.899   4.780  18.050  0.00  0.00    +0.000 C 
ATOM     13  O   UNL     1       3.564   5.949  17.912  0.00  0.00    +0.000 OA
ENDBRANCH   1   2
BRANCH   1  18
ATOM     14  C   UNL     1       6.871   3.627  11.517  0.00  0.00    +0.000 C 
ATOM     15  C   UNL     1       6.656   4.028  12.947  0.00  0.00    +0.000 A 
ATOM     16  C   UNL     1       7.584   4.822  13.606  0.00  0.00    +0.000 A 
ATOM     17  C   UNL     1       7.406   5.167  14.956  0.00  0.00    +0.000 A 
ATOM     18  C   UNL     1       6.324   4.703  15.737  0.00  0.00    +0.000 A 
ATOM     19  C   UNL     1       5.333   4.027  14.999  0.00  0.00    +0.000 A 
ATOM     20  C   UNL     1       5.500   3.675  13.641  0.00  0.00    +0.000 A 
ENDBRANCH   1  18
BRANCH   1  21
ATOM     21  C   UNL     1       7.458   5.604  17.760  0.00  0.00    +0.000 C 
BRANCH  21  22
ATOM     22  C   UNL     1       7.535   7.101  17.988  0.00  0.00    +0.000 A 
ATOM     23  C   UNL     1       8.420   7.838  18.758  0.00  0.00    +0.000 A 
ATOM     24  N   UNL     1       8.358   9.108  18.252  0.00  0.00    +0.000 N 
ATOM     25  N   UNL     1       7.361   9.198  17.348  0.00  0.00    +0.000 NA
ATOM     26  N   UNL     1       6.857   7.980  17.174  0.00  0.00    +0.000 NA
BRANCH  24  27
ATOM     27  C   UNL     1       9.453  10.076  18.243  0.00  0.00    +0.000 C 
BRANCH  27  28
ATOM     28  C   UNL     1       9.321  11.254  19.180  0.00  0.00    +0.000 A 
ATOM     29  C   UNL     1       9.457  11.037  20.567  0.00  0.00    +0.000 A 
ATOM     30  C   UNL     1       9.473  12.104  21.467  0.00  0.00    +0.000 A 
ATOM     31  C   UNL     1       9.358  13.410  20.998  0.00  0.00    +0.000 A 
ATOM     32  C   UNL     1       9.226  13.645  19.629  0.00  0.00    +0.000 A 
ATOM     33  C   UNL     1       9.214  12.574  18.726  0.00  0.00    +0.000 A 
ENDBRANCH  27  28
ENDBRANCH  24  27
ENDBRANCH  21  22
ENDBRANCH   1  21
TORSDOF 6
ENDMDL
