MODEL 1
REMARK VINA RESULT:      -8.0      0.000      0.000
REMARK  Name = 
REMARK  8 active torsions:
REMARK  status: ('A' for Active; 'I' for Inactive)
REMARK    1  A    between atoms: C_1  and  O_2
REMARK    2  A    between atoms: O_2  and  C_3
REMARK    3  A    between atoms: C_6  and  C_7
REMARK    4  A    between atoms: C_7  and  C_8
REMARK    5  A    between atoms: C_8  and  C_9
REMARK    6  A    between atoms: N_12  and  C_13
REMARK    7  A    between atoms: C_13  and  C_14
REMARK    8  A    between atoms: C_14  and  C_15
REMARK                            x       y       z     vdW  Elec       q    Type
REMARK                         _______ _______ _______ _____ _____    ______ ____
ROOT
ATOM      1  C   UNL     1       1.509   2.805  19.999  0.00  0.00    +0.000 C 
ATOM      2  C   UNL     1       2.996   2.597  20.360  0.00  0.00    +0.000 C 
ATOM      3  C   UNL     1       3.937   3.383  19.431  0.00  0.00    +0.000 C 
ATOM      4  N   UNL     1       3.678   3.019  18.015  0.00  0.00    +0.000 NA
ATOM      5  C   UNL     1       2.287   3.358  17.653  0.00  0.00    +0.000 C 
ATOM      6  C   UNL     1       1.337   2.499  18.493  0.00  0.00    +0.000 C 
ENDROOT
BRANCH   1   7
ATOM      7  C   UNL     1       0.988   4.210  20.412  0.00  0.00    +0.000 C 
BRANCH   7   8
ATOM      8  C   UNL     1       2.149   5.215  20.596  0.00  0.00    +0.000 C 
BRANCH   8  12
ATOM      9  C   UNL     1       1.482   9.265  19.234  0.00  0.00    +0.000 A 
ATOM     10  C   UNL     1       1.018   8.875  20.505  0.00  0.00    +0.000 A 
ATOM     11  C   UNL     1       1.218   7.575  20.964  0.00  0.00    +0.000 A 
ATOM     12  C   UNL     1       1.889   6.635  20.163  0.00  0.00    +0.000 A 
ATOM     13  C   UNL     1       2.355   7.028  18.896  0.00  0.00    +0.000 A 
ATOM     14  C   UNL     1       2.153   8.331  18.437  0.00  0.00    +0.000 A 
BRANCH   9  16
ATOM     15  C   UNL     1       0.093  11.184  18.708  0.00  0.00    +0.000 C 
ATOM     16  O   UNL     1       1.301  10.519  18.751  0.00  0.00    +0.000 OA
ENDBRANCH   9  16
ENDBRANCH   8  12
ENDBRANCH   7   8
ENDBRANCH   1   7
BRANCH   4  17
ATOM     17  C   UNL     1       4.637   3.631  17.069  0.00  0.00    +0.000 C 
BRANCH  17  18
ATOM     18  C   UNL     1       4.534   5.168  17.098  0.00  0.00    +0.000 C 
BRANCH  18  19
ATOM     19  C   UNL     1       5.809   5.828  17.566  0.00  0.00    +0.000 A 
ATOM     20  C   UNL     1       6.169   7.095  17.064  0.00  0.00    +0.000 A 
ATOM     21  C   UNL     1       7.332   7.725  17.503  0.00  0.00    +0.000 A 
ATOM     22  C   UNL     1       8.145   7.106  18.454  0.00  0.00    +0.000 A 
ATOM     23  C   UNL     1       7.802   5.850  18.963  0.00  0.00    +0.000 A 
ATOM     24  C   UNL     1       6.636   5.213  18.524  0.00  0.00    +0.000 A 
ENDBRANCH  18  19
ENDBRANCH  17  18
ENDBRANCH   4  17
TORSDOF 7
ENDMDL
MODEL 2
REMARK VINA RESULT:      -7.7      2.012      5.352
REMARK  Name = 
REMARK  8 active torsions:
REMARK  status: ('A' for Active; 'I' for Inactive)
REMARK    1  A    between atoms: C_1  and  O_2
REMARK    2  A    between atoms: O_2  and  C_3
REMARK    3  A    between atoms: C_6  and  C_7
REMARK    4  A    between atoms: C_7  and  C_8
REMARK    5  A    between atoms: C_8  and  C_9
REMARK    6  A    between atoms: N_12  and  C_13
REMARK    7  A    between atoms: C_13  and  C_14
REMARK    8  A    between atoms: C_14  and  C_15
REMARK                            x       y       z     vdW  Elec       q    Type
REMARK                         _______ _______ _______ _____ _____    ______ ____
ROOT
ATOM      1  C   UNL     1       2.343   1.820  18.972  0.00  0.00    +0.000 C 
ATOM      2  C   UNL     1       1.130   2.649  18.493  0.00  0.00    +0.000 C 
ATOM      3  C   UNL     1       1.283   4.145  18.816  0.00  0.00    +0.000 C 
ATOM      4  N   UNL     1       1.513   4.332  20.270  0.00  0.00    +0.000 NA
ATOM      5  C   UNL     1       2.755   3.646  20.678  0.00  0.00    +0.000 C 
ATOM      6  C   UNL     1       2.577   2.139  20.466  0.00  0.00    +0.000 C 
ENDROOT
BRANCH   1   7
ATOM      7  C   UNL     1       3.601   2.038  18.085  0.00  0.00    +0.000 C 
BRANCH   7   8
ATOM      8  C   UNL     1       3.449   3.283  17.180  0.00  0.00    +0.000 C 
BRANCH   8  12
ATOM      9  C   UNL     1       6.733   6.092  17.023  0.00  0.00    +0.000 A 
ATOM     10  C   UNL     1       6.382   5.502  18.252  0.00  0.00    +0.000 A 
ATOM     11  C   UNL     1       5.325   4.597  18.329  0.00  0.00    +0.000 A 
ATOM     12  C   UNL     1       4.596   4.259  17.176  0.00  0.00    +0.000 A 
ATOM     13  C   UNL     1       4.952   4.845  15.948  0.00  0.00    +0.000 A 
ATOM     14  C   UNL     1       6.010   5.753  15.873  0.00  0.00    +0.000 A 
BRANCH   9  16
ATOM     15  C   UNL     1       7.854   8.159  17.621  0.00  0.00    +0.000 C 
ATOM     16  O   UNL     1       7.750   6.981  16.911  0.00  0.00    +0.000 OA
ENDBRANCH   9  16
ENDBRANCH   8  12
ENDBRANCH   7   8
ENDBRANCH   1   7
BRANCH   4  17
ATOM     17  C   UNL     1       1.532   5.754  20.681  0.00  0.00    +0.000 C 
BRANCH  17  18
ATOM     18  C   UNL     1       2.532   6.558  19.830  0.00  0.00    +0.000 C 
BRANCH  18  19
ATOM     19  C   UNL     1       2.004   7.919  19.443  0.00  0.00    +0.000 A 
ATOM     20  C   UNL     1       2.237   8.420  18.146  0.00  0.00    +0.000 A 
ATOM     21  C   UNL     1       1.737   9.665  17.769  0.00  0.00    +0.000 A 
ATOM     22  C   UNL     1       0.992  10.423  18.675  0.00  0.00    +0.000 A 
ATOM     23  C   UNL     1       0.751   9.940  19.964  0.00  0.00    +0.000 A 
ATOM     24  C   UNL     1       1.252   8.691  20.348  0.00  0.00    +0.000 A 
ENDBRANCH  18  19
ENDBRANCH  17  18
ENDBRANCH   4  17
TORSDOF 7
ENDMDL
MODEL 3
REMARK VINA RESULT:      -7.7      0.497      1.107
REMARK  Name = 
REMARK  8 active torsions:
REMARK  status: ('A' for Active; 'I' for Inactive)
REMARK    1  A    between atoms: C_1  and  O_2
REMARK    2  A    between atoms: O_2  and  C_3
REMARK    3  A    between atoms: C_6  and  C_7
REMARK    4  A    between atoms: C_7  and  C_8
REMARK    5  A    between atoms: C_8  and  C_9
REMARK    6  A    between atoms: N_12  and  C_13
REMARK    7  A    between atoms: C_13  and  C_14
REMARK    8  A    between atoms: C_14  and  C_15
REMARK                            x       y       z     vdW  Elec       q    Type
REMARK                         _______ _______ _______ _____ _____    ______ ____
ROOT
ATOM      1  C   UNL     1       1.954   2.627  19.951  0.00  0.00    +0.000 C 
ATOM      2  C   UNL     1       3.419   2.830  20.396  0.00  0.00    +0.000 C 
ATOM      3  C   UNL     1       4.234   3.632  19.367  0.00  0.00    +0.000 C 
ATOM      4  N   UNL     1       4.168   2.975  18.038  0.00  0.00    +0.000 NA
ATOM      5  C   UNL     1       2.769   2.918  17.571  0.00  0.00    +0.000 C 
ATOM      6  C   UNL     1       1.967   2.027  18.526  0.00  0.00    +0.000 C 
ENDROOT
BRANCH   1   7
ATOM      7  C   UNL     1       1.109   3.926  20.072  0.00  0.00    +0.000 C 
BRANCH   7   8
ATOM      8  C   UNL     1       1.891   5.045  20.798  0.00  0.00    +0.000 C 
BRANCH   8  12
ATOM      9  C   UNL     1       1.763   8.936  18.915  0.00  0.00    +0.000 A 
ATOM     10  C   UNL     1       1.445   8.815  20.282  0.00  0.00    +0.000 A 
ATOM     11  C   UNL     1       1.476   7.572  20.910  0.00  0.00    +0.000 A 
ATOM     12  C   UNL     1       1.828   6.420  20.185  0.00  0.00    +0.000 A 
ATOM     13  C   UNL     1       2.149   6.544  18.822  0.00  0.00    +0.000 A 
ATOM     14  C   UNL     1       2.116   7.791  18.194  0.00  0.00    +0.000 A 
BRANCH   9  16
ATOM     15  C   UNL     1       1.176  11.286  18.766  0.00  0.00    +0.000 C 
ATOM     16  O   UNL     1       1.738  10.128  18.270  0.00  0.00    +0.000 OA
ENDBRANCH   9  16
ENDBRANCH   8  12
ENDBRANCH   7   8
ENDBRANCH   1   7
BRANCH   4  17
ATOM     17  C   UNL     1       5.040   3.611  17.026  0.00  0.00    +0.000 C 
BRANCH  17  18
ATOM     18  C   UNL     1       4.792   5.130  16.965  0.00  0.00    +0.000 C 
BRANCH  18  19
ATOM     19  C   UNL     1       5.968   5.933  17.467  0.00  0.00    +0.000 A 
ATOM     20  C   UNL     1       6.820   5.391  18.451  0.00  0.00    +0.000 A 
ATOM     21  C   UNL     1       7.921   6.113  18.908  0.00  0.00    +0.000 A 
ATOM     22  C   UNL     1       8.193   7.379  18.385  0.00  0.00    +0.000 A 
ATOM     23  C   UNL     1       7.358   7.931  17.409  0.00  0.00    +0.000 A 
ATOM     24  C   UNL     1       6.251   7.210  16.947  0.00  0.00    +0.000 A 
ENDBRANCH  18  19
ENDBRANCH  17  18
ENDBRANCH   4  17
TORSDOF 7
ENDMDL
MODEL 4
REMARK VINA RESULT:      -7.6      2.269      6.471
REMARK  Name = 
REMARK  8 active torsions:
REMARK  status: ('A' for Active; 'I' for Inactive)
REMARK    1  A    between atoms: C_1  and  O_2
REMARK    2  A    between atoms: O_2  and  C_3
REMARK    3  A    between atoms: C_6  and  C_7
REMARK    4  A    between atoms: C_7  and  C_8
REMARK    5  A    between atoms: C_8  and  C_9
REMARK    6  A    between atoms: N_12  and  C_13
REMARK    7  A    between atoms: C_13  and  C_14
REMARK    8  A    between atoms: C_14  and  C_15
REMARK                            x       y       z     vdW  Elec       q    Type
REMARK                         _______ _______ _______ _____ _____    ______ ____
ROOT
ATOM      1  C   UNL     1       1.823   3.460  18.797  0.00  0.00    +0.000 C 
ATOM      2  C   UNL     1       1.691   4.634  17.801  0.00  0.00    +0.000 C 
ATOM      3  C   UNL     1       2.242   5.951  18.375  0.00  0.00    +0.000 C 
ATOM      4  N   UNL     1       1.572   6.266  19.662  0.00  0.00    +0.000 NA
ATOM      5  C   UNL     1       1.831   5.194  20.643  0.00  0.00    +0.000 C 
ATOM      6  C   UNL     1       1.188   3.898  20.136  0.00  0.00    +0.000 C 
ENDROOT
BRANCH   1   7
ATOM      7  C   UNL     1       3.289   2.961  18.936  0.00  0.00    +0.000 C 
BRANCH   7   8
ATOM      8  C   UNL     1       4.007   2.920  17.567  0.00  0.00    +0.000 C 
BRANCH   8  12
ATOM      9  C   UNL     1       6.830   6.126  16.893  0.00  0.00    +0.000 A 
ATOM     10  C   UNL     1       6.102   5.602  15.807  0.00  0.00    +0.000 A 
ATOM     11  C   UNL     1       5.190   4.566  15.999  0.00  0.00    +0.000 A 
ATOM     12  C   UNL     1       4.982   4.033  17.282  0.00  0.00    +0.000 A 
ATOM     13  C   UNL     1       5.706   4.561  18.366  0.00  0.00    +0.000 A 
ATOM     14  C   UNL     1       6.621   5.598  18.172  0.00  0.00    +0.000 A 
BRANCH   9  16
ATOM     15  C   UNL     1       7.926   8.158  17.641  0.00  0.00    +0.000 C 
ATOM     16  O   UNL     1       7.729   7.129  16.743  0.00  0.00    +0.000 OA
ENDBRANCH   9  16
ENDBRANCH   8  12
ENDBRANCH   7   8
ENDBRANCH   1   7
BRANCH   4  17
ATOM     17  C   UNL     1       1.950   7.589  20.209  0.00  0.00    +0.000 C 
BRANCH  17  18
ATOM     18  C   UNL     1       1.162   7.896  21.496  0.00  0.00    +0.000 C 
BRANCH  18  19
ATOM     19  C   UNL     1       0.403   9.199  21.418  0.00  0.00    +0.000 A 
ATOM     20  C   UNL     1       0.063   9.739  20.160  0.00  0.00    +0.000 A 
ATOM     21  C   UNL     1      -0.656  10.929  20.074  0.00  0.00    +0.000 A 
ATOM     22  C   UNL     1      -1.053  11.592  21.237  0.00  0.00    +0.000 A 
ATOM     23  C   UNL     1      -0.725  11.070  22.491  0.00  0.00    +0.000 A 
ATOM     24  C   UNL     1      -0.002   9.875  22.583  0.00  0.00    +0.000 A 
ENDBRANCH  18  19
ENDBRANCH  17  18
ENDBRANCH   4  17
TORSDOF 7
ENDMDL
MODEL 5
REMARK VINA RESULT:      -7.6      2.762      4.592
REMARK  Name = 
REMARK  8 active torsions:
REMARK  status: ('A' for Active; 'I' for Inactive)
REMARK    1  A    between atoms: C_1  and  O_2
REMARK    2  A    between atoms: O_2  and  C_3
REMARK    3  A    between atoms: C_6  and  C_7
REMARK    4  A    between atoms: C_7  and  C_8
REMARK    5  A    between atoms: C_8  and  C_9
REMARK    6  A    between atoms: N_12  and  C_13
REMARK    7  A    between atoms: C_13  and  C_14
REMARK    8  A    between atoms: C_14  and  C_15
REMARK                            x       y       z     vdW  Elec       q    Type
REMARK                         _______ _______ _______ _____ _____    ______ ____
ROOT
ATOM      1  C   UNL     1       5.544   4.788  16.747  0.00  0.00    +0.000 C 
ATOM      2  C   UNL     1       7.011   4.466  17.109  0.00  0.00    +0.000 C 
ATOM      3  C   UNL     1       7.621   5.515  18.055  0.00  0.00    +0.000 C 
ATOM      4  N   UNL     1       7.505   6.869  17.459  0.00  0.00    +0.000 NA
ATOM      5  C   UNL     1       6.084   7.211  17.252  0.00  0.00    +0.000 C 
ATOM      6  C   UNL     1       5.490   6.242  16.224  0.00  0.00    +0.000 C 
ENDROOT
BRANCH   1   7
ATOM      7  C   UNL     1       4.566   4.514  17.924  0.00  0.00    +0.000 C 
BRANCH   7   8
ATOM      8  C   UNL     1       3.143   5.032  17.613  0.00  0.00    +0.000 C 
BRANCH   8  12
ATOM      9  C   UNL     1       1.602   8.200  20.121  0.00  0.00    +0.000 A 
ATOM     10  C   UNL     1       1.774   6.910  20.659  0.00  0.00    +0.000 A 
ATOM     11  C   UNL     1       2.266   5.872  19.870  0.00  0.00    +0.000 A 
ATOM     12  C   UNL     1       2.599   6.102  18.524  0.00  0.00    +0.000 A 
ATOM     13  C   UNL     1       2.431   7.392  17.990  0.00  0.00    +0.000 A 
ATOM     14  C   UNL     1       1.937   8.430  18.782  0.00  0.00    +0.000 A 
BRANCH   9  16
ATOM     15  C   UNL     1       0.419  10.306  20.351  0.00  0.00    +0.000 C 
ATOM     16  O   UNL     1       1.121   9.232  20.857  0.00  0.00    +0.000 OA
ENDBRANCH   9  16
ENDBRANCH   8  12
ENDBRANCH   7   8
ENDBRANCH   1   7
BRANCH   4  17
ATOM     17  C   UNL     1       8.193   7.916  18.247  0.00  0.00    +0.000 C 
BRANCH  17  18
ATOM     18  C   UNL     1       8.080   9.287  17.556  0.00  0.00    +0.000 C 
BRANCH  18  19
ATOM     19  C   UNL     1       8.732  10.395  18.350  0.00  0.00    +0.000 A 
ATOM     20  C   UNL     1       9.321  10.111  19.599  0.00  0.00    +0.000 A 
ATOM     21  C   UNL     1       9.944  11.119  20.331  0.00  0.00    +0.000 A 
ATOM     22  C   UNL     1       9.997  12.420  19.826  0.00  0.00    +0.000 A 
ATOM     23  C   UNL     1       9.419  12.718  18.589  0.00  0.00    +0.000 A 
ATOM     24  C   UNL     1       8.790  11.709  17.850  0.00  0.00    +0.000 A 
ENDBRANCH  18  19
ENDBRANCH  17  18
ENDBRANCH   4  17
TORSDOF 7
ENDMDL
MODEL 6
REMARK VINA RESULT:      -7.6      0.886      1.445
REMARK  Name = 
REMARK  8 active torsions:
REMARK  status: ('A' for Active; 'I' for Inactive)
REMARK    1  A    between atoms: C_1  and  O_2
REMARK    2  A    between atoms: O_2  and  C_3
REMARK    3  A    between atoms: C_6  and  C_7
REMARK    4  A    between atoms: C_7  and  C_8
REMARK    5  A    between atoms: C_8  and  C_9
REMARK    6  A    between atoms: N_12  and  C_13
REMARK    7  A    between atoms: C_13  and  C_14
REMARK    8  A    between atoms: C_14  and  C_15
REMARK                            x       y       z     vdW  Elec       q    Type
REMARK                         _______ _______ _______ _____ _____    ______ ____
ROOT
ATOM      1  C   UNL     1       1.390   4.024  19.557  0.00  0.00    +0.000 C 
ATOM      2  C   UNL     1       2.294   2.793  19.789  0.00  0.00    +0.000 C 
ATOM      3  C   UNL     1       3.670   2.946  19.120  0.00  0.00    +0.000 C 
ATOM      4  N   UNL     1       3.505   3.219  17.670  0.00  0.00    +0.000 NA
ATOM      5  C   UNL     1       2.757   4.477  17.473  0.00  0.00    +0.000 C 
ATOM      6  C   UNL     1       1.343   4.300  18.036  0.00  0.00    +0.000 C 
ENDROOT
BRANCH   1   7
ATOM      7  C   UNL     1       1.830   5.254  20.400  0.00  0.00    +0.000 C 
BRANCH   7   8
ATOM      8  C   UNL     1       2.708   6.223  19.575  0.00  0.00    +0.000 C 
BRANCH   8  12
ATOM      9  C   UNL     1       1.024  10.159  18.967  0.00  0.00    +0.000 A 
ATOM     10  C   UNL     1       1.684   9.514  17.903  0.00  0.00    +0.000 A 
ATOM     11  C   UNL     1       2.238   8.248  18.076  0.00  0.00    +0.000 A 
ATOM     12  C   UNL     1       2.142   7.595  19.317  0.00  0.00    +0.000 A 
ATOM     13  C   UNL     1       1.479   8.238  20.376  0.00  0.00    +0.000 A 
ATOM     14  C   UNL     1       0.925   9.508  20.202  0.00  0.00    +0.000 A 
BRANCH   9  16
ATOM     15  C   UNL     1       1.193  12.570  18.745  0.00  0.00    +0.000 C 
ATOM     16  O   UNL     1       0.479  11.393  18.838  0.00  0.00    +0.000 OA
ENDBRANCH   9  16
ENDBRANCH   8  12
ENDBRANCH   7   8
ENDBRANCH   1   7
BRANCH   4  17
ATOM     17  C   UNL     1       4.787   3.242  16.930  0.00  0.00    +0.000 C 
BRANCH  17  18
ATOM     18  C   UNL     1       5.046   4.634  16.325  0.00  0.00    +0.000 C 
BRANCH  18  19
ATOM     19  C   UNL     1       6.090   5.415  17.088  0.00  0.00    +0.000 A 
ATOM     20  C   UNL     1       6.292   6.781  16.804  0.00  0.00    +0.000 A 
ATOM     21  C   UNL     1       7.237   7.518  17.515  0.00  0.00    +0.000 A 
ATOM     22  C   UNL     1       7.985   6.908  18.523  0.00  0.00    +0.000 A 
ATOM     23  C   UNL     1       7.797   5.555  18.818  0.00  0.00    +0.000 A 
ATOM     24  C   UNL     1       6.850   4.810  18.106  0.00  0.00    +0.000 A 
ENDBRANCH  18  19
ENDBRANCH  17  18
ENDBRANCH   4  17
TORSDOF 7
ENDMDL
MODEL 7
REMARK VINA RESULT:      -7.6      2.020      6.044
REMARK  Name = 
REMARK  8 active torsions:
REMARK  status: ('A' for Active; 'I' for Inactive)
REMARK    1  A    between atoms: C_1  and  O_2
REMARK    2  A    between atoms: O_2  and  C_3
REMARK    3  A    between atoms: C_6  and  C_7
REMARK    4  A    between atoms: C_7  and  C_8
REMARK    5  A    between atoms: C_8  and  C_9
REMARK    6  A    between atoms: N_12  and  C_13
REMARK    7  A    between atoms: C_13  and  C_14
REMARK    8  A    between atoms: C_14  and  C_15
REMARK                            x       y       z     vdW  Elec       q    Type
REMARK                         _______ _______ _______ _____ _____    ______ ____
ROOT
ATOM      1  C   UNL     1       3.655   3.097  17.732  0.00  0.00    +0.000 C 
ATOM      2  C   UNL     1       2.119   3.252  17.775  0.00  0.00    +0.000 C 
ATOM      3  C   UNL     1       1.684   4.575  18.428  0.00  0.00    +0.000 C 
ATOM      4  N   UNL     1       2.268   4.689  19.788  0.00  0.00    +0.000 NA
ATOM      5  C   UNL     1       3.742   4.680  19.708  0.00  0.00    +0.000 C 
ATOM      6  C   UNL     1       4.196   3.321  19.163  0.00  0.00    +0.000 C 
ENDROOT
BRANCH   1   7
ATOM      7  C   UNL     1       4.317   4.014  16.666  0.00  0.00    +0.000 C 
BRANCH   7   8
ATOM      8  C   UNL     1       5.860   3.936  16.728  0.00  0.00    +0.000 C 
BRANCH   8  12
ATOM      9  C   UNL     1       7.976   7.393  18.235  0.00  0.00    +0.000 A 
ATOM     10  C   UNL     1       7.130   7.530  17.118  0.00  0.00    +0.000 A 
ATOM     11  C   UNL     1       6.440   6.430  16.612  0.00  0.00    +0.000 A 
ATOM     12  C   UNL     1       6.579   5.168  17.214  0.00  0.00    +0.000 A 
ATOM     13  C   UNL     1       7.421   5.035  18.332  0.00  0.00    +0.000 A 
ATOM     14  C   UNL     1       8.112   6.138  18.837  0.00  0.00    +0.000 A 
BRANCH   9  16
ATOM     15  C   UNL     1       8.545   9.750  18.339  0.00  0.00    +0.000 C 
ATOM     16  O   UNL     1       8.667   8.439  18.751  0.00  0.00    +0.000 OA
ENDBRANCH   9  16
ENDBRANCH   8  12
ENDBRANCH   7   8
ENDBRANCH   1   7
BRANCH   4  17
ATOM     17  C   UNL     1       1.784   5.872  20.534  0.00  0.00    +0.000 C 
BRANCH  17  18
ATOM     18  C   UNL     1       2.195   7.175  19.825  0.00  0.00    +0.000 C 
BRANCH  18  19
ATOM     19  C   UNL     1       1.468   8.385  20.362  0.00  0.00    +0.000 A 
ATOM     20  C   UNL     1       1.016   9.384  19.475  0.00  0.00    +0.000 A 
ATOM     21  C   UNL     1       0.325  10.494  19.955  0.00  0.00    +0.000 A 
ATOM     22  C   UNL     1       0.068  10.621  21.321  0.00  0.00    +0.000 A 
ATOM     23  C   UNL     1       0.508   9.639  22.214  0.00  0.00    +0.000 A 
ATOM     24  C   UNL     1       1.204   8.522  21.737  0.00  0.00    +0.000 A 
ENDBRANCH  18  19
ENDBRANCH  17  18
ENDBRANCH   4  17
TORSDOF 7
ENDMDL
MODEL 8
REMARK VINA RESULT:      -7.5      3.704      7.393
REMARK  Name = 
REMARK  8 active torsions:
REMARK  status: ('A' for Active; 'I' for Inactive)
REMARK    1  A    between atoms: C_1  and  O_2
REMARK    2  A    between atoms: O_2  and  C_3
REMARK    3  A    between atoms: C_6  and  C_7
REMARK    4  A    between atoms: C_7  and  C_8
REMARK    5  A    between atoms: C_8  and  C_9
REMARK    6  A    between atoms: N_12  and  C_13
REMARK    7  A    between atoms: C_13  and  C_14
REMARK    8  A    between atoms: C_14  and  C_15
REMARK                            x       y       z     vdW  Elec       q    Type
REMARK                         _______ _______ _______ _____ _____    ______ ____
ROOT
ATOM      1  C   UNL     1       7.202   5.863  17.772  0.00  0.00    +0.000 C 
ATOM      2  C   UNL     1       6.680   5.485  19.176  0.00  0.00    +0.000 C 
ATOM      3  C   UNL     1       5.147   5.363  19.215  0.00  0.00    +0.000 C 
ATOM      4  N   UNL     1       4.523   6.623  18.737  0.00  0.00    +0.000 NA
ATOM      5  C   UNL     1       4.927   6.890  17.342  0.00  0.00    +0.000 C 
ATOM      6  C   UNL     1       6.440   7.125  17.305  0.00  0.00    +0.000 C 
ENDROOT
BRANCH   1   7
ATOM      7  C   UNL     1       7.120   4.679  16.768  0.00  0.00    +0.000 C 
BRANCH   7   8
ATOM      8  C   UNL     1       7.556   5.109  15.348  0.00  0.00    +0.000 C 
BRANCH   8  12
ATOM      9  C   UNL     1       5.277   3.332  12.130  0.00  0.00    +0.000 A 
ATOM     10  C   UNL     1       6.623   3.686  11.915  0.00  0.00    +0.000 A 
ATOM     11  C   UNL     1       7.376   4.263  12.935  0.00  0.00    +0.000 A 
ATOM     12  C   UNL     1       6.801   4.497  14.196  0.00  0.00    +0.000 A 
ATOM     13  C   UNL     1       5.459   4.139  14.410  0.00  0.00    +0.000 A 
ATOM     14  C   UNL     1       4.705   3.561  13.386  0.00  0.00    +0.000 A 
BRANCH   9  16
ATOM     15  C   UNL     1       3.417   3.373  10.573  0.00  0.00    +0.000 C 
ATOM     16  O   UNL     1       4.512   2.774  11.160  0.00  0.00    +0.000 OA
ENDBRANCH   9  16
ENDBRANCH   8  12
ENDBRANCH   7   8
ENDBRANCH   1   7
BRANCH   4  17
ATOM     17  C   UNL     1       3.049   6.634  18.875  0.00  0.00    +0.000 C 
BRANCH  17  18
ATOM     18  C   UNL     1       2.386   5.819  17.750  0.00  0.00    +0.000 C 
BRANCH  18  19
ATOM     19  C   UNL     1       2.100   4.392  18.155  0.00  0.00    +0.000 A 
ATOM     20  C   UNL     1       2.637   3.327  17.403  0.00  0.00    +0.000 A 
ATOM     21  C   UNL     1       2.398   2.007  17.779  0.00  0.00    +0.000 A 
ATOM     22  C   UNL     1       1.630   1.730  18.912  0.00  0.00    +0.000 A 
ATOM     23  C   UNL     1       1.091   2.774  19.669  0.00  0.00    +0.000 A 
ATOM     24  C   UNL     1       1.328   4.103  19.295  0.00  0.00    +0.000 A 
ENDBRANCH  18  19
ENDBRANCH  17  18
ENDBRANCH   4  17
TORSDOF 7
ENDMDL
MODEL 9
REMARK VINA RESULT:      -7.5      2.894      4.737
REMARK  Name = 
REMARK  8 active torsions:
REMARK  status: ('A' for Active; 'I' for Inactive)
REMARK    1  A    between atoms: C_1  and  O_2
REMARK    2  A    between atoms: O_2  and  C_3
REMARK    3  A    between atoms: C_6  and  C_7
REMARK    4  A    between atoms: C_7  and  C_8
REMARK    5  A    between atoms: C_8  and  C_9
REMARK    6  A    between atoms: N_12  and  C_13
REMARK    7  A    between atoms: C_13  and  C_14
REMARK    8  A    between atoms: C_14  and  C_15
REMARK                            x       y       z     vdW  Elec       q    Type
REMARK                         _______ _______ _______ _____ _____    ______ ____
ROOT
ATOM      1  C   UNL     1       5.312   5.383  17.415  0.00  0.00    +0.000 C 
ATOM      2  C   UNL     1       6.691   4.806  17.803  0.00  0.00    +0.000 C 
ATOM      3  C   UNL     1       7.527   5.800  18.629  0.00  0.00    +0.000 C 
ATOM      4  N   UNL     1       7.675   7.079  17.891  0.00  0.00    +0.000 NA
ATOM      5  C   UNL     1       6.348   7.682  17.654  0.00  0.00    +0.000 C 
ATOM      6  C   UNL     1       5.542   6.754  16.739  0.00  0.00    +0.000 C 
ENDROOT
BRANCH   1   7
ATOM      7  C   UNL     1       4.330   5.440  18.619  0.00  0.00    +0.000 C 
BRANCH   7   8
ATOM      8  C   UNL     1       2.890   5.768  18.163  0.00  0.00    +0.000 C 
BRANCH   8  12
ATOM      9  C   UNL     1       1.253   9.523  19.548  0.00  0.00    +0.000 A 
ATOM     10  C   UNL     1       1.605   9.377  18.193  0.00  0.00    +0.000 A 
ATOM     11  C   UNL     1       2.137   8.178  17.723  0.00  0.00    +0.000 A 
ATOM     12  C   UNL     1       2.328   7.096  18.599  0.00  0.00    +0.000 A 
ATOM     13  C   UNL     1       1.972   7.242  19.952  0.00  0.00    +0.000 A 
ATOM     14  C   UNL     1       1.440   8.445  20.421  0.00  0.00    +0.000 A 
BRANCH   9  16
ATOM     15  C   UNL     1      -0.483  11.212  19.692  0.00  0.00    +0.000 C 
ATOM     16  O   UNL     1       0.738  10.676  20.042  0.00  0.00    +0.000 OA
ENDBRANCH   9  16
ENDBRANCH   8  12
ENDBRANCH   7   8
ENDBRANCH   1   7
BRANCH   4  17
ATOM     17  C   UNL     1       8.582   8.039  18.559  0.00  0.00    +0.000 C 
BRANCH  17  18
ATOM     18  C   UNL     1       8.329   9.473  18.059  0.00  0.00    +0.000 C 
BRANCH  18  19
ATOM     19  C   UNL     1       9.290  10.475  18.654  0.00  0.00    +0.000 A 
ATOM     20  C   UNL     1       9.350  10.647  20.052  0.00  0.00    +0.000 A 
ATOM     21  C   UNL     1      10.248  11.552  20.615  0.00  0.00    +0.000 A 
ATOM     22  C   UNL     1      11.102  12.291  19.794  0.00  0.00    +0.000 A 
ATOM     23  C   UNL     1      11.056  12.132  18.406  0.00  0.00    +0.000 A 
ATOM     24  C   UNL     1      10.156  11.225  17.836  0.00  0.00    +0.000 A 
ENDBRANCH  18  19
ENDBRANCH  17  18
ENDBRANCH   4  17
TORSDOF 7
ENDMDL
