MODEL 1
REMARK VINA RESULT:      -7.6      0.000      0.000
REMARK  Name = 
REMARK  4 active torsions:
REMARK  status: ('A' for Active; 'I' for Inactive)
REMARK    1  A    between atoms: N_3  and  C_4
REMARK    2  A    between atoms: N_11  and  C_12
REMARK    3  A    between atoms: C_16  and  C_17
REMARK    4  A    between atoms: C_17  and  O_19
REMARK                            x       y       z     vdW  Elec       q    Type
REMARK                         _______ _______ _______ _____ _____    ______ ____
ROOT
ATOM      1  O   UNL     1       2.219   7.757  18.851  0.00  0.00    +0.000 OA
ATOM      2  C   UNL     1       2.272   7.113  19.890  0.00  0.00    +0.000 C 
ATOM      3  N   UNL     1       1.681   7.517  21.079  0.00  0.00    +0.000 N 
ATOM      4  N   UNL     1       2.980   5.924  20.039  0.00  0.00    +0.000 N 
ATOM      5  H   UNL     1       1.959   7.030  21.916  0.00  0.00    +0.000 HD
ATOM      6  H   UNL     1       3.037   5.527  20.964  0.00  0.00    +0.000 HD
ENDROOT
BRANCH   3   7
ATOM      7  C   UNL     1       0.945   8.714  21.263  0.00  0.00    +0.000 A 
ATOM      8  C   UNL     1       0.836   9.717  20.292  0.00  0.00    +0.000 A 
ATOM      9  C   UNL     1       0.151  10.906  20.561  0.00  0.00    +0.000 A 
ATOM     10  C   UNL     1      -0.439  11.097  21.805  0.00  0.00    +0.000 A 
ATOM     11 CL   UNL     1      -1.250  12.573  22.153  0.00  0.00    +0.000 Cl
ATOM     12  C   UNL     1      -0.371  10.095  22.771  0.00  0.00    +0.000 A 
ATOM     13  C   UNL     1       0.309   8.903  22.496  0.00  0.00    +0.000 A 
ENDBRANCH   3   7
BRANCH   4  14
ATOM     14  C   UNL     1       3.774   5.317  19.034  0.00  0.00    +0.000 A 
ATOM     15  C   UNL     1       3.225   4.619  17.953  0.00  0.00    +0.000 A 
ATOM     16  C   UNL     1       4.033   4.072  16.957  0.00  0.00    +0.000 A 
ATOM     17  C   UNL     1       5.413   4.210  17.025  0.00  0.00    +0.000 A 
ATOM     18  C   UNL     1       5.985   4.905  18.097  0.00  0.00    +0.000 A 
ATOM     19  C   UNL     1       5.167   5.431  19.116  0.00  0.00    +0.000 A 
BRANCH  18  20
ATOM     20  C   UNL     1       7.454   5.074  18.205  0.00  0.00    +0.000 C 
ATOM     21  O   UNL     1       7.962   6.059  18.715  0.00  0.00    +0.000 OA
BRANCH  20  22
ATOM     22  O   UNL     1       8.178   4.078  17.660  0.00  0.00    +0.000 OA
ATOM     23  H   UNL     1       7.680   3.440  17.113  0.00  0.00    +0.000 HD
ENDBRANCH  20  22
ENDBRANCH  18  20
ENDBRANCH   4  14
TORSDOF 4
ENDMDL
MODEL 2
REMARK VINA RESULT:      -7.6      5.889      7.145
REMARK  Name = 
REMARK  4 active torsions:
REMARK  status: ('A' for Active; 'I' for Inactive)
REMARK    1  A    between atoms: N_3  and  C_4
REMARK    2  A    between atoms: N_11  and  C_12
REMARK    3  A    between atoms: C_16  and  C_17
REMARK    4  A    between atoms: C_17  and  O_19
REMARK                            x       y       z     vdW  Elec       q    Type
REMARK                         _______ _______ _______ _____ _____    ______ ____
ROOT
ATOM      1  O   UNL     1       7.293   8.884  17.360  0.00  0.00    +0.000 OA
ATOM      2  C   UNL     1       7.908   8.212  18.178  0.00  0.00    +0.000 C 
ATOM      3  N   UNL     1       8.899   8.721  19.004  0.00  0.00    +0.000 N 
ATOM      4  N   UNL     1       7.742   6.841  18.348  0.00  0.00    +0.000 N 
ATOM      5  H   UNL     1       9.483   8.054  19.483  0.00  0.00    +0.000 HD
ATOM      6  H   UNL     1       8.369   6.370  18.982  0.00  0.00    +0.000 HD
ENDROOT
BRANCH   3   7
ATOM      7  C   UNL     1       9.341  10.068  19.022  0.00  0.00    +0.000 A 
ATOM      8  C   UNL     1       9.737  10.771  17.878  0.00  0.00    +0.000 A 
ATOM      9  C   UNL     1      10.228  12.077  17.971  0.00  0.00    +0.000 A 
ATOM     10  C   UNL     1      10.319  12.693  19.214  0.00  0.00    +0.000 A 
ATOM     11 CL   UNL     1      10.958  14.285  19.337  0.00  0.00    +0.000 Cl
ATOM     12  C   UNL     1       9.898  12.021  20.359  0.00  0.00    +0.000 A 
ATOM     13  C   UNL     1       9.399  10.717  20.261  0.00  0.00    +0.000 A 
ENDBRANCH   3   7
BRANCH   4  14
ATOM     14  C   UNL     1       6.882   6.023  17.575  0.00  0.00    +0.000 A 
ATOM     15  C   UNL     1       5.646   5.563  18.045  0.00  0.00    +0.000 A 
ATOM     16  C   UNL     1       4.803   4.796  17.242  0.00  0.00    +0.000 A 
ATOM     17  C   UNL     1       5.181   4.470  15.948  0.00  0.00    +0.000 A 
ATOM     18  C   UNL     1       6.413   4.918  15.454  0.00  0.00    +0.000 A 
ATOM     19  C   UNL     1       7.274   5.668  16.278  0.00  0.00    +0.000 A 
BRANCH  18  20
ATOM     20  C   UNL     1       6.853   4.590  14.077  0.00  0.00    +0.000 C 
ATOM     21  O   UNL     1       7.582   5.326  13.432  0.00  0.00    +0.000 OA
BRANCH  20  22
ATOM     22  O   UNL     1       6.350   3.443  13.583  0.00  0.00    +0.000 OA
ATOM     23  H   UNL     1       6.891   2.643  13.729  0.00  0.00    +0.000 HD
ENDBRANCH  20  22
ENDBRANCH  18  20
ENDBRANCH   4  14
TORSDOF 4
ENDMDL
MODEL 3
REMARK VINA RESULT:      -7.5      4.840      6.889
REMARK  Name = 
REMARK  4 active torsions:
REMARK  status: ('A' for Active; 'I' for Inactive)
REMARK    1  A    between atoms: N_3  and  C_4
REMARK    2  A    between atoms: N_11  and  C_12
REMARK    3  A    between atoms: C_16  and  C_17
REMARK    4  A    between atoms: C_17  and  O_19
REMARK                            x       y       z     vdW  Elec       q    Type
REMARK                         _______ _______ _______ _____ _____    ______ ____
ROOT
ATOM      1  O   UNL     1       4.582   3.520  16.197  0.00  0.00    +0.000 OA
ATOM      2  C   UNL     1       5.571   3.996  16.739  0.00  0.00    +0.000 C 
ATOM      3  N   UNL     1       5.682   4.188  18.109  0.00  0.00    +0.000 N 
ATOM      4  N   UNL     1       6.689   4.465  16.056  0.00  0.00    +0.000 N 
ATOM      5  H   UNL     1       6.436   4.773  18.429  0.00  0.00    +0.000 HD
ATOM      6  H   UNL     1       7.406   4.927  16.595  0.00  0.00    +0.000 HD
ENDROOT
BRANCH   3   7
ATOM      7  C   UNL     1       4.684   3.870  19.065  0.00  0.00    +0.000 A 
ATOM      8  C   UNL     1       4.551   2.610  19.660  0.00  0.00    +0.000 A 
ATOM      9  C   UNL     1       3.503   2.341  20.545  0.00  0.00    +0.000 A 
ATOM     10  C   UNL     1       2.582   3.337  20.849  0.00  0.00    +0.000 A 
ATOM     11 CL   UNL     1       1.270   2.998  21.907  0.00  0.00    +0.000 Cl
ATOM     12  C   UNL     1       2.719   4.607  20.293  0.00  0.00    +0.000 A 
ATOM     13  C   UNL     1       3.774   4.875  19.413  0.00  0.00    +0.000 A 
ENDBRANCH   3   7
BRANCH   4  14
ATOM     14  C   UNL     1       6.825   4.504  14.647  0.00  0.00    +0.000 A 
ATOM     15  C   UNL     1       7.729   5.350  13.994  0.00  0.00    +0.000 A 
ATOM     16  C   UNL     1       7.870   5.330  12.608  0.00  0.00    +0.000 A 
ATOM     17  C   UNL     1       7.105   4.463  11.841  0.00  0.00    +0.000 A 
ATOM     18  C   UNL     1       6.194   3.606  12.471  0.00  0.00    +0.000 A 
ATOM     19  C   UNL     1       6.034   3.649  13.869  0.00  0.00    +0.000 A 
BRANCH  18  20
ATOM     20  C   UNL     1       5.358   2.664  11.687  0.00  0.00    +0.000 C 
ATOM     21  O   UNL     1       4.237   2.953  11.302  0.00  0.00    +0.000 OA
BRANCH  20  22
ATOM     22  O   UNL     1       5.916   1.458  11.475  0.00  0.00    +0.000 OA
ATOM     23  H   UNL     1       5.397   0.838  10.927  0.00  0.00    +0.000 HD
ENDBRANCH  20  22
ENDBRANCH  18  20
ENDBRANCH   4  14
TORSDOF 4
ENDMDL
MODEL 4
REMARK VINA RESULT:      -7.5      0.398      1.136
REMARK  Name = 
REMARK  4 active torsions:
REMARK  status: ('A' for Active; 'I' for Inactive)
REMARK    1  A    between atoms: N_3  and  C_4
REMARK    2  A    between atoms: N_11  and  C_12
REMARK    3  A    between atoms: C_16  and  C_17
REMARK    4  A    between atoms: C_17  and  O_19
REMARK                            x       y       z     vdW  Elec       q    Type
REMARK                         _______ _______ _______ _____ _____    ______ ____
ROOT
ATOM      1  O   UNL     1       2.087   7.608  18.831  0.00  0.00    +0.000 OA
ATOM      2  C   UNL     1       2.278   7.058  19.908  0.00  0.00    +0.000 C 
ATOM      3  N   UNL     1       1.797   7.541  21.117  0.00  0.00    +0.000 N 
ATOM      4  N   UNL     1       3.051   5.913  20.076  0.00  0.00    +0.000 N 
ATOM      5  H   UNL     1       2.182   7.139  21.956  0.00  0.00    +0.000 HD
ATOM      6  H   UNL     1       3.223   5.599  21.019  0.00  0.00    +0.000 HD
ENDROOT
BRANCH   3   7
ATOM      7  C   UNL     1       1.031   8.722  21.281  0.00  0.00    +0.000 A 
ATOM      8  C   UNL     1       0.498   9.140  22.506  0.00  0.00    +0.000 A 
ATOM      9  C   UNL     1      -0.308  10.279  22.589  0.00  0.00    +0.000 A 
ATOM     10  C   UNL     1      -0.580  11.017  21.443  0.00  0.00    +0.000 A 
ATOM     11 CL   UNL     1      -1.601  12.397  21.534  0.00  0.00    +0.000 Cl
ATOM     12  C   UNL     1      -0.030  10.636  20.221  0.00  0.00    +0.000 A 
ATOM     13  C   UNL     1       0.782   9.499  20.143  0.00  0.00    +0.000 A 
ENDBRANCH   3   7
BRANCH   4  14
ATOM     14  C   UNL     1       3.761   5.251  19.045  0.00  0.00    +0.000 A 
ATOM     15  C   UNL     1       3.125   4.579  17.995  0.00  0.00    +0.000 A 
ATOM     16  C   UNL     1       3.853   3.976  16.971  0.00  0.00    +0.000 A 
ATOM     17  C   UNL     1       5.240   4.030  16.977  0.00  0.00    +0.000 A 
ATOM     18  C   UNL     1       5.900   4.698  18.017  0.00  0.00    +0.000 A 
ATOM     19  C   UNL     1       5.161   5.281  19.064  0.00  0.00    +0.000 A 
BRANCH  18  20
ATOM     20  C   UNL     1       7.380   4.778  18.059  0.00  0.00    +0.000 C 
ATOM     21  O   UNL     1       7.984   5.167  19.045  0.00  0.00    +0.000 OA
BRANCH  20  22
ATOM     22  O   UNL     1       7.997   4.429  16.915  0.00  0.00    +0.000 OA
ATOM     23  H   UNL     1       7.441   3.973  16.253  0.00  0.00    +0.000 HD
ENDBRANCH  20  22
ENDBRANCH  18  20
ENDBRANCH   4  14
TORSDOF 4
ENDMDL
MODEL 5
REMARK VINA RESULT:      -7.4      4.830      6.838
REMARK  Name = 
REMARK  4 active torsions:
REMARK  status: ('A' for Active; 'I' for Inactive)
REMARK    1  A    between atoms: N_3  and  C_4
REMARK    2  A    between atoms: N_11  and  C_12
REMARK    3  A    between atoms: C_16  and  C_17
REMARK    4  A    between atoms: C_17  and  O_19
REMARK                            x       y       z     vdW  Elec       q    Type
REMARK                         _______ _______ _______ _____ _____    ______ ____
ROOT
ATOM      1  O   UNL     1       4.447   3.631  16.142  0.00  0.00    +0.000 OA
ATOM      2  C   UNL     1       5.455   4.017  16.720  0.00  0.00    +0.000 C 
ATOM      3  N   UNL     1       5.543   4.172  18.096  0.00  0.00    +0.000 N 
ATOM      4  N   UNL     1       6.625   4.409  16.076  0.00  0.00    +0.000 N 
ATOM      5  H   UNL     1       6.332   4.689  18.448  0.00  0.00    +0.000 HD
ATOM      6  H   UNL     1       7.361   4.802  16.643  0.00  0.00    +0.000 HD
ENDROOT
BRANCH   3   7
ATOM      7  C   UNL     1       4.498   3.915  19.018  0.00  0.00    +0.000 A 
ATOM      8  C   UNL     1       3.580   4.883  19.443  0.00  0.00    +0.000 A 
ATOM      9  C   UNL     1       2.614   4.583  20.408  0.00  0.00    +0.000 A 
ATOM     10  C   UNL     1       2.554   3.305  20.951  0.00  0.00    +0.000 A 
ATOM     11 CL   UNL     1       1.392   2.943  22.166  0.00  0.00    +0.000 Cl
ATOM     12  C   UNL     1       3.437   2.320  20.516  0.00  0.00    +0.000 A 
ATOM     13  C   UNL     1       4.399   2.621  19.544  0.00  0.00    +0.000 A 
ENDBRANCH   3   7
BRANCH   4  14
ATOM     14  C   UNL     1       6.802   4.465  14.672  0.00  0.00    +0.000 A 
ATOM     15  C   UNL     1       7.693   5.349  14.054  0.00  0.00    +0.000 A 
ATOM     16  C   UNL     1       7.877   5.347  12.672  0.00  0.00    +0.000 A 
ATOM     17  C   UNL     1       7.168   4.458  11.876  0.00  0.00    +0.000 A 
ATOM     18  C   UNL     1       6.271   3.563  12.471  0.00  0.00    +0.000 A 
ATOM     19  C   UNL     1       6.067   3.588  13.864  0.00  0.00    +0.000 A 
BRANCH  18  20
ATOM     20  C   UNL     1       5.495   2.597  11.656  0.00  0.00    +0.000 C 
ATOM     21  O   UNL     1       4.376   2.847  11.238  0.00  0.00    +0.000 OA
BRANCH  20  22
ATOM     22  O   UNL     1       6.105   1.415  11.451  0.00  0.00    +0.000 OA
ATOM     23  H   UNL     1       6.552   1.025  12.227  0.00  0.00    +0.000 HD
ENDBRANCH  20  22
ENDBRANCH  18  20
ENDBRANCH   4  14
TORSDOF 4
ENDMDL
MODEL 6
REMARK VINA RESULT:      -7.3      5.991      7.131
REMARK  Name = 
REMARK  4 active torsions:
REMARK  status: ('A' for Active; 'I' for Inactive)
REMARK    1  A    between atoms: N_3  and  C_4
REMARK    2  A    between atoms: N_11  and  C_12
REMARK    3  A    between atoms: C_16  and  C_17
REMARK    4  A    between atoms: C_17  and  O_19
REMARK                            x       y       z     vdW  Elec       q    Type
REMARK                         _______ _______ _______ _____ _____    ______ ____
ROOT
ATOM      1  O   UNL     1       7.417   8.908  17.491  0.00  0.00    +0.000 OA
ATOM      2  C   UNL     1       8.083   8.304  18.322  0.00  0.00    +0.000 C 
ATOM      3  N   UNL     1       9.048   8.904  19.119  0.00  0.00    +0.000 N 
ATOM      4  N   UNL     1       8.009   6.932  18.537  0.00  0.00    +0.000 N 
ATOM      5  H   UNL     1       9.679   8.292  19.611  0.00  0.00    +0.000 HD
ATOM      6  H   UNL     1       8.672   6.523  19.178  0.00  0.00    +0.000 HD
ENDROOT
BRANCH   3   7
ATOM      7  C   UNL     1       9.401  10.276  19.087  0.00  0.00    +0.000 A 
ATOM      8  C   UNL     1       9.752  10.963  17.919  0.00  0.00    +0.000 A 
ATOM      9  C   UNL     1      10.157  12.300  17.965  0.00  0.00    +0.000 A 
ATOM     10  C   UNL     1      10.205  12.965  19.184  0.00  0.00    +0.000 A 
ATOM     11 CL   UNL     1      10.738  14.598  19.250  0.00  0.00    +0.000 Cl
ATOM     12  C   UNL     1       9.826  12.308  20.353  0.00  0.00    +0.000 A 
ATOM     13  C   UNL     1       9.415  10.971  20.302  0.00  0.00    +0.000 A 
ENDBRANCH   3   7
BRANCH   4  14
ATOM     14  C   UNL     1       7.196   6.035  17.803  0.00  0.00    +0.000 A 
ATOM     15  C   UNL     1       7.309   5.867  16.418  0.00  0.00    +0.000 A 
ATOM     16  C   UNL     1       6.524   4.942  15.732  0.00  0.00    +0.000 A 
ATOM     17  C   UNL     1       5.602   4.164  16.419  0.00  0.00    +0.000 A 
ATOM     18  C   UNL     1       5.471   4.313  17.805  0.00  0.00    +0.000 A 
ATOM     19  C   UNL     1       6.246   5.269  18.490  0.00  0.00    +0.000 A 
BRANCH  18  20
ATOM     20  C   UNL     1       4.498   3.501  18.575  0.00  0.00    +0.000 C 
ATOM     21  O   UNL     1       3.294   3.585  18.400  0.00  0.00    +0.000 OA
BRANCH  20  22
ATOM     22  O   UNL     1       5.047   2.701  19.509  0.00  0.00    +0.000 OA
ATOM     23  H   UNL     1       4.668   2.771  20.407  0.00  0.00    +0.000 HD
ENDBRANCH  20  22
ENDBRANCH  18  20
ENDBRANCH   4  14
TORSDOF 4
ENDMDL
MODEL 7
REMARK VINA RESULT:      -7.3      5.848      7.158
REMARK  Name = 
REMARK  4 active torsions:
REMARK  status: ('A' for Active; 'I' for Inactive)
REMARK    1  A    between atoms: N_3  and  C_4
REMARK    2  A    between atoms: N_11  and  C_12
REMARK    3  A    between atoms: C_16  and  C_17
REMARK    4  A    between atoms: C_17  and  O_19
REMARK                            x       y       z     vdW  Elec       q    Type
REMARK                         _______ _______ _______ _____ _____    ______ ____
ROOT
ATOM      1  O   UNL     1       7.235   8.970  17.456  0.00  0.00    +0.000 OA
ATOM      2  C   UNL     1       7.912   8.274  18.202  0.00  0.00    +0.000 C 
ATOM      3  N   UNL     1       8.931   8.769  19.003  0.00  0.00    +0.000 N 
ATOM      4  N   UNL     1       7.795   6.892  18.304  0.00  0.00    +0.000 N 
ATOM      5  H   UNL     1       9.559   8.096  19.412  0.00  0.00    +0.000 HD
ATOM      6  H   UNL     1       8.469   6.407  18.877  0.00  0.00    +0.000 HD
ENDROOT
BRANCH   3   7
ATOM      7  C   UNL     1       9.334  10.126  19.072  0.00  0.00    +0.000 A 
ATOM      8  C   UNL     1       9.319  10.883  20.250  0.00  0.00    +0.000 A 
ATOM      9  C   UNL     1       9.664  12.238  20.239  0.00  0.00    +0.000 A 
ATOM     10  C   UNL     1      10.036  12.846  19.045  0.00  0.00    +0.000 A 
ATOM     11 CL   UNL     1      10.425  14.520  19.020  0.00  0.00    +0.000 Cl
ATOM     12  C   UNL     1      10.091  12.100  17.870  0.00  0.00    +0.000 A 
ATOM     13  C   UNL     1       9.752  10.742  17.886  0.00  0.00    +0.000 A 
ENDBRANCH   3   7
BRANCH   4  14
ATOM     14  C   UNL     1       6.918   6.090  17.533  0.00  0.00    +0.000 A 
ATOM     15  C   UNL     1       5.667   5.669  17.998  0.00  0.00    +0.000 A 
ATOM     16  C   UNL     1       4.810   4.917  17.196  0.00  0.00    +0.000 A 
ATOM     17  C   UNL     1       5.188   4.567  15.907  0.00  0.00    +0.000 A 
ATOM     18  C   UNL     1       6.435   4.977  15.419  0.00  0.00    +0.000 A 
ATOM     19  C   UNL     1       7.310   5.711  16.242  0.00  0.00    +0.000 A 
BRANCH  18  20
ATOM     20  C   UNL     1       6.876   4.623  14.048  0.00  0.00    +0.000 C 
ATOM     21  O   UNL     1       7.648   5.320  13.411  0.00  0.00    +0.000 OA
BRANCH  20  22
ATOM     22  O   UNL     1       6.325   3.499  13.551  0.00  0.00    +0.000 OA
ATOM     23  H   UNL     1       6.792   2.667  13.761  0.00  0.00    +0.000 HD
ENDBRANCH  20  22
ENDBRANCH  18  20
ENDBRANCH   4  14
TORSDOF 4
ENDMDL
MODEL 8
REMARK VINA RESULT:      -7.3      1.061      1.061
REMARK  Name = 
REMARK  4 active torsions:
REMARK  status: ('A' for Active; 'I' for Inactive)
REMARK    1  A    between atoms: N_3  and  C_4
REMARK    2  A    between atoms: N_11  and  C_12
REMARK    3  A    between atoms: C_16  and  C_17
REMARK    4  A    between atoms: C_17  and  O_19
REMARK                            x       y       z     vdW  Elec       q    Type
REMARK                         _______ _______ _______ _____ _____    ______ ____
ROOT
ATOM      1  O   UNL     1       1.833   7.908  18.809  0.00  0.00    +0.000 OA
ATOM      2  C   UNL     1       2.160   7.335  19.840  0.00  0.00    +0.000 C 
ATOM      3  N   UNL     1       1.798   7.763  21.108  0.00  0.00    +0.000 N 
ATOM      4  N   UNL     1       2.987   6.217  19.884  0.00  0.00    +0.000 N 
ATOM      5  H   UNL     1       2.288   7.352  21.887  0.00  0.00    +0.000 HD
ATOM      6  H   UNL     1       3.273   5.882  20.792  0.00  0.00    +0.000 HD
ENDROOT
BRANCH   3   7
ATOM      7  C   UNL     1       1.013   8.908  21.394  0.00  0.00    +0.000 A 
ATOM      8  C   UNL     1       1.014  10.068  20.609  0.00  0.00    +0.000 A 
ATOM      9  C   UNL     1       0.268  11.190  20.983  0.00  0.00    +0.000 A 
ATOM     10  C   UNL     1      -0.494  11.156  22.146  0.00  0.00    +0.000 A 
ATOM     11 CL   UNL     1      -1.382  12.546  22.629  0.00  0.00    +0.000 Cl
ATOM     12  C   UNL     1      -0.534   9.999  22.921  0.00  0.00    +0.000 A 
ATOM     13  C   UNL     1       0.208   8.875  22.539  0.00  0.00    +0.000 A 
ENDBRANCH   3   7
BRANCH   4  14
ATOM     14  C   UNL     1       3.602   5.613  18.760  0.00  0.00    +0.000 A 
ATOM     15  C   UNL     1       3.059   4.505  18.100  0.00  0.00    +0.000 A 
ATOM     16  C   UNL     1       3.667   3.963  16.969  0.00  0.00    +0.000 A 
ATOM     17  C   UNL     1       4.839   4.519  16.474  0.00  0.00    +0.000 A 
ATOM     18  C   UNL     1       5.402   5.628  17.117  0.00  0.00    +0.000 A 
ATOM     19  C   UNL     1       4.800   6.154  18.276  0.00  0.00    +0.000 A 
BRANCH  18  20
ATOM     20  C   UNL     1       6.653   6.250  16.619  0.00  0.00    +0.000 C 
ATOM     21  O   UNL     1       7.030   7.347  16.995  0.00  0.00    +0.000 OA
BRANCH  20  22
ATOM     22  O   UNL     1       7.311   5.528  15.692  0.00  0.00    +0.000 OA
ATOM     23  H   UNL     1       8.268   5.707  15.613  0.00  0.00    +0.000 HD
ENDBRANCH  20  22
ENDBRANCH  18  20
ENDBRANCH   4  14
TORSDOF 4
ENDMDL
MODEL 9
REMARK VINA RESULT:      -7.3      1.254      1.672
REMARK  Name = 
REMARK  4 active torsions:
REMARK  status: ('A' for Active; 'I' for Inactive)
REMARK    1  A    between atoms: N_3  and  C_4
REMARK    2  A    between atoms: N_11  and  C_12
REMARK    3  A    between atoms: C_16  and  C_17
REMARK    4  A    between atoms: C_17  and  O_19
REMARK                            x       y       z     vdW  Elec       q    Type
REMARK                         _______ _______ _______ _____ _____    ______ ____
ROOT
ATOM      1  O   UNL     1       2.193   6.726  20.241  0.00  0.00    +0.000 OA
ATOM      2  C   UNL     1       2.287   7.483  19.283  0.00  0.00    +0.000 C 
ATOM      3  N   UNL     1       1.708   8.742  19.235  0.00  0.00    +0.000 N 
ATOM      4  N   UNL     1       2.933   7.161  18.093  0.00  0.00    +0.000 N 
ATOM      5  H   UNL     1       1.665   9.192  18.335  0.00  0.00    +0.000 HD
ATOM      6  H   UNL     1       2.867   7.821  17.333  0.00  0.00    +0.000 HD
ENDROOT
BRANCH   3   7
ATOM      7  C   UNL     1       0.932   9.328  20.267  0.00  0.00    +0.000 A 
ATOM      8  C   UNL     1       0.501   8.635  21.404  0.00  0.00    +0.000 A 
ATOM      9  C   UNL     1      -0.320   9.252  22.353  0.00  0.00    +0.000 A 
ATOM     10  C   UNL     1      -0.710  10.574  22.174  0.00  0.00    +0.000 A 
ATOM     11 CL   UNL     1      -1.750  11.324  23.319  0.00  0.00    +0.000 Cl
ATOM     12  C   UNL     1      -0.262  11.290  21.066  0.00  0.00    +0.000 A 
ATOM     13  C   UNL     1       0.566  10.671  20.122  0.00  0.00    +0.000 A 
ENDBRANCH   3   7
BRANCH   4  14
ATOM     14  C   UNL     1       3.528   5.909  17.802  0.00  0.00    +0.000 A 
ATOM     15  C   UNL     1       2.781   4.743  17.598  0.00  0.00    +0.000 A 
ATOM     16  C   UNL     1       3.395   3.536  17.268  0.00  0.00    +0.000 A 
ATOM     17  C   UNL     1       4.775   3.469  17.137  0.00  0.00    +0.000 A 
ATOM     18  C   UNL     1       5.544   4.622  17.336  0.00  0.00    +0.000 A 
ATOM     19  C   UNL     1       4.922   5.833  17.697  0.00  0.00    +0.000 A 
BRANCH  18  20
ATOM     20  C   UNL     1       7.021   4.592  17.206  0.00  0.00    +0.000 C 
ATOM     21  O   UNL     1       7.758   4.459  18.169  0.00  0.00    +0.000 OA
BRANCH  20  22
ATOM     22  O   UNL     1       7.480   4.766  15.952  0.00  0.00    +0.000 OA
ATOM     23  H   UNL     1       8.273   4.247  15.712  0.00  0.00    +0.000 HD
ENDBRANCH  20  22
ENDBRANCH  18  20
ENDBRANCH   4  14
TORSDOF 4
ENDMDL
