MODEL 1
REMARK VINA RESULT:      -9.0      0.000      0.000
REMARK  Name = 
REMARK  5 active torsions:
REMARK  status: ('A' for Active; 'I' for Inactive)
REMARK    1  A    between atoms: C_1  and  S_2
REMARK    2  A    between atoms: S_2  and  C_5
REMARK    3  A    between atoms: C_5  and  C_6
REMARK    4  A    between atoms: C_8  and  N_9
REMARK    5  A    between atoms: C_16  and  C_17
REMARK                            x       y       z     vdW  Elec       q    Type
REMARK                         _______ _______ _______ _____ _____    ______ ____
ROOT
ATOM      1  C   UNL     1       4.360   5.274  17.130  0.00  0.00    +0.000 A 
ATOM      2  C   UNL     1       3.818   4.165  17.756  0.00  0.00    +0.000 A 
ATOM      3  C   UNL     1       2.775   4.345  18.640  0.00  0.00    +0.000 A 
ATOM      4  N   UNL     1       2.274   5.573  18.841  0.00  0.00    +0.000 NA
ATOM      5  C   UNL     1       2.801   6.598  18.157  0.00  0.00    +0.000 A 
ATOM      6  N   UNL     1       3.825   6.495  17.300  0.00  0.00    +0.000 NA
ENDROOT
BRANCH   5   7
ATOM      7  C   UNL     1       2.286   7.928  18.458  0.00  0.00    +0.000 A 
ATOM      8  C   UNL     1       2.328   8.979  17.524  0.00  0.00    +0.000 A 
ATOM      9  C   UNL     1       1.824  10.224  17.865  0.00  0.00    +0.000 A 
ATOM     10  N   UNL     1       1.283  10.550  19.058  0.00  0.00    +0.000 NA
ATOM     11  C   UNL     1       1.265   9.523  19.925  0.00  0.00    +0.000 A 
ATOM     12  N   UNL     1       0.783   9.605  21.202  0.00  0.00    +0.000 N 
ATOM     13  C   UNL     1       0.895   8.392  21.826  0.00  0.00    +0.000 A 
ATOM     14  C   UNL     1       1.470   7.516  20.930  0.00  0.00    +0.000 A 
ATOM     15  C   UNL     1       1.717   8.224  19.717  0.00  0.00    +0.000 A 
ATOM     16  H   UNL     1       0.406  10.454  21.599  0.00  0.00    +0.000 HD
ENDBRANCH   5   7
BRANCH   3  17
ATOM     17  N   UNL     1       2.293   3.314  19.409  0.00  0.00    +0.000 N 
ATOM     18  C   UNL     1       1.021   3.359  20.136  0.00  0.00    +0.000 C 
ATOM     19  C   UNL     1       1.265   3.224  21.649  0.00  0.00    +0.000 C 
ATOM     20  O   UNL     1       2.071   2.078  21.966  0.00  0.00    +0.000 OA
ATOM     21  C   UNL     1       3.350   2.173  21.314  0.00  0.00    +0.000 C 
ATOM     22  C   UNL     1       3.188   2.215  19.793  0.00  0.00    +0.000 C 
ENDBRANCH   3  17
BRANCH   1  23
ATOM     23  C   UNL     1       5.630   5.167  16.349  0.00  0.00    +0.000 C 
ATOM     24  C   UNL     1       5.655   5.578  14.889  0.00  0.00    +0.000 C 
ATOM     25  C   UNL     1       5.782   4.128  15.257  0.00  0.00    +0.000 C 
BRANCH  23  27
ATOM     26  C   UNL     1       6.685   5.590  18.957  0.00  0.00    +0.000 C 
ATOM     27  S   UNL     1       7.175   5.521  17.254  0.00  0.00    +0.000 S 
ATOM     28  O   UNL     1       7.591   6.853  16.844  0.00  0.00    +0.000 OA
ATOM     29  O   UNL     1       8.065   4.390  17.091  0.00  0.00    +0.000 OA
ENDBRANCH  23  27
ENDBRANCH   1  23
TORSDOF 4
ENDMDL
MODEL 2
REMARK VINA RESULT:      -8.9      1.993      4.789
REMARK  Name = 
REMARK  5 active torsions:
REMARK  status: ('A' for Active; 'I' for Inactive)
REMARK    1  A    between atoms: C_1  and  S_2
REMARK    2  A    between atoms: S_2  and  C_5
REMARK    3  A    between atoms: C_5  and  C_6
REMARK    4  A    between atoms: C_8  and  N_9
REMARK    5  A    between atoms: C_16  and  C_17
REMARK                            x       y       z     vdW  Elec       q    Type
REMARK                         _______ _______ _______ _____ _____    ______ ____
ROOT
ATOM      1  C   UNL     1       2.783   5.067  19.244  0.00  0.00    +0.000 A 
ATOM      2  C   UNL     1       3.962   5.100  18.520  0.00  0.00    +0.000 A 
ATOM      3  C   UNL     1       4.355   6.291  17.947  0.00  0.00    +0.000 A 
ATOM      4  N   UNL     1       3.625   7.399  18.138  0.00  0.00    +0.000 NA
ATOM      5  C   UNL     1       2.526   7.316  18.902  0.00  0.00    +0.000 A 
ATOM      6  N   UNL     1       2.079   6.189  19.471  0.00  0.00    +0.000 NA
ENDROOT
BRANCH   5   7
ATOM      7  C   UNL     1       1.714   8.520  19.024  0.00  0.00    +0.000 A 
ATOM      8  C   UNL     1       1.384   9.320  17.915  0.00  0.00    +0.000 A 
ATOM      9  C   UNL     1       0.608  10.454  18.091  0.00  0.00    +0.000 A 
ATOM     10  N   UNL     1       0.123  10.897  19.271  0.00  0.00    +0.000 NA
ATOM     11  C   UNL     1       0.463  10.110  20.306  0.00  0.00    +0.000 A 
ATOM     12  N   UNL     1       0.107  10.355  21.604  0.00  0.00    +0.000 N 
ATOM     13  C   UNL     1       0.597   9.369  22.419  0.00  0.00    +0.000 A 
ATOM     14  C   UNL     1       1.288   8.479  21.625  0.00  0.00    +0.000 A 
ATOM     15  C   UNL     1       1.217   8.942  20.278  0.00  0.00    +0.000 A 
ATOM     16  H   UNL     1      -0.437  11.156  21.889  0.00  0.00    +0.000 HD
ENDBRANCH   5   7
BRANCH   3  17
ATOM     17  N   UNL     1       5.428   6.361  17.090  0.00  0.00    +0.000 N 
ATOM     18  C   UNL     1       5.312   6.325  15.630  0.00  0.00    +0.000 C 
ATOM     19  C   UNL     1       6.047   5.097  15.065  0.00  0.00    +0.000 C 
ATOM     20  O   UNL     1       7.401   5.013  15.539  0.00  0.00    +0.000 OA
ATOM     21  C   UNL     1       7.420   4.924  16.975  0.00  0.00    +0.000 C 
ATOM     22  C   UNL     1       6.787   6.164  17.610  0.00  0.00    +0.000 C 
ENDBRANCH   3  17
BRANCH   1  23
ATOM     23  C   UNL     1       2.193   3.767  19.687  0.00  0.00    +0.000 C 
ATOM     24  C   UNL     1       1.194   3.742  20.828  0.00  0.00    +0.000 C 
ATOM     25  C   UNL     1       2.565   3.164  21.026  0.00  0.00    +0.000 C 
BRANCH  23  27
ATOM     26  C   UNL     1       3.308   1.489  18.397  0.00  0.00    +0.000 C 
ATOM     27  S   UNL     1       1.874   2.531  18.382  0.00  0.00    +0.000 S 
ATOM     28  O   UNL     1       1.855   3.264  17.125  0.00  0.00    +0.000 OA
ATOM     29  O   UNL     1       0.737   1.731  18.785  0.00  0.00    +0.000 OA
ENDBRANCH  23  27
ENDBRANCH   1  23
TORSDOF 4
ENDMDL
MODEL 3
REMARK VINA RESULT:      -8.8      1.020      1.708
REMARK  Name = 
REMARK  5 active torsions:
REMARK  status: ('A' for Active; 'I' for Inactive)
REMARK    1  A    between atoms: C_1  and  S_2
REMARK    2  A    between atoms: S_2  and  C_5
REMARK    3  A    between atoms: C_5  and  C_6
REMARK    4  A    between atoms: C_8  and  N_9
REMARK    5  A    between atoms: C_16  and  C_17
REMARK                            x       y       z     vdW  Elec       q    Type
REMARK                         _______ _______ _______ _____ _____    ______ ____
ROOT
ATOM      1  C   UNL     1       5.088   5.984  17.702  0.00  0.00    +0.000 A 
ATOM      2  C   UNL     1       4.590   4.748  18.078  0.00  0.00    +0.000 A 
ATOM      3  C   UNL     1       3.328   4.681  18.629  0.00  0.00    +0.000 A 
ATOM      4  N   UNL     1       2.590   5.794  18.749  0.00  0.00    +0.000 NA
ATOM      5  C   UNL     1       3.104   6.952  18.309  0.00  0.00    +0.000 A 
ATOM      6  N   UNL     1       4.327   7.089  17.782  0.00  0.00    +0.000 NA
ENDROOT
BRANCH   5   7
ATOM      7  C   UNL     1       2.308   8.153  18.526  0.00  0.00    +0.000 A 
ATOM      8  C   UNL     1       2.151   9.139  17.535  0.00  0.00    +0.000 A 
ATOM      9  C   UNL     1       1.383  10.262  17.796  0.00  0.00    +0.000 A 
ATOM     10  N   UNL     1       0.749  10.525  18.958  0.00  0.00    +0.000 NA
ATOM     11  C   UNL     1       0.926   9.564  19.882  0.00  0.00    +0.000 A 
ATOM     12  N   UNL     1       0.400   9.606  21.143  0.00  0.00    +0.000 N 
ATOM     13  C   UNL     1       0.751   8.478  21.836  0.00  0.00    +0.000 A 
ATOM     14  C   UNL     1       1.526   7.702  21.002  0.00  0.00    +0.000 A 
ATOM     15  C   UNL     1       1.652   8.384  19.755  0.00  0.00    +0.000 A 
ATOM     16  H   UNL     1      -0.161  10.372  21.485  0.00  0.00    +0.000 HD
ENDBRANCH   5   7
BRANCH   3  17
ATOM     17  N   UNL     1       2.835   3.515  19.164  0.00  0.00    +0.000 N 
ATOM     18  C   UNL     1       1.505   2.976  18.865  0.00  0.00    +0.000 C 
ATOM     19  C   UNL     1       0.656   2.904  20.146  0.00  0.00    +0.000 C 
ATOM     20  O   UNL     1       1.335   2.213  21.206  0.00  0.00    +0.000 OA
ATOM     21  C   UNL     1       2.569   2.879  21.525  0.00  0.00    +0.000 C 
ATOM     22  C   UNL     1       3.508   2.903  20.317  0.00  0.00    +0.000 C 
ENDBRANCH   3  17
BRANCH   1  23
ATOM     23  C   UNL     1       6.523   6.146  17.318  0.00  0.00    +0.000 C 
ATOM     24  C   UNL     1       7.540   6.570  18.360  0.00  0.00    +0.000 C 
ATOM     25  C   UNL     1       7.160   7.519  17.261  0.00  0.00    +0.000 C 
BRANCH  23  27
ATOM     26  C   UNL     1       5.726   4.173  15.430  0.00  0.00    +0.000 C 
ATOM     27  S   UNL     1       7.169   4.979  16.072  0.00  0.00    +0.000 S 
ATOM     28  O   UNL     1       7.953   3.996  16.803  0.00  0.00    +0.000 OA
ATOM     29  O   UNL     1       7.766   5.746  14.999  0.00  0.00    +0.000 OA
ENDBRANCH  23  27
ENDBRANCH   1  23
TORSDOF 4
ENDMDL
MODEL 4
REMARK VINA RESULT:      -8.4      1.780      4.703
REMARK  Name = 
REMARK  5 active torsions:
REMARK  status: ('A' for Active; 'I' for Inactive)
REMARK    1  A    between atoms: C_1  and  S_2
REMARK    2  A    between atoms: S_2  and  C_5
REMARK    3  A    between atoms: C_5  and  C_6
REMARK    4  A    between atoms: C_8  and  N_9
REMARK    5  A    between atoms: C_16  and  C_17
REMARK                            x       y       z     vdW  Elec       q    Type
REMARK                         _______ _______ _______ _____ _____    ______ ____
ROOT
ATOM      1  C   UNL     1       2.909   5.309  19.332  0.00  0.00    +0.000 A 
ATOM      2  C   UNL     1       4.006   5.423  18.496  0.00  0.00    +0.000 A 
ATOM      3  C   UNL     1       4.229   6.622  17.853  0.00  0.00    +0.000 A 
ATOM      4  N   UNL     1       3.418   7.665  18.082  0.00  0.00    +0.000 NA
ATOM      5  C   UNL     1       2.409   7.511  18.951  0.00  0.00    +0.000 A 
ATOM      6  N   UNL     1       2.127   6.370  19.594  0.00  0.00    +0.000 NA
ENDROOT
BRANCH   5   7
ATOM      7  C   UNL     1       1.501   8.639  19.118  0.00  0.00    +0.000 A 
ATOM      8  C   UNL     1       1.037   9.397  18.027  0.00  0.00    +0.000 A 
ATOM      9  C   UNL     1       0.175  10.459  18.245  0.00  0.00    +0.000 A 
ATOM     10  N   UNL     1      -0.277  10.868  19.449  0.00  0.00    +0.000 NA
ATOM     11  C   UNL     1       0.192  10.123  20.466  0.00  0.00    +0.000 A 
ATOM     12  N   UNL     1      -0.107  10.347  21.782  0.00  0.00    +0.000 N 
ATOM     13  C   UNL     1       0.515   9.416  22.569  0.00  0.00    +0.000 A 
ATOM     14  C   UNL     1       1.235   8.583  21.739  0.00  0.00    +0.000 A 
ATOM     15  C   UNL     1       1.044   9.026  20.397  0.00  0.00    +0.000 A 
ATOM     16  H   UNL     1      -0.702  11.099  22.095  0.00  0.00    +0.000 HD
ENDBRANCH   5   7
BRANCH   3  17
ATOM     17  N   UNL     1       5.204   6.757  16.893  0.00  0.00    +0.000 N 
ATOM     18  C   UNL     1       5.007   6.441  15.476  0.00  0.00    +0.000 C 
ATOM     19  C   UNL     1       5.955   5.309  15.044  0.00  0.00    +0.000 C 
ATOM     20  O   UNL     1       7.322   5.589  15.389  0.00  0.00    +0.000 OA
ATOM     21  C   UNL     1       7.450   5.760  16.811  0.00  0.00    +0.000 C 
ATOM     22  C   UNL     1       6.603   6.937  17.300  0.00  0.00    +0.000 C 
ENDBRANCH   3  17
BRANCH   1  23
ATOM     23  C   UNL     1       2.490   3.979  19.869  0.00  0.00    +0.000 C 
ATOM     24  C   UNL     1       1.137   3.406  19.493  0.00  0.00    +0.000 C 
ATOM     25  C   UNL     1       1.385   3.872  20.899  0.00  0.00    +0.000 C 
BRANCH  23  27
ATOM     26  C   UNL     1       3.484   1.543  18.784  0.00  0.00    +0.000 C 
ATOM     27  S   UNL     1       3.806   2.729  20.063  0.00  0.00    +0.000 S 
ATOM     28  O   UNL     1       3.573   2.089  21.348  0.00  0.00    +0.000 OA
ATOM     29  O   UNL     1       5.077   3.360  19.776  0.00  0.00    +0.000 OA
ENDBRANCH  23  27
ENDBRANCH   1  23
TORSDOF 4
ENDMDL
MODEL 5
REMARK VINA RESULT:      -8.3      1.206      1.906
REMARK  Name = 
REMARK  5 active torsions:
REMARK  status: ('A' for Active; 'I' for Inactive)
REMARK    1  A    between atoms: C_1  and  S_2
REMARK    2  A    between atoms: S_2  and  C_5
REMARK    3  A    between atoms: C_5  and  C_6
REMARK    4  A    between atoms: C_8  and  N_9
REMARK    5  A    between atoms: C_16  and  C_17
REMARK                            x       y       z     vdW  Elec       q    Type
REMARK                         _______ _______ _______ _____ _____    ______ ____
ROOT
ATOM      1  C   UNL     1       4.668   6.170  17.408  0.00  0.00    +0.000 A 
ATOM      2  C   UNL     1       3.980   4.975  17.526  0.00  0.00    +0.000 A 
ATOM      3  C   UNL     1       2.690   4.997  18.013  0.00  0.00    +0.000 A 
ATOM      4  N   UNL     1       2.109   6.167  18.314  0.00  0.00    +0.000 NA
ATOM      5  C   UNL     1       2.805   7.295  18.119  0.00  0.00    +0.000 A 
ATOM      6  N   UNL     1       4.066   7.343  17.668  0.00  0.00    +0.000 NA
ENDROOT
BRANCH   5   7
ATOM      7  C   UNL     1       2.173   8.542  18.530  0.00  0.00    +0.000 A 
ATOM      8  C   UNL     1       2.127   9.673  17.695  0.00  0.00    +0.000 A 
ATOM      9  C   UNL     1       1.514  10.833  18.139  0.00  0.00    +0.000 A 
ATOM     10  N   UNL     1       0.938  11.002  19.348  0.00  0.00    +0.000 NA
ATOM     11  C   UNL     1       1.006   9.902  20.119  0.00  0.00    +0.000 A 
ATOM     12  N   UNL     1       0.510   9.826  21.392  0.00  0.00    +0.000 N 
ATOM     13  C   UNL     1       0.725   8.576  21.906  0.00  0.00    +0.000 A 
ATOM     14  C   UNL     1       1.381   7.838  20.943  0.00  0.00    +0.000 A 
ATOM     15  C   UNL     1       1.572   8.672  19.802  0.00  0.00    +0.000 A 
ATOM     16  H   UNL     1       0.058  10.599  21.858  0.00  0.00    +0.000 HD
ENDBRANCH   5   7
BRANCH   3  17
ATOM     17  N   UNL     1       2.007   3.839  18.301  0.00  0.00    +0.000 N 
ATOM     18  C   UNL     1       1.077   3.696  19.424  0.00  0.00    +0.000 C 
ATOM     19  C   UNL     1       1.579   2.617  20.399  0.00  0.00    +0.000 C 
ATOM     20  O   UNL     1       1.873   1.380  19.731  0.00  0.00    +0.000 OA
ATOM     21  C   UNL     1       2.885   1.583  18.730  0.00  0.00    +0.000 C 
ATOM     22  C   UNL     1       2.414   2.579  17.668  0.00  0.00    +0.000 C 
ENDBRANCH   3  17
BRANCH   1  23
ATOM     23  C   UNL     1       6.133   6.184  17.110  0.00  0.00    +0.000 C 
ATOM     24  C   UNL     1       7.131   6.329  18.242  0.00  0.00    +0.000 C 
ATOM     25  C   UNL     1       6.943   7.454  17.266  0.00  0.00    +0.000 C 
BRANCH  23  27
ATOM     26  C   UNL     1       5.317   5.047  14.633  0.00  0.00    +0.000 C 
ATOM     27  S   UNL     1       6.695   5.110  15.746  0.00  0.00    +0.000 S 
ATOM     28  O   UNL     1       6.879   3.786  16.320  0.00  0.00    +0.000 OA
ATOM     29  O   UNL     1       7.787   5.775  15.067  0.00  0.00    +0.000 OA
ENDBRANCH  23  27
ENDBRANCH   1  23
TORSDOF 4
ENDMDL
MODEL 6
REMARK VINA RESULT:      -8.2      1.776      4.758
REMARK  Name = 
REMARK  5 active torsions:
REMARK  status: ('A' for Active; 'I' for Inactive)
REMARK    1  A    between atoms: C_1  and  S_2
REMARK    2  A    between atoms: S_2  and  C_5
REMARK    3  A    between atoms: C_5  and  C_6
REMARK    4  A    between atoms: C_8  and  N_9
REMARK    5  A    between atoms: C_16  and  C_17
REMARK                            x       y       z     vdW  Elec       q    Type
REMARK                         _______ _______ _______ _____ _____    ______ ____
ROOT
ATOM      1  C   UNL     1       2.763   4.889  18.880  0.00  0.00    +0.000 A 
ATOM      2  C   UNL     1       3.943   4.893  18.155  0.00  0.00    +0.000 A 
ATOM      3  C   UNL     1       4.399   6.086  17.636  0.00  0.00    +0.000 A 
ATOM      4  N   UNL     1       3.728   7.221  17.879  0.00  0.00    +0.000 NA
ATOM      5  C   UNL     1       2.626   7.162  18.641  0.00  0.00    +0.000 A 
ATOM      6  N   UNL     1       2.120   6.035  19.159  0.00  0.00    +0.000 NA
ENDROOT
BRANCH   5   7
ATOM      7  C   UNL     1       1.878   8.400  18.820  0.00  0.00    +0.000 A 
ATOM      8  C   UNL     1       1.602   9.272  17.752  0.00  0.00    +0.000 A 
ATOM      9  C   UNL     1       0.887  10.436  17.981  0.00  0.00    +0.000 A 
ATOM     10  N   UNL     1       0.415  10.844  19.178  0.00  0.00    +0.000 NA
ATOM     11  C   UNL     1       0.703   9.988  20.174  0.00  0.00    +0.000 A 
ATOM     12  N   UNL     1       0.348  10.185  21.480  0.00  0.00    +0.000 N 
ATOM     13  C   UNL     1       0.776   9.133  22.246  0.00  0.00    +0.000 A 
ATOM     14  C   UNL     1       1.426   8.249  21.412  0.00  0.00    +0.000 A 
ATOM     15  C   UNL     1       1.393   8.783  20.090  0.00  0.00    +0.000 A 
ATOM     16  H   UNL     1      -0.155  10.998  21.802  0.00  0.00    +0.000 HD
ENDBRANCH   5   7
BRANCH   3  17
ATOM     17  N   UNL     1       5.473   6.138  16.781  0.00  0.00    +0.000 N 
ATOM     18  C   UNL     1       5.366   6.022  15.324  0.00  0.00    +0.000 C 
ATOM     19  C   UNL     1       6.136   4.786  14.828  0.00  0.00    +0.000 C 
ATOM     20  O   UNL     1       7.488   4.762  15.312  0.00  0.00    +0.000 OA
ATOM     21  C   UNL     1       7.502   4.749  16.750  0.00  0.00    +0.000 C 
ATOM     22  C   UNL     1       6.834   6.004  17.316  0.00  0.00    +0.000 C 
ENDBRANCH   3  17
BRANCH   1  23
ATOM     23  C   UNL     1       2.106   3.603  19.265  0.00  0.00    +0.000 C 
ATOM     24  C   UNL     1       1.957   2.495  18.240  0.00  0.00    +0.000 C 
ATOM     25  C   UNL     1       0.742   3.236  18.718  0.00  0.00    +0.000 C 
BRANCH  23  27
ATOM     26  C   UNL     1       3.970   2.188  20.883  0.00  0.00    +0.000 C 
ATOM     27  S   UNL     1       2.404   3.015  20.967  0.00  0.00    +0.000 S 
ATOM     28  O   UNL     1       1.377   2.021  21.239  0.00  0.00    +0.000 OA
ATOM     29  O   UNL     1       2.554   4.170  21.826  0.00  0.00    +0.000 OA
ENDBRANCH  23  27
ENDBRANCH   1  23
TORSDOF 4
ENDMDL
MODEL 7
REMARK VINA RESULT:      -8.2      1.960      4.974
REMARK  Name = 
REMARK  5 active torsions:
REMARK  status: ('A' for Active; 'I' for Inactive)
REMARK    1  A    between atoms: C_1  and  S_2
REMARK    2  A    between atoms: S_2  and  C_5
REMARK    3  A    between atoms: C_5  and  C_6
REMARK    4  A    between atoms: C_8  and  N_9
REMARK    5  A    between atoms: C_16  and  C_17
REMARK                            x       y       z     vdW  Elec       q    Type
REMARK                         _______ _______ _______ _____ _____    ______ ____
ROOT
ATOM      1  C   UNL     1       2.988   4.501  19.784  0.00  0.00    +0.000 A 
ATOM      2  C   UNL     1       4.298   4.430  19.341  0.00  0.00    +0.000 A 
ATOM      3  C   UNL     1       4.870   5.552  18.779  0.00  0.00    +0.000 A 
ATOM      4  N   UNL     1       4.175   6.696  18.716  0.00  0.00    +0.000 NA
ATOM      5  C   UNL     1       2.933   6.719  19.219  0.00  0.00    +0.000 A 
ATOM      6  N   UNL     1       2.312   5.662  19.759  0.00  0.00    +0.000 NA
ENDROOT
BRANCH   5   7
ATOM      7  C   UNL     1       2.178   7.956  19.063  0.00  0.00    +0.000 A 
ATOM      8  C   UNL     1       2.132   8.660  17.845  0.00  0.00    +0.000 A 
ATOM      9  C   UNL     1       1.398   9.831  17.755  0.00  0.00    +0.000 A 
ATOM     10  N   UNL     1       0.701  10.399  18.761  0.00  0.00    +0.000 NA
ATOM     11  C   UNL     1       0.773   9.701  19.908  0.00  0.00    +0.000 A 
ATOM     12  N   UNL     1       0.165  10.078  21.075  0.00  0.00    +0.000 N 
ATOM     13  C   UNL     1       0.419   9.157  22.055  0.00  0.00    +0.000 A 
ATOM     14  C   UNL     1       1.213   8.173  21.506  0.00  0.00    +0.000 A 
ATOM     15  C   UNL     1       1.452   8.510  20.140  0.00  0.00    +0.000 A 
ATOM     16  H   UNL     1      -0.383  10.920  21.168  0.00  0.00    +0.000 HD
ENDBRANCH   5   7
BRANCH   3  17
ATOM     17  N   UNL     1       6.107   5.509  18.181  0.00  0.00    +0.000 N 
ATOM     18  C   UNL     1       7.152   6.515  18.390  0.00  0.00    +0.000 C 
ATOM     19  C   UNL     1       7.494   7.215  17.063  0.00  0.00    +0.000 C 
ATOM     20  O   UNL     1       7.796   6.275  16.019  0.00  0.00    +0.000 OA
ATOM     21  C   UNL     1       6.672   5.408  15.790  0.00  0.00    +0.000 C 
ATOM     22  C   UNL     1       6.334   4.604  17.047  0.00  0.00    +0.000 C 
ENDBRANCH   3  17
BRANCH   1  23
ATOM     23  C   UNL     1       2.247   3.266  20.184  0.00  0.00    +0.000 C 
ATOM     24  C   UNL     1       1.309   3.301  21.374  0.00  0.00    +0.000 C 
ATOM     25  C   UNL     1       2.596   2.533  21.463  0.00  0.00    +0.000 C 
BRANCH  23  27
ATOM     26  C   UNL     1       2.205   3.008  17.350  0.00  0.00    +0.000 C 
ATOM     27  S   UNL     1       1.700   2.171  18.829  0.00  0.00    +0.000 S 
ATOM     28  O   UNL     1       0.246   2.163  18.876  0.00  0.00    +0.000 OA
ATOM     29  O   UNL     1       2.446   0.933  18.918  0.00  0.00    +0.000 OA
ENDBRANCH  23  27
ENDBRANCH   1  23
TORSDOF 4
ENDMDL
MODEL 8
REMARK VINA RESULT:      -8.1      0.877      1.002
REMARK  Name = 
REMARK  5 active torsions:
REMARK  status: ('A' for Active; 'I' for Inactive)
REMARK    1  A    between atoms: C_1  and  S_2
REMARK    2  A    between atoms: S_2  and  C_5
REMARK    3  A    between atoms: C_5  and  C_6
REMARK    4  A    between atoms: C_8  and  N_9
REMARK    5  A    between atoms: C_16  and  C_17
REMARK                            x       y       z     vdW  Elec       q    Type
REMARK                         _______ _______ _______ _____ _____    ______ ____
ROOT
ATOM      1  C   UNL     1       4.562   5.501  17.690  0.00  0.00    +0.000 A 
ATOM      2  C   UNL     1       3.958   4.369  18.209  0.00  0.00    +0.000 A 
ATOM      3  C   UNL     1       2.768   4.506  18.892  0.00  0.00    +0.000 A 
ATOM      4  N   UNL     1       2.194   5.713  19.000  0.00  0.00    +0.000 NA
ATOM      5  C   UNL     1       2.796   6.762  18.421  0.00  0.00    +0.000 A 
ATOM      6  N   UNL     1       3.960   6.701  17.761  0.00  0.00    +0.000 NA
ENDROOT
BRANCH   5   7
ATOM      7  C   UNL     1       2.187   8.070  18.624  0.00  0.00    +0.000 A 
ATOM      8  C   UNL     1       2.159   9.051  17.616  0.00  0.00    +0.000 A 
ATOM      9  C   UNL     1       1.566  10.278  17.866  0.00  0.00    +0.000 A 
ATOM     10  N   UNL     1       0.997  10.650  19.031  0.00  0.00    +0.000 NA
ATOM     11  C   UNL     1       1.047   9.690  19.971  0.00  0.00    +0.000 A 
ATOM     12  N   UNL     1       0.553   9.830  21.238  0.00  0.00    +0.000 N 
ATOM     13  C   UNL     1       0.747   8.676  21.949  0.00  0.00    +0.000 A 
ATOM     14  C   UNL     1       1.388   7.781  21.120  0.00  0.00    +0.000 A 
ATOM     15  C   UNL     1       1.591   8.415  19.858  0.00  0.00    +0.000 A 
ATOM     16  H   UNL     1       0.115  10.676  21.572  0.00  0.00    +0.000 HD
ENDBRANCH   5   7
BRANCH   3  17
ATOM     17  N   UNL     1       2.195   3.453  19.563  0.00  0.00    +0.000 N 
ATOM     18  C   UNL     1       0.937   3.545  20.309  0.00  0.00    +0.000 C 
ATOM     19  C   UNL     1       1.174   3.238  21.798  0.00  0.00    +0.000 C 
ATOM     20  O   UNL     1       1.870   1.995  21.989  0.00  0.00    +0.000 OA
ATOM     21  C   UNL     1       3.148   2.035  21.332  0.00  0.00    +0.000 C 
ATOM     22  C   UNL     1       2.984   2.243  19.825  0.00  0.00    +0.000 C 
ENDBRANCH   3  17
BRANCH   1  23
ATOM     23  C   UNL     1       5.954   5.446  17.149  0.00  0.00    +0.000 C 
ATOM     24  C   UNL     1       6.289   6.158  15.852  0.00  0.00    +0.000 C 
ATOM     25  C   UNL     1       6.266   4.658  15.893  0.00  0.00    +0.000 C 
BRANCH  23  27
ATOM     26  C   UNL     1       8.020   7.066  18.246  0.00  0.00    +0.000 C 
ATOM     27  S   UNL     1       7.305   5.448  18.376  0.00  0.00    +0.000 S 
ATOM     28  O   UNL     1       8.283   4.478  17.907  0.00  0.00    +0.000 OA
ATOM     29  O   UNL     1       6.720   5.323  19.694  0.00  0.00    +0.000 OA
ENDBRANCH  23  27
ENDBRANCH   1  23
TORSDOF 4
ENDMDL
MODEL 9
REMARK VINA RESULT:      -8.0      1.120      1.321
REMARK  Name = 
REMARK  5 active torsions:
REMARK  status: ('A' for Active; 'I' for Inactive)
REMARK    1  A    between atoms: C_1  and  S_2
REMARK    2  A    between atoms: S_2  and  C_5
REMARK    3  A    between atoms: C_5  and  C_6
REMARK    4  A    between atoms: C_8  and  N_9
REMARK    5  A    between atoms: C_16  and  C_17
REMARK                            x       y       z     vdW  Elec       q    Type
REMARK                         _______ _______ _______ _____ _____    ______ ____
ROOT
ATOM      1  C   UNL     1       3.922   6.073  17.328  0.00  0.00    +0.000 A 
ATOM      2  C   UNL     1       3.248   4.964  17.809  0.00  0.00    +0.000 A 
ATOM      3  C   UNL     1       2.157   5.156  18.630  0.00  0.00    +0.000 A 
ATOM      4  N   UNL     1       1.739   6.399  18.908  0.00  0.00    +0.000 NA
ATOM      5  C   UNL     1       2.396   7.431  18.361  0.00  0.00    +0.000 A 
ATOM      6  N   UNL     1       3.472   7.316  17.572  0.00  0.00    +0.000 NA
ENDROOT
BRANCH   5   7
ATOM      7  C   UNL     1       1.965   8.769  18.746  0.00  0.00    +0.000 A 
ATOM      8  C   UNL     1       2.105   9.879  17.893  0.00  0.00    +0.000 A 
ATOM      9  C   UNL     1       1.678  11.128  18.313  0.00  0.00    +0.000 A 
ATOM     10  N   UNL     1       1.127  11.406  19.513  0.00  0.00    +0.000 NA
ATOM     11  C   UNL     1       1.014  10.323  20.302  0.00  0.00    +0.000 A 
ATOM     12  N   UNL     1       0.502  10.347  21.570  0.00  0.00    +0.000 N 
ATOM     13  C   UNL     1       0.513   9.087  22.105  0.00  0.00    +0.000 A 
ATOM     14  C   UNL     1       1.052   8.239  21.162  0.00  0.00    +0.000 A 
ATOM     15  C   UNL     1       1.382   9.013  20.010  0.00  0.00    +0.000 A 
ATOM     16  H   UNL     1       0.173  11.189  22.019  0.00  0.00    +0.000 HD
ENDBRANCH   5   7
BRANCH   3  17
ATOM     17  N   UNL     1       1.538   4.106  19.266  0.00  0.00    +0.000 N 
ATOM     18  C   UNL     1       1.081   4.146  20.658  0.00  0.00    +0.000 C 
ATOM     19  C   UNL     1       1.820   3.086  21.493  0.00  0.00    +0.000 C 
ATOM     20  O   UNL     1       1.744   1.781  20.898  0.00  0.00    +0.000 OA
ATOM     21  C   UNL     1       2.328   1.799  19.584  0.00  0.00    +0.000 C 
ATOM     22  C   UNL     1       1.579   2.767  18.665  0.00  0.00    +0.000 C 
ENDBRANCH   3  17
BRANCH   1  23
ATOM     23  C   UNL     1       5.236   5.926  16.631  0.00  0.00    +0.000 C 
ATOM     24  C   UNL     1       5.406   6.460  15.221  0.00  0.00    +0.000 C 
ATOM     25  C   UNL     1       5.391   4.977  15.460  0.00  0.00    +0.000 C 
BRANCH  23  27
ATOM     26  C   UNL     1       7.638   4.580  17.347  0.00  0.00    +0.000 C 
ATOM     27  S   UNL     1       6.729   6.068  17.671  0.00  0.00    +0.000 S 
ATOM     28  O   UNL     1       6.269   6.030  19.050  0.00  0.00    +0.000 OA
ATOM     29  O   UNL     1       7.514   7.184  17.188  0.00  0.00    +0.000 OA
ENDBRANCH  23  27
ENDBRANCH   1  23
TORSDOF 4
ENDMDL
