MODEL 1
REMARK VINA RESULT:      -7.3      0.000      0.000
REMARK  Name = 
REMARK  5 active torsions:
REMARK  status: ('A' for Active; 'I' for Inactive)
REMARK    1  A    between atoms: C_1  and  O_2
REMARK    2  A    between atoms: O_2  and  C_3
REMARK    3  A    between atoms: C_12  and  C_13
REMARK    4  A    between atoms: C_24  and  O_25
REMARK    5  A    between atoms: O_25  and  C_26
REMARK                            x       y       z     vdW  Elec       q    Type
REMARK                         _______ _______ _______ _____ _____    ______ ____
ROOT
ATOM      1  C   UNL     1       6.365   5.217  16.108  0.00  0.00    +0.000 A 
ATOM      2  C   UNL     1       5.932   3.905  16.359  0.00  0.00    +0.000 A 
ATOM      3  C   UNL     1       4.902   3.608  17.247  0.00  0.00    +0.000 A 
ATOM      4  N   UNL     1       4.547   2.325  17.350  0.00  0.00    +0.000 NA
ATOM      5  C   UNL     1       3.539   2.035  18.174  0.00  0.00    +0.000 A 
ATOM      6  N   UNL     1       2.846   2.913  18.901  0.00  0.00    +0.000 NA
ATOM      7  C   UNL     1       3.195   4.223  18.772  0.00  0.00    +0.000 A 
ATOM      8  N   UNL     1       2.360   5.166  19.474  0.00  0.00    +0.000 N 
ATOM      9  N   UNL     1       2.497   6.515  19.388  0.00  0.00    +0.000 NA
ATOM     10  C   UNL     1       1.541   6.983  20.198  0.00  0.00    +0.000 A 
ATOM     11  N   UNL     1       0.776   6.008  20.779  0.00  0.00    +0.000 NA
ATOM     12  C   UNL     1       1.281   4.890  20.324  0.00  0.00    +0.000 A 
ATOM     13  N   UNL     1       0.842   3.660  20.650  0.00  0.00    +0.000 N 
ATOM     14  C   UNL     1       4.281   4.641  17.959  0.00  0.00    +0.000 A 
ATOM     15  C   UNL     1       4.814   5.948  17.784  0.00  0.00    +0.000 A 
ATOM     16  C   UNL     1       5.829   6.250  16.870  0.00  0.00    +0.000 A 
ATOM     17  H   UNL     1       0.229   3.572  21.453  0.00  0.00    +0.000 HD
ATOM     18  H   UNL     1       1.427   2.851  20.447  0.00  0.00    +0.000 HD
ENDROOT
BRANCH  10  19
ATOM     19  C   UNL     1       1.345   8.393  20.500  0.00  0.00    +0.000 A 
ATOM     20  C   UNL     1       1.175   9.363  19.506  0.00  0.00    +0.000 A 
ATOM     21  C   UNL     1       1.054  10.706  19.862  0.00  0.00    +0.000 A 
ATOM     22  C   UNL     1       1.098  11.039  21.207  0.00  0.00    +0.000 A 
ATOM     23  N   UNL     1       1.239  10.136  22.197  0.00  0.00    +0.000 NA
ATOM     24  C   UNL     1       1.357   8.837  21.819  0.00  0.00    +0.000 A 
ENDBRANCH  10  19
BRANCH   1  26
ATOM     25  C   UNL     1       7.139   4.858  13.901  0.00  0.00    +0.000 C 
ATOM     26  O   UNL     1       7.321   5.491  15.169  0.00  0.00    +0.000 OA
ENDBRANCH   1  26
BRANCH  16  27
ATOM     27  O   UNL     1       6.122   7.583  16.872  0.00  0.00    +0.000 OA
ATOM     28  C   UNL     1       7.324   8.037  17.470  0.00  0.00    +0.000 C 
ENDBRANCH  16  27
TORSDOF 3
ENDMDL
MODEL 2
REMARK VINA RESULT:      -7.1      2.443      6.792
REMARK  Name = 
REMARK  5 active torsions:
REMARK  status: ('A' for Active; 'I' for Inactive)
REMARK    1  A    between atoms: C_1  and  O_2
REMARK    2  A    between atoms: O_2  and  C_3
REMARK    3  A    between atoms: C_12  and  C_13
REMARK    4  A    between atoms: C_24  and  O_25
REMARK    5  A    between atoms: O_25  and  C_26
REMARK                            x       y       z     vdW  Elec       q    Type
REMARK                         _______ _______ _______ _____ _____    ______ ____
ROOT
ATOM      1  C   UNL     1       1.719   7.698  20.192  0.00  0.00    +0.000 A 
ATOM      2  C   UNL     1       1.316   6.540  20.875  0.00  0.00    +0.000 A 
ATOM      3  C   UNL     1       1.698   5.261  20.480  0.00  0.00    +0.000 A 
ATOM      4  N   UNL     1       1.296   4.248  21.252  0.00  0.00    +0.000 NA
ATOM      5  C   UNL     1       1.683   3.021  20.899  0.00  0.00    +0.000 A 
ATOM      6  N   UNL     1       2.444   2.714  19.847  0.00  0.00    +0.000 NA
ATOM      7  C   UNL     1       2.873   3.753  19.079  0.00  0.00    +0.000 A 
ATOM      8  N   UNL     1       3.789   3.413  18.018  0.00  0.00    +0.000 N 
ATOM      9  N   UNL     1       4.392   4.325  17.211  0.00  0.00    +0.000 NA
ATOM     10  C   UNL     1       5.127   3.576  16.381  0.00  0.00    +0.000 A 
ATOM     11  N   UNL     1       5.052   2.233  16.629  0.00  0.00    +0.000 NA
ATOM     12  C   UNL     1       4.231   2.137  17.643  0.00  0.00    +0.000 A 
ATOM     13  N   UNL     1       3.850   0.981  18.218  0.00  0.00    +0.000 N 
ATOM     14  C   UNL     1       2.484   5.094  19.334  0.00  0.00    +0.000 A 
ATOM     15  C   UNL     1       2.780   6.268  18.587  0.00  0.00    +0.000 A 
ATOM     16  C   UNL     1       2.423   7.555  19.000  0.00  0.00    +0.000 A 
ATOM     17  H   UNL     1       4.032   0.119  17.716  0.00  0.00    +0.000 HD
ATOM     18  H   UNL     1       3.039   0.973  18.835  0.00  0.00    +0.000 HD
ENDROOT
BRANCH  10  19
ATOM     19  C   UNL     1       5.901   4.110  15.271  0.00  0.00    +0.000 A 
ATOM     20  C   UNL     1       5.685   3.725  13.944  0.00  0.00    +0.000 A 
ATOM     21  C   UNL     1       6.504   4.229  12.934  0.00  0.00    +0.000 A 
ATOM     22  C   UNL     1       7.514   5.112  13.282  0.00  0.00    +0.000 A 
ATOM     23  N   UNL     1       7.744   5.526  14.544  0.00  0.00    +0.000 NA
ATOM     24  C   UNL     1       6.932   5.016  15.505  0.00  0.00    +0.000 A 
ENDBRANCH  10  19
BRANCH   1  26
ATOM     25  C   UNL     1       1.052   9.031  22.030  0.00  0.00    +0.000 C 
ATOM     26  O   UNL     1       1.403   8.949  20.648  0.00  0.00    +0.000 OA
ENDBRANCH   1  26
BRANCH  16  27
ATOM     27  O   UNL     1       2.864   8.503  18.122  0.00  0.00    +0.000 OA
ATOM     28  C   UNL     1       2.009   9.569  17.750  0.00  0.00    +0.000 C 
ENDBRANCH  16  27
TORSDOF 3
ENDMDL
MODEL 3
REMARK VINA RESULT:      -6.5      4.595      9.771
REMARK  Name = 
REMARK  5 active torsions:
REMARK  status: ('A' for Active; 'I' for Inactive)
REMARK    1  A    between atoms: C_1  and  O_2
REMARK    2  A    between atoms: O_2  and  C_3
REMARK    3  A    between atoms: C_12  and  C_13
REMARK    4  A    between atoms: C_24  and  O_25
REMARK    5  A    between atoms: O_25  and  C_26
REMARK                            x       y       z     vdW  Elec       q    Type
REMARK                         _______ _______ _______ _____ _____    ______ ____
ROOT
ATOM      1  C   UNL     1      -1.963  12.932  23.080  0.00  0.00    +0.000 A 
ATOM      2  C   UNL     1      -1.645  14.062  22.309  0.00  0.00    +0.000 A 
ATOM      3  C   UNL     1      -0.781  14.012  21.219  0.00  0.00    +0.000 A 
ATOM      4  N   UNL     1      -0.611  15.146  20.533  0.00  0.00    +0.000 NA
ATOM      5  C   UNL     1       0.191  15.100  19.468  0.00  0.00    +0.000 A 
ATOM      6  N   UNL     1       0.833  14.020  19.019  0.00  0.00    +0.000 NA
ATOM      7  C   UNL     1       0.635  12.862  19.706  0.00  0.00    +0.000 A 
ATOM      8  N   UNL     1       1.243  11.683  19.138  0.00  0.00    +0.000 N 
ATOM      9  N   UNL     1       1.077  10.428  19.631  0.00  0.00    +0.000 NA
ATOM     10  C   UNL     1       1.819   9.668  18.817  0.00  0.00    +0.000 A 
ATOM     11  N   UNL     1       2.430  10.362  17.810  0.00  0.00    +0.000 NA
ATOM     12  C   UNL     1       2.067  11.604  18.008  0.00  0.00    +0.000 A 
ATOM     13  N   UNL     1       2.453  12.648  17.251  0.00  0.00    +0.000 N 
ATOM     14  C   UNL     1      -0.160  12.804  20.881  0.00  0.00    +0.000 A 
ATOM     15  C   UNL     1      -0.398  11.700  21.746  0.00  0.00    +0.000 A 
ATOM     16  C   UNL     1      -1.289  11.743  22.823  0.00  0.00    +0.000 A 
ATOM     17  H   UNL     1       3.236  12.513  16.621  0.00  0.00    +0.000 HD
ATOM     18  H   UNL     1       2.324  13.595  17.603  0.00  0.00    +0.000 HD
ENDROOT
BRANCH  10  19
ATOM     19  C   UNL     1       2.022   8.239  18.997  0.00  0.00    +0.000 A 
ATOM     20  C   UNL     1       2.423   7.394  17.957  0.00  0.00    +0.000 A 
ATOM     21  C   UNL     1       2.539   6.023  18.183  0.00  0.00    +0.000 A 
ATOM     22  C   UNL     1       2.258   5.536  19.450  0.00  0.00    +0.000 A 
ATOM     23  N   UNL     1       1.889   6.316  20.486  0.00  0.00    +0.000 NA
ATOM     24  C   UNL     1       1.781   7.646  20.234  0.00  0.00    +0.000 A 
ENDBRANCH  10  19
BRANCH   1  26
ATOM     25  C   UNL     1      -4.232  12.723  23.716  0.00  0.00    +0.000 C 
ATOM     26  O   UNL     1      -2.880  12.988  24.093  0.00  0.00    +0.000 OA
ENDBRANCH   1  26
BRANCH  16  27
ATOM     27  O   UNL     1      -1.360  10.538  23.460  0.00  0.00    +0.000 OA
ATOM     28  C   UNL     1      -0.434   9.516  23.136  0.00  0.00    +0.000 C 
ENDBRANCH  16  27
TORSDOF 3
ENDMDL
MODEL 4
REMARK VINA RESULT:      -6.5      6.005     10.728
REMARK  Name = 
REMARK  5 active torsions:
REMARK  status: ('A' for Active; 'I' for Inactive)
REMARK    1  A    between atoms: C_1  and  O_2
REMARK    2  A    between atoms: O_2  and  C_3
REMARK    3  A    between atoms: C_12  and  C_13
REMARK    4  A    between atoms: C_24  and  O_25
REMARK    5  A    between atoms: O_25  and  C_26
REMARK                            x       y       z     vdW  Elec       q    Type
REMARK                         _______ _______ _______ _____ _____    ______ ____
ROOT
ATOM      1  C   UNL     1      -5.955  12.694  17.811  0.00  0.00    +0.000 A 
ATOM      2  C   UNL     1      -6.129  13.463  18.973  0.00  0.00    +0.000 A 
ATOM      3  C   UNL     1      -5.210  13.466  20.019  0.00  0.00    +0.000 A 
ATOM      4  N   UNL     1      -5.464  14.287  21.041  0.00  0.00    +0.000 NA
ATOM      5  C   UNL     1      -4.573  14.321  22.033  0.00  0.00    +0.000 A 
ATOM      6  N   UNL     1      -3.444  13.612  22.094  0.00  0.00    +0.000 NA
ATOM      7  C   UNL     1      -3.178  12.796  21.037  0.00  0.00    +0.000 A 
ATOM      8  N   UNL     1      -1.899  12.128  21.067  0.00  0.00    +0.000 N 
ATOM      9  N   UNL     1      -1.422  11.351  20.059  0.00  0.00    +0.000 NA
ATOM     10  C   UNL     1      -0.235  10.935  20.515  0.00  0.00    +0.000 A 
ATOM     11  N   UNL     1       0.091  11.426  21.750  0.00  0.00    +0.000 NA
ATOM     12  C   UNL     1      -0.935  12.166  22.083  0.00  0.00    +0.000 A 
ATOM     13  N   UNL     1      -1.053  12.840  23.243  0.00  0.00    +0.000 N 
ATOM     14  C   UNL     1      -4.077  12.647  19.950  0.00  0.00    +0.000 A 
ATOM     15  C   UNL     1      -3.981  11.784  18.822  0.00  0.00    +0.000 A 
ATOM     16  C   UNL     1      -4.888  11.804  17.757  0.00  0.00    +0.000 A 
ATOM     17  H   UNL     1      -0.420  12.599  23.997  0.00  0.00    +0.000 HD
ATOM     18  H   UNL     1      -1.966  13.192  23.525  0.00  0.00    +0.000 HD
ENDROOT
BRANCH  10  19
ATOM     19  C   UNL     1       0.627  10.000  19.809  0.00  0.00    +0.000 A 
ATOM     20  C   UNL     1       0.952  10.144  18.456  0.00  0.00    +0.000 A 
ATOM     21  C   UNL     1       1.734   9.176  17.825  0.00  0.00    +0.000 A 
ATOM     22  C   UNL     1       2.175   8.094  18.570  0.00  0.00    +0.000 A 
ATOM     23  N   UNL     1       1.903   7.927  19.880  0.00  0.00    +0.000 NA
ATOM     24  C   UNL     1       1.138   8.884  20.466  0.00  0.00    +0.000 A 
ENDBRANCH  10  19
BRANCH   1  26
ATOM     25  C   UNL     1      -7.313  14.081  16.458  0.00  0.00    +0.000 C 
ATOM     26  O   UNL     1      -6.828  12.772  16.761  0.00  0.00    +0.000 OA
ENDBRANCH   1  26
BRANCH  16  27
ATOM     27  O   UNL     1      -4.540  10.907  16.788  0.00  0.00    +0.000 OA
ATOM     28  C   UNL     1      -3.364  11.117  16.028  0.00  0.00    +0.000 C 
ENDBRANCH  16  27
TORSDOF 3
ENDMDL
MODEL 5
REMARK VINA RESULT:      -6.4      7.427     10.196
REMARK  Name = 
REMARK  5 active torsions:
REMARK  status: ('A' for Active; 'I' for Inactive)
REMARK    1  A    between atoms: C_1  and  O_2
REMARK    2  A    between atoms: O_2  and  C_3
REMARK    3  A    between atoms: C_12  and  C_13
REMARK    4  A    between atoms: C_24  and  O_25
REMARK    5  A    between atoms: O_25  and  C_26
REMARK                            x       y       z     vdW  Elec       q    Type
REMARK                         _______ _______ _______ _____ _____    ______ ____
ROOT
ATOM      1  C   UNL     1      -3.577  10.847  16.406  0.00  0.00    +0.000 A 
ATOM      2  C   UNL     1      -2.236  10.617  16.751  0.00  0.00    +0.000 A 
ATOM      3  C   UNL     1      -1.714  10.936  18.001  0.00  0.00    +0.000 A 
ATOM      4  N   UNL     1      -0.437  10.610  18.222  0.00  0.00    +0.000 NA
ATOM      5  C   UNL     1       0.062  10.883  19.428  0.00  0.00    +0.000 A 
ATOM      6  N   UNL     1      -0.600  11.447  20.440  0.00  0.00    +0.000 NA
ATOM      7  C   UNL     1      -1.909  11.753  20.217  0.00  0.00    +0.000 A 
ATOM      8  N   UNL     1      -2.638  12.252  21.357  0.00  0.00    +0.000 N 
ATOM      9  N   UNL     1      -3.970  12.521  21.350  0.00  0.00    +0.000 NA
ATOM     10  C   UNL     1      -4.209  12.966  22.589  0.00  0.00    +0.000 A 
ATOM     11  N   UNL     1      -3.109  12.970  23.402  0.00  0.00    +0.000 NA
ATOM     12  C   UNL     1      -2.144  12.523  22.640  0.00  0.00    +0.000 A 
ATOM     13  N   UNL     1      -0.864  12.374  23.029  0.00  0.00    +0.000 N 
ATOM     14  C   UNL     1      -2.531  11.549  18.958  0.00  0.00    +0.000 A 
ATOM     15  C   UNL     1      -3.851  11.885  18.549  0.00  0.00    +0.000 A 
ATOM     16  C   UNL     1      -4.385  11.537  17.304  0.00  0.00    +0.000 A 
ATOM     17  H   UNL     1      -0.572  12.829  23.887  0.00  0.00    +0.000 HD
ATOM     18  H   UNL     1      -0.139  12.250  22.323  0.00  0.00    +0.000 HD
ENDROOT
BRANCH  10  19
ATOM     19  C   UNL     1      -5.500  13.461  23.042  0.00  0.00    +0.000 A 
ATOM     20  C   UNL     1      -6.594  12.621  23.273  0.00  0.00    +0.000 A 
ATOM     21  C   UNL     1      -7.821  13.169  23.647  0.00  0.00    +0.000 A 
ATOM     22  C   UNL     1      -7.916  14.545  23.787  0.00  0.00    +0.000 A 
ATOM     23  N   UNL     1      -6.882  15.388  23.595  0.00  0.00    +0.000 NA
ATOM     24  C   UNL     1      -5.702  14.826  23.229  0.00  0.00    +0.000 A 
ENDBRANCH  10  19
BRANCH   1  26
ATOM     25  C   UNL     1      -3.125  10.075  14.215  0.00  0.00    +0.000 C 
ATOM     26  O   UNL     1      -4.088  10.447  15.202  0.00  0.00    +0.000 OA
ENDBRANCH   1  26
BRANCH  16  27
ATOM     27  O   UNL     1      -5.683  11.943  17.185  0.00  0.00    +0.000 OA
ATOM     28  C   UNL     1      -6.626  11.579  18.177  0.00  0.00    +0.000 C 
ENDBRANCH  16  27
TORSDOF 3
ENDMDL
MODEL 6
REMARK VINA RESULT:      -6.4      7.260     11.559
REMARK  Name = 
REMARK  5 active torsions:
REMARK  status: ('A' for Active; 'I' for Inactive)
REMARK    1  A    between atoms: C_1  and  O_2
REMARK    2  A    between atoms: O_2  and  C_3
REMARK    3  A    between atoms: C_12  and  C_13
REMARK    4  A    between atoms: C_24  and  O_25
REMARK    5  A    between atoms: O_25  and  C_26
REMARK                            x       y       z     vdW  Elec       q    Type
REMARK                         _______ _______ _______ _____ _____    ______ ____
ROOT
ATOM      1  C   UNL     1      -6.164  13.613  21.999  0.00  0.00    +0.000 A 
ATOM      2  C   UNL     1      -6.987  13.664  20.863  0.00  0.00    +0.000 A 
ATOM      3  C   UNL     1      -6.594  13.167  19.624  0.00  0.00    +0.000 A 
ATOM      4  N   UNL     1      -7.494  13.222  18.639  0.00  0.00    +0.000 NA
ATOM      5  C   UNL     1      -7.137  12.720  17.456  0.00  0.00    +0.000 A 
ATOM      6  N   UNL     1      -5.961  12.158  17.168  0.00  0.00    +0.000 NA
ATOM      7  C   UNL     1      -5.057  12.081  18.183  0.00  0.00    +0.000 A 
ATOM      8  N   UNL     1      -3.839  11.367  17.885  0.00  0.00    +0.000 N 
ATOM      9  N   UNL     1      -2.865  11.109  18.796  0.00  0.00    +0.000 NA
ATOM     10  C   UNL     1      -1.938  10.452  18.091  0.00  0.00    +0.000 A 
ATOM     11  N   UNL     1      -2.275  10.248  16.781  0.00  0.00    +0.000 NA
ATOM     12  C   UNL     1      -3.451  10.808  16.660  0.00  0.00    +0.000 A 
ATOM     13  N   UNL     1      -4.164  10.861  15.519  0.00  0.00    +0.000 N 
ATOM     14  C   UNL     1      -5.313  12.625  19.469  0.00  0.00    +0.000 A 
ATOM     15  C   UNL     1      -4.450  12.694  20.598  0.00  0.00    +0.000 A 
ATOM     16  C   UNL     1      -4.856  13.164  21.851  0.00  0.00    +0.000 A 
ATOM     17  H   UNL     1      -3.686  10.649  14.651  0.00  0.00    +0.000 HD
ATOM     18  H   UNL     1      -4.946  11.510  15.449  0.00  0.00    +0.000 HD
ENDROOT
BRANCH  10  19
ATOM     19  C   UNL     1      -0.652  10.031  18.627  0.00  0.00    +0.000 A 
ATOM     20  C   UNL     1       0.414   9.634  17.813  0.00  0.00    +0.000 A 
ATOM     21  C   UNL     1       1.598   9.182  18.395  0.00  0.00    +0.000 A 
ATOM     22  C   UNL     1       1.685   9.150  19.778  0.00  0.00    +0.000 A 
ATOM     23  N   UNL     1       0.691   9.543  20.599  0.00  0.00    +0.000 NA
ATOM     24  C   UNL     1      -0.451   9.974  20.003  0.00  0.00    +0.000 A 
ENDBRANCH  10  19
BRANCH   1  26
ATOM     25  C   UNL     1      -7.164  13.013  24.057  0.00  0.00    +0.000 C 
ATOM     26  O   UNL     1      -6.604  14.029  23.225  0.00  0.00    +0.000 OA
ENDBRANCH   1  26
BRANCH  16  27
ATOM     27  O   UNL     1      -3.846  13.083  22.766  0.00  0.00    +0.000 OA
ATOM     28  C   UNL     1      -2.727  12.254  22.505  0.00  0.00    +0.000 C 
ENDBRANCH  16  27
TORSDOF 3
ENDMDL
MODEL 7
REMARK VINA RESULT:      -6.3      8.677     11.675
REMARK  Name = 
REMARK  5 active torsions:
REMARK  status: ('A' for Active; 'I' for Inactive)
REMARK    1  A    between atoms: C_1  and  O_2
REMARK    2  A    between atoms: O_2  and  C_3
REMARK    3  A    between atoms: C_12  and  C_13
REMARK    4  A    between atoms: C_24  and  O_25
REMARK    5  A    between atoms: O_25  and  C_26
REMARK                            x       y       z     vdW  Elec       q    Type
REMARK                         _______ _______ _______ _____ _____    ______ ____
ROOT
ATOM      1  C   UNL     1      -6.577  12.675  22.771  0.00  0.00    +0.000 A 
ATOM      2  C   UNL     1      -7.279  12.170  21.666  0.00  0.00    +0.000 A 
ATOM      3  C   UNL     1      -6.671  11.906  20.442  0.00  0.00    +0.000 A 
ATOM      4  N   UNL     1      -7.439  11.370  19.490  0.00  0.00    +0.000 NA
ATOM      5  C   UNL     1      -6.858  11.085  18.324  0.00  0.00    +0.000 A 
ATOM      6  N   UNL     1      -5.572  11.280  18.024  0.00  0.00    +0.000 NA
ATOM      7  C   UNL     1      -4.788  11.802  19.007  0.00  0.00    +0.000 A 
ATOM      8  N   UNL     1      -3.381  11.896  18.703  0.00  0.00    +0.000 N 
ATOM      9  N   UNL     1      -2.436  12.303  19.590  0.00  0.00    +0.000 NA
ATOM     10  C   UNL     1      -1.298  12.249  18.888  0.00  0.00    +0.000 A 
ATOM     11  N   UNL     1      -1.456  11.803  17.604  0.00  0.00    +0.000 NA
ATOM     12  C   UNL     1      -2.741  11.579  17.497  0.00  0.00    +0.000 A 
ATOM     13  N   UNL     1      -3.354  11.138  16.383  0.00  0.00    +0.000 N 
ATOM     14  C   UNL     1      -5.310  12.186  20.269  0.00  0.00    +0.000 A 
ATOM     15  C   UNL     1      -4.644  12.811  21.359  0.00  0.00    +0.000 A 
ATOM     16  C   UNL     1      -5.247  13.047  22.599  0.00  0.00    +0.000 A 
ATOM     17  H   UNL     1      -2.840  11.180  15.510  0.00  0.00    +0.000 HD
ATOM     18  H   UNL     1      -4.367  11.216  16.306  0.00  0.00    +0.000 HD
ENDROOT
BRANCH  10  19
ATOM     19  C   UNL     1      -0.004  12.677  19.397  0.00  0.00    +0.000 A 
ATOM     20  C   UNL     1       0.166  13.206  20.681  0.00  0.00    +0.000 A 
ATOM     21  C   UNL     1       1.424  13.654  21.084  0.00  0.00    +0.000 A 
ATOM     22  C   UNL     1       2.479  13.551  20.191  0.00  0.00    +0.000 A 
ATOM     23  N   UNL     1       2.364  13.029  18.954  0.00  0.00    +0.000 NA
ATOM     24  C   UNL     1       1.127  12.604  18.590  0.00  0.00    +0.000 A 
ENDBRANCH  10  19
BRANCH   1  26
ATOM     25  C   UNL     1      -7.764  14.128  24.213  0.00  0.00    +0.000 C 
ATOM     26  O   UNL     1      -7.177  12.845  23.988  0.00  0.00    +0.000 OA
ENDBRANCH   1  26
BRANCH  16  27
ATOM     27  O   UNL     1      -4.374  13.619  23.479  0.00  0.00    +0.000 OA
ATOM     28  C   UNL     1      -3.053  13.120  23.581  0.00  0.00    +0.000 C 
ENDBRANCH  16  27
TORSDOF 3
ENDMDL
MODEL 8
REMARK VINA RESULT:      -6.3      7.210      9.965
REMARK  Name = 
REMARK  5 active torsions:
REMARK  status: ('A' for Active; 'I' for Inactive)
REMARK    1  A    between atoms: C_1  and  O_2
REMARK    2  A    between atoms: O_2  and  C_3
REMARK    3  A    between atoms: C_12  and  C_13
REMARK    4  A    between atoms: C_24  and  O_25
REMARK    5  A    between atoms: O_25  and  C_26
REMARK                            x       y       z     vdW  Elec       q    Type
REMARK                         _______ _______ _______ _____ _____    ______ ____
ROOT
ATOM      1  C   UNL     1      -2.925  10.162  16.731  0.00  0.00    +0.000 A 
ATOM      2  C   UNL     1      -1.588  10.118  17.158  0.00  0.00    +0.000 A 
ATOM      3  C   UNL     1      -1.151  10.725  18.332  0.00  0.00    +0.000 A 
ATOM      4  N   UNL     1       0.134  10.558  18.655  0.00  0.00    +0.000 NA
ATOM      5  C   UNL     1       0.554  11.109  19.794  0.00  0.00    +0.000 A 
ATOM      6  N   UNL     1      -0.197  11.808  20.648  0.00  0.00    +0.000 NA
ATOM      7  C   UNL     1      -1.512  11.954  20.326  0.00  0.00    +0.000 A 
ATOM      8  N   UNL     1      -2.330  12.610  21.316  0.00  0.00    +0.000 N 
ATOM      9  N   UNL     1      -3.677  12.761  21.212  0.00  0.00    +0.000 NA
ATOM     10  C   UNL     1      -4.007  13.426  22.325  0.00  0.00    +0.000 A 
ATOM     11  N   UNL     1      -2.951  13.686  23.154  0.00  0.00    +0.000 NA
ATOM     12  C   UNL     1      -1.920  13.175  22.531  0.00  0.00    +0.000 A 
ATOM     13  N   UNL     1      -0.652  13.214  22.982  0.00  0.00    +0.000 N 
ATOM     14  C   UNL     1      -2.056  11.449  19.117  0.00  0.00    +0.000 A 
ATOM     15  C   UNL     1      -3.377  11.585  18.606  0.00  0.00    +0.000 A 
ATOM     16  C   UNL     1      -3.823  10.950  17.442  0.00  0.00    +0.000 A 
ATOM     17  H   UNL     1      -0.437  13.856  23.737  0.00  0.00    +0.000 HD
ATOM     18  H   UNL     1       0.113  13.011  22.340  0.00  0.00    +0.000 HD
ENDROOT
BRANCH  10  19
ATOM     19  C   UNL     1      -5.352  13.894  22.626  0.00  0.00    +0.000 A 
ATOM     20  C   UNL     1      -5.993  14.886  21.877  0.00  0.00    +0.000 A 
ATOM     21  C   UNL     1      -7.259  15.332  22.259  0.00  0.00    +0.000 A 
ATOM     22  C   UNL     1      -7.850  14.765  23.377  0.00  0.00    +0.000 A 
ATOM     23  N   UNL     1      -7.277  13.793  24.114  0.00  0.00    +0.000 NA
ATOM     24  C   UNL     1      -6.044  13.382  23.720  0.00  0.00    +0.000 A 
ENDBRANCH  10  19
BRANCH   1  26
ATOM     25  C   UNL     1      -3.173  10.170  14.378  0.00  0.00    +0.000 C 
ATOM     26  O   UNL     1      -3.347   9.486  15.619  0.00  0.00    +0.000 OA
ENDBRANCH   1  26
BRANCH  16  27
ATOM     27  O   UNL     1      -5.141  11.215  17.202  0.00  0.00    +0.000 OA
ATOM     28  C   UNL     1      -6.065  11.212  18.276  0.00  0.00    +0.000 C 
ENDBRANCH  16  27
TORSDOF 3
ENDMDL
MODEL 9
REMARK VINA RESULT:      -6.2      6.677      9.677
REMARK  Name = 
REMARK  5 active torsions:
REMARK  status: ('A' for Active; 'I' for Inactive)
REMARK    1  A    between atoms: C_1  and  O_2
REMARK    2  A    between atoms: O_2  and  C_3
REMARK    3  A    between atoms: C_12  and  C_13
REMARK    4  A    between atoms: C_24  and  O_25
REMARK    5  A    between atoms: O_25  and  C_26
REMARK                            x       y       z     vdW  Elec       q    Type
REMARK                         _______ _______ _______ _____ _____    ______ ____
ROOT
ATOM      1  C   UNL     1      -0.054  10.219  18.747  0.00  0.00    +0.000 A 
ATOM      2  C   UNL     1      -0.673   9.923  17.523  0.00  0.00    +0.000 A 
ATOM      3  C   UNL     1      -1.971  10.324  17.218  0.00  0.00    +0.000 A 
ATOM      4  N   UNL     1      -2.420  10.030  15.995  0.00  0.00    +0.000 NA
ATOM      5  C   UNL     1      -3.651  10.438  15.683  0.00  0.00    +0.000 A 
ATOM      6  N   UNL     1      -4.474  11.122  16.481  0.00  0.00    +0.000 NA
ATOM      7  C   UNL     1      -4.000  11.441  17.717  0.00  0.00    +0.000 A 
ATOM      8  N   UNL     1      -4.857  12.279  18.519  0.00  0.00    +0.000 N 
ATOM      9  N   UNL     1      -4.514  12.775  19.737  0.00  0.00    +0.000 NA
ATOM     10  C   UNL     1      -5.594  13.469  20.112  0.00  0.00    +0.000 A 
ATOM     11  N   UNL     1      -6.603  13.472  19.189  0.00  0.00    +0.000 NA
ATOM     12  C   UNL     1      -6.142  12.742  18.206  0.00  0.00    +0.000 A 
ATOM     13  N   UNL     1      -6.817  12.459  17.075  0.00  0.00    +0.000 N 
ATOM     14  C   UNL     1      -2.724  11.019  18.171  0.00  0.00    +0.000 A 
ATOM     15  C   UNL     1      -2.125  11.202  19.449  0.00  0.00    +0.000 A 
ATOM     16  C   UNL     1      -0.810  10.827  19.744  0.00  0.00    +0.000 A 
ATOM     17  H   UNL     1      -7.816  12.635  17.063  0.00  0.00    +0.000 HD
ATOM     18  H   UNL     1      -6.491  11.703  16.475  0.00  0.00    +0.000 HD
ENDROOT
BRANCH  10  19
ATOM     19  C   UNL     1      -5.734  14.125  21.403  0.00  0.00    +0.000 A 
ATOM     20  C   UNL     1      -4.652  14.339  22.265  0.00  0.00    +0.000 A 
ATOM     21  C   UNL     1      -4.867  14.918  23.515  0.00  0.00    +0.000 A 
ATOM     22  C   UNL     1      -6.160  15.275  23.865  0.00  0.00    +0.000 A 
ATOM     23  N   UNL     1      -7.227  15.106  23.058  0.00  0.00    +0.000 NA
ATOM     24  C   UNL     1      -6.987  14.537  21.849  0.00  0.00    +0.000 A 
ENDBRANCH  10  19
BRANCH   1  26
ATOM     25  C   UNL     1       1.926   9.213  17.929  0.00  0.00    +0.000 C 
ATOM     26  O   UNL     1       1.251   9.889  18.991  0.00  0.00    +0.000 OA
ENDBRANCH   1  26
BRANCH  16  27
ATOM     27  O   UNL     1      -0.473  11.154  21.026  0.00  0.00    +0.000 OA
ATOM     28  C   UNL     1      -1.307  12.024  21.771  0.00  0.00    +0.000 C 
ENDBRANCH  16  27
TORSDOF 3
ENDMDL
