MODEL 1
REMARK VINA RESULT:      -8.0      0.000      0.000
REMARK  Name = 
REMARK  5 active torsions:
REMARK  status: ('A' for Active; 'I' for Inactive)
REMARK    1  A    between atoms: C_1  and  O_2
REMARK    2  A    between atoms: O_2  and  C_3
REMARK    3  A    between atoms: C_3  and  C_4
REMARK    4  A    between atoms: C_13  and  C_14
REMARK    5  A    between atoms: C_16  and  C_17
REMARK                            x       y       z     vdW  Elec       q    Type
REMARK                         _______ _______ _______ _____ _____    ______ ____
ROOT
ATOM      1  C   UNL     1       3.603   2.870  18.372  0.00  0.00    +0.000 C 
ATOM      2  O   UNL     1       4.208   2.011  19.015  0.00  0.00    +0.000 OA
ATOM      3  N   UNL     1       4.170   4.102  18.051  0.00  0.00    +0.000 N 
ATOM      4  C   UNL     1       3.336   5.255  17.729  0.00  0.00    +0.000 C 
ATOM      5  C   UNL     1       4.067   6.565  17.920  0.00  0.00    +0.000 C 
ATOM      6  C   UNL     1       5.339   6.559  17.093  0.00  0.00    +0.000 C 
ATOM      7  O   UNL     1       6.041   7.775  17.407  0.00  0.00    +0.000 OA
ATOM      8  C   UNL     1       7.424   7.464  17.551  0.00  0.00    +0.000 C 
ATOM      9  C   UNL     1       7.484   6.030  18.036  0.00  0.00    +0.000 C 
ATOM     10  C   UNL     1       6.265   5.361  17.378  0.00  0.00    +0.000 C 
ATOM     11  C   UNL     1       5.601   4.310  18.299  0.00  0.00    +0.000 C 
ENDROOT
BRANCH  10  12
ATOM     12  C   UNL     1       6.770   4.749  16.103  0.00  0.00    +0.000 A 
ATOM     13  N   UNL     1       6.155   3.838  15.382  0.00  0.00    +0.000 NA
ATOM     14  C   UNL     1       6.578   4.130  14.119  0.00  0.00    +0.000 A 
ATOM     15  C   UNL     1       5.835   3.627  12.954  0.00  0.00    +0.000 C 
ATOM     16  N   UNL     1       7.529   5.073  14.043  0.00  0.00    +0.000 NA
ATOM     17  O   UNL     1       7.669   5.485  15.372  0.00  0.00    +0.000 OA
ENDBRANCH  10  12
BRANCH   1  18
ATOM     18  C   UNL     1       2.219   2.571  17.772  0.00  0.00    +0.000 C 
BRANCH  18  20
ATOM     19  C   UNL     1       0.951   3.115  19.686  0.00  0.00    +0.000 C 
ATOM     20  O   UNL     1       1.298   2.096  18.751  0.00  0.00    +0.000 OA
ENDBRANCH  18  20
ENDBRANCH   1  18
TORSDOF 3
ENDMDL
MODEL 2
REMARK VINA RESULT:      -7.6      2.493      5.925
REMARK  Name = 
REMARK  5 active torsions:
REMARK  status: ('A' for Active; 'I' for Inactive)
REMARK    1  A    between atoms: C_1  and  O_2
REMARK    2  A    between atoms: O_2  and  C_3
REMARK    3  A    between atoms: C_3  and  C_4
REMARK    4  A    between atoms: C_13  and  C_14
REMARK    5  A    between atoms: C_16  and  C_17
REMARK                            x       y       z     vdW  Elec       q    Type
REMARK                         _______ _______ _______ _____ _____    ______ ____
ROOT
ATOM      1  C   UNL     1       6.396   4.527  17.784  0.00  0.00    +0.000 C 
ATOM      2  O   UNL     1       7.185   4.552  18.729  0.00  0.00    +0.000 OA
ATOM      3  N   UNL     1       5.026   4.342  17.958  0.00  0.00    +0.000 N 
ATOM      4  C   UNL     1       4.187   3.849  16.870  0.00  0.00    +0.000 C 
ATOM      5  C   UNL     1       2.898   3.237  17.369  0.00  0.00    +0.000 C 
ATOM      6  C   UNL     1       2.154   4.249  18.221  0.00  0.00    +0.000 C 
ATOM      7  O   UNL     1       1.004   3.571  18.757  0.00  0.00    +0.000 OA
ATOM      8  C   UNL     1       0.869   3.943  20.126  0.00  0.00    +0.000 C 
ATOM      9  C   UNL     1       2.269   4.244  20.620  0.00  0.00    +0.000 C 
ATOM     10  C   UNL     1       2.986   4.817  19.387  0.00  0.00    +0.000 C 
ATOM     11  C   UNL     1       4.471   4.387  19.315  0.00  0.00    +0.000 C 
ENDROOT
BRANCH  10  12
ATOM     12  C   UNL     1       2.839   6.309  19.482  0.00  0.00    +0.000 A 
ATOM     13  N   UNL     1       2.885   7.159  18.479  0.00  0.00    +0.000 NA
ATOM     14  C   UNL     1       2.052   8.154  18.903  0.00  0.00    +0.000 A 
ATOM     15  C   UNL     1       1.491   9.111  17.937  0.00  0.00    +0.000 C 
ATOM     16  N   UNL     1       1.617   8.030  20.166  0.00  0.00    +0.000 NA
ATOM     17  O   UNL     1       2.149   6.800  20.562  0.00  0.00    +0.000 OA
ENDBRANCH  10  12
BRANCH   1  18
ATOM     18  C   UNL     1       6.874   4.833  16.355  0.00  0.00    +0.000 C 
BRANCH  18  20
ATOM     19  C   UNL     1       6.709   7.126  16.886  0.00  0.00    +0.000 C 
ATOM     20  O   UNL     1       7.491   6.114  16.255  0.00  0.00    +0.000 OA
ENDBRANCH  18  20
ENDBRANCH   1  18
TORSDOF 3
ENDMDL
MODEL 3
REMARK VINA RESULT:      -7.4      2.448      6.205
REMARK  Name = 
REMARK  5 active torsions:
REMARK  status: ('A' for Active; 'I' for Inactive)
REMARK    1  A    between atoms: C_1  and  O_2
REMARK    2  A    between atoms: O_2  and  C_3
REMARK    3  A    between atoms: C_3  and  C_4
REMARK    4  A    between atoms: C_13  and  C_14
REMARK    5  A    between atoms: C_16  and  C_17
REMARK                            x       y       z     vdW  Elec       q    Type
REMARK                         _______ _______ _______ _____ _____    ______ ____
ROOT
ATOM      1  C   UNL     1       6.653   5.480  18.846  0.00  0.00    +0.000 C 
ATOM      2  O   UNL     1       6.987   5.486  20.032  0.00  0.00    +0.000 OA
ATOM      3  N   UNL     1       5.503   4.836  18.396  0.00  0.00    +0.000 N 
ATOM      4  C   UNL     1       5.363   4.428  17.001  0.00  0.00    +0.000 C 
ATOM      5  C   UNL     1       4.339   3.331  16.822  0.00  0.00    +0.000 C 
ATOM      6  C   UNL     1       3.009   3.781  17.399  0.00  0.00    +0.000 C 
ATOM      7  O   UNL     1       2.117   2.657  17.304  0.00  0.00    +0.000 OA
ATOM      8  C   UNL     1       1.380   2.572  18.520  0.00  0.00    +0.000 C 
ATOM      9  C   UNL     1       2.279   3.144  19.597  0.00  0.00    +0.000 C 
ATOM     10  C   UNL     1       3.087   4.233  18.871  0.00  0.00    +0.000 C 
ATOM     11  C   UNL     1       4.544   4.326  19.382  0.00  0.00    +0.000 C 
ENDROOT
BRANCH  10  12
ATOM     12  C   UNL     1       2.335   5.515  19.085  0.00  0.00    +0.000 A 
ATOM     13  N   UNL     1       1.757   5.898  20.203  0.00  0.00    +0.000 NA
ATOM     14  C   UNL     1       1.864   7.257  20.135  0.00  0.00    +0.000 A 
ATOM     15  C   UNL     1       1.717   8.073  21.350  0.00  0.00    +0.000 C 
ATOM     16  N   UNL     1       2.342   7.731  18.975  0.00  0.00    +0.000 NA
ATOM     17  O   UNL     1       2.650   6.567  18.263  0.00  0.00    +0.000 OA
ENDBRANCH  10  12
BRANCH   1  18
ATOM     18  C   UNL     1       7.432   6.305  17.808  0.00  0.00    +0.000 C 
BRANCH  18  20
ATOM     19  C   UNL     1       7.934   8.611  17.781  0.00  0.00    +0.000 C 
ATOM     20  O   UNL     1       8.186   7.356  18.409  0.00  0.00    +0.000 OA
ENDBRANCH  18  20
ENDBRANCH   1  18
TORSDOF 3
ENDMDL
MODEL 4
REMARK VINA RESULT:      -7.4      2.828      5.114
REMARK  Name = 
REMARK  5 active torsions:
REMARK  status: ('A' for Active; 'I' for Inactive)
REMARK    1  A    between atoms: C_1  and  O_2
REMARK    2  A    between atoms: O_2  and  C_3
REMARK    3  A    between atoms: C_3  and  C_4
REMARK    4  A    between atoms: C_13  and  C_14
REMARK    5  A    between atoms: C_16  and  C_17
REMARK                            x       y       z     vdW  Elec       q    Type
REMARK                         _______ _______ _______ _____ _____    ______ ____
ROOT
ATOM      1  C   UNL     1       2.064   7.491  19.038  0.00  0.00    +0.000 C 
ATOM      2  O   UNL     1       2.030   8.013  17.922  0.00  0.00    +0.000 OA
ATOM      3  N   UNL     1       2.316   6.133  19.221  0.00  0.00    +0.000 N 
ATOM      4  C   UNL     1       1.897   5.445  20.438  0.00  0.00    +0.000 C 
ATOM      5  C   UNL     1       1.783   3.951  20.245  0.00  0.00    +0.000 C 
ATOM      6  C   UNL     1       3.103   3.404  19.732  0.00  0.00    +0.000 C 
ATOM      7  O   UNL     1       2.893   2.008  19.459  0.00  0.00    +0.000 OA
ATOM      8  C   UNL     1       3.529   1.698  18.222  0.00  0.00    +0.000 C 
ATOM      9  C   UNL     1       3.497   2.971  17.403  0.00  0.00    +0.000 C 
ATOM     10  C   UNL     1       3.608   4.093  18.449  0.00  0.00    +0.000 C 
ATOM     11  C   UNL     1       2.763   5.334  18.075  0.00  0.00    +0.000 C 
ENDROOT
BRANCH  10  12
ATOM     12  C   UNL     1       5.071   4.420  18.548  0.00  0.00    +0.000 A 
ATOM     13  N   UNL     1       5.787   5.054  17.646  0.00  0.00    +0.000 NA
ATOM     14  C   UNL     1       6.718   5.695  18.411  0.00  0.00    +0.000 A 
ATOM     15  C   UNL     1       7.470   6.834  17.863  0.00  0.00    +0.000 C 
ATOM     16  N   UNL     1       6.701   5.373  19.713  0.00  0.00    +0.000 NA
ATOM     17  O   UNL     1       5.605   4.511  19.809  0.00  0.00    +0.000 OA
ENDBRANCH  10  12
BRANCH   1  18
ATOM     18  C   UNL     1       1.956   8.350  20.308  0.00  0.00    +0.000 C 
BRANCH  18  20
ATOM     19  C   UNL     1      -0.055   8.688  21.497  0.00  0.00    +0.000 C 
ATOM     20  O   UNL     1       0.728   9.072  20.369  0.00  0.00    +0.000 OA
ENDBRANCH  18  20
ENDBRANCH   1  18
TORSDOF 3
ENDMDL
MODEL 5
REMARK VINA RESULT:      -7.4      2.281      3.874
REMARK  Name = 
REMARK  5 active torsions:
REMARK  status: ('A' for Active; 'I' for Inactive)
REMARK    1  A    between atoms: C_1  and  O_2
REMARK    2  A    between atoms: O_2  and  C_3
REMARK    3  A    between atoms: C_3  and  C_4
REMARK    4  A    between atoms: C_13  and  C_14
REMARK    5  A    between atoms: C_16  and  C_17
REMARK                            x       y       z     vdW  Elec       q    Type
REMARK                         _______ _______ _______ _____ _____    ______ ____
ROOT
ATOM      1  C   UNL     1       3.042   6.037  19.085  0.00  0.00    +0.000 C 
ATOM      2  O   UNL     1       2.625   7.175  18.862  0.00  0.00    +0.000 OA
ATOM      3  N   UNL     1       3.806   5.326  18.162  0.00  0.00    +0.000 N 
ATOM      4  C   UNL     1       3.888   3.870  18.213  0.00  0.00    +0.000 C 
ATOM      5  C   UNL     1       4.302   3.270  16.888  0.00  0.00    +0.000 C 
ATOM      6  C   UNL     1       5.621   3.880  16.447  0.00  0.00    +0.000 C 
ATOM      7  O   UNL     1       5.898   3.358  15.136  0.00  0.00    +0.000 OA
ATOM      8  C   UNL     1       6.379   4.427  14.326  0.00  0.00    +0.000 C 
ATOM      9  C   UNL     1       5.738   5.687  14.870  0.00  0.00    +0.000 C 
ATOM     10  C   UNL     1       5.606   5.419  16.378  0.00  0.00    +0.000 C 
ATOM     11  C   UNL     1       4.310   6.022  16.973  0.00  0.00    +0.000 C 
ENDROOT
BRANCH  10  12
ATOM     12  C   UNL     1       6.837   6.003  17.010  0.00  0.00    +0.000 A 
ATOM     13  N   UNL     1       7.378   7.167  16.724  0.00  0.00    +0.000 NA
ATOM     14  C   UNL     1       7.931   7.532  17.917  0.00  0.00    +0.000 A 
ATOM     15  C   UNL     1       8.288   8.936  18.169  0.00  0.00    +0.000 C 
ATOM     16  N   UNL     1       7.885   6.593  18.874  0.00  0.00    +0.000 NA
ATOM     17  O   UNL     1       7.161   5.562  18.268  0.00  0.00    +0.000 OA
ENDBRANCH  10  12
BRANCH   1  18
ATOM     18  C   UNL     1       2.846   5.386  20.464  0.00  0.00    +0.000 C 
BRANCH  18  20
ATOM     19  C   UNL     1       1.504   3.551  21.098  0.00  0.00    +0.000 C 
ATOM     20  O   UNL     1       1.517   4.904  20.650  0.00  0.00    +0.000 OA
ENDBRANCH  18  20
ENDBRANCH   1  18
TORSDOF 3
ENDMDL
MODEL 6
REMARK VINA RESULT:      -7.3      2.350      6.100
REMARK  Name = 
REMARK  5 active torsions:
REMARK  status: ('A' for Active; 'I' for Inactive)
REMARK    1  A    between atoms: C_1  and  O_2
REMARK    2  A    between atoms: O_2  and  C_3
REMARK    3  A    between atoms: C_3  and  C_4
REMARK    4  A    between atoms: C_13  and  C_14
REMARK    5  A    between atoms: C_16  and  C_17
REMARK                            x       y       z     vdW  Elec       q    Type
REMARK                         _______ _______ _______ _____ _____    ______ ____
ROOT
ATOM      1  C   UNL     1       6.423   4.721  17.726  0.00  0.00    +0.000 C 
ATOM      2  O   UNL     1       7.242   4.564  18.633  0.00  0.00    +0.000 OA
ATOM      3  N   UNL     1       5.079   4.385  17.866  0.00  0.00    +0.000 N 
ATOM      4  C   UNL     1       4.241   4.123  16.699  0.00  0.00    +0.000 C 
ATOM      5  C   UNL     1       3.022   3.298  17.040  0.00  0.00    +0.000 C 
ATOM      6  C   UNL     1       2.234   3.988  18.138  0.00  0.00    +0.000 C 
ATOM      7  O   UNL     1       1.158   3.102  18.495  0.00  0.00    +0.000 OA
ATOM      8  C   UNL     1       1.044   3.093  19.915  0.00  0.00    +0.000 C 
ATOM      9  C   UNL     1       2.434   3.370  20.450  0.00  0.00    +0.000 C 
ATOM     10  C   UNL     1       3.061   4.301  19.400  0.00  0.00    +0.000 C 
ATOM     11  C   UNL     1       4.571   4.029  19.195  0.00  0.00    +0.000 C 
ENDROOT
BRANCH  10  12
ATOM     12  C   UNL     1       2.805   5.700  19.884  0.00  0.00    +0.000 A 
ATOM     13  N   UNL     1       3.002   6.806  19.202  0.00  0.00    +0.000 NA
ATOM     14  C   UNL     1       2.040   7.633  19.703  0.00  0.00    +0.000 A 
ATOM     15  C   UNL     1       1.630   8.832  18.956  0.00  0.00    +0.000 C 
ATOM     16  N   UNL     1       1.363   7.145  20.754  0.00  0.00    +0.000 NA
ATOM     17  O   UNL     1       1.879   5.852  20.885  0.00  0.00    +0.000 OA
ENDBRANCH  10  12
BRANCH   1  18
ATOM     18  C   UNL     1       6.826   5.426  16.420  0.00  0.00    +0.000 C 
BRANCH  18  20
ATOM     19  C   UNL     1       6.938   4.542  14.235  0.00  0.00    +0.000 C 
ATOM     20  O   UNL     1       7.529   4.559  15.533  0.00  0.00    +0.000 OA
ENDBRANCH  18  20
ENDBRANCH   1  18
TORSDOF 3
ENDMDL
MODEL 7
REMARK VINA RESULT:      -7.3      2.641      4.432
REMARK  Name = 
REMARK  5 active torsions:
REMARK  status: ('A' for Active; 'I' for Inactive)
REMARK    1  A    between atoms: C_1  and  O_2
REMARK    2  A    between atoms: O_2  and  C_3
REMARK    3  A    between atoms: C_3  and  C_4
REMARK    4  A    between atoms: C_13  and  C_14
REMARK    5  A    between atoms: C_16  and  C_17
REMARK                            x       y       z     vdW  Elec       q    Type
REMARK                         _______ _______ _______ _____ _____    ______ ____
ROOT
ATOM      1  C   UNL     1       2.946   7.388  18.203  0.00  0.00    +0.000 C 
ATOM      2  O   UNL     1       2.804   8.457  17.606  0.00  0.00    +0.000 OA
ATOM      3  N   UNL     1       3.666   6.323  17.668  0.00  0.00    +0.000 N 
ATOM      4  C   UNL     1       3.441   4.955  18.126  0.00  0.00    +0.000 C 
ATOM      5  C   UNL     1       3.900   3.928  17.116  0.00  0.00    +0.000 C 
ATOM      6  C   UNL     1       5.363   4.163  16.784  0.00  0.00    +0.000 C 
ATOM      7  O   UNL     1       5.703   3.234  15.740  0.00  0.00    +0.000 OA
ATOM      8  C   UNL     1       6.498   3.921  14.778  0.00  0.00    +0.000 C 
ATOM      9  C   UNL     1       6.060   5.370  14.829  0.00  0.00    +0.000 C 
ATOM     10  C   UNL     1       5.672   5.593  16.300  0.00  0.00    +0.000 C 
ATOM     11  C   UNL     1       4.459   6.541  16.454  0.00  0.00    +0.000 C 
ENDROOT
BRANCH  10  12
ATOM     12  C   UNL     1       6.900   6.139  16.971  0.00  0.00    +0.000 A 
ATOM     13  N   UNL     1       7.443   7.317  16.754  0.00  0.00    +0.000 NA
ATOM     14  C   UNL     1       7.988   7.615  17.969  0.00  0.00    +0.000 A 
ATOM     15  C   UNL     1       8.344   9.003  18.302  0.00  0.00    +0.000 C 
ATOM     16  N   UNL     1       7.935   6.624  18.873  0.00  0.00    +0.000 NA
ATOM     17  O   UNL     1       7.215   5.629  18.205  0.00  0.00    +0.000 OA
ENDBRANCH  10  12
BRANCH   1  18
ATOM     18  C   UNL     1       2.435   7.222  19.644  0.00  0.00    +0.000 C 
BRANCH  18  20
ATOM     19  C   UNL     1       1.025   8.090  21.326  0.00  0.00    +0.000 C 
ATOM     20  O   UNL     1       1.668   8.342  20.078  0.00  0.00    +0.000 OA
ENDBRANCH  18  20
ENDBRANCH   1  18
TORSDOF 3
ENDMDL
MODEL 8
REMARK VINA RESULT:      -7.1      2.551      6.297
REMARK  Name = 
REMARK  5 active torsions:
REMARK  status: ('A' for Active; 'I' for Inactive)
REMARK    1  A    between atoms: C_1  and  O_2
REMARK    2  A    between atoms: O_2  and  C_3
REMARK    3  A    between atoms: C_3  and  C_4
REMARK    4  A    between atoms: C_13  and  C_14
REMARK    5  A    between atoms: C_16  and  C_17
REMARK                            x       y       z     vdW  Elec       q    Type
REMARK                         _______ _______ _______ _____ _____    ______ ____
ROOT
ATOM      1  C   UNL     1       6.148   5.238  18.577  0.00  0.00    +0.000 C 
ATOM      2  O   UNL     1       6.715   5.428  19.654  0.00  0.00    +0.000 OA
ATOM      3  N   UNL     1       4.898   4.630  18.486  0.00  0.00    +0.000 N 
ATOM      4  C   UNL     1       4.458   3.990  17.251  0.00  0.00    +0.000 C 
ATOM      5  C   UNL     1       3.362   2.976  17.486  0.00  0.00    +0.000 C 
ATOM      6  C   UNL     1       2.202   3.642  18.203  0.00  0.00    +0.000 C 
ATOM      7  O   UNL     1       1.250   2.605  18.500  0.00  0.00    +0.000 OA
ATOM      8  C   UNL     1       0.771   2.809  19.826  0.00  0.00    +0.000 C 
ATOM      9  C   UNL     1       1.898   3.484  20.580  0.00  0.00    +0.000 C 
ATOM     10  C   UNL     1       2.599   4.345  19.516  0.00  0.00    +0.000 C 
ATOM     11  C   UNL     1       4.133   4.396  19.715  0.00  0.00    +0.000 C 
ENDROOT
BRANCH  10  12
ATOM     12  C   UNL     1       1.975   5.707  19.613  0.00  0.00    +0.000 A 
ATOM     13  N   UNL     1       1.423   6.234  20.684  0.00  0.00    +0.000 NA
ATOM     14  C   UNL     1       1.665   7.566  20.512  0.00  0.00    +0.000 A 
ATOM     15  C   UNL     1       1.582   8.487  21.655  0.00  0.00    +0.000 C 
ATOM     16  N   UNL     1       2.204   7.896  19.329  0.00  0.00    +0.000 NA
ATOM     17  O   UNL     1       2.405   6.655  18.718  0.00  0.00    +0.000 OA
ENDBRANCH  10  12
BRANCH   1  18
ATOM     18  C   UNL     1       6.744   5.786  17.270  0.00  0.00    +0.000 C 
BRANCH  18  20
ATOM     19  C   UNL     1       7.250   4.753  15.209  0.00  0.00    +0.000 C 
ATOM     20  O   UNL     1       7.555   4.823  16.600  0.00  0.00    +0.000 OA
ENDBRANCH  18  20
ENDBRANCH   1  18
TORSDOF 3
ENDMDL
MODEL 9
REMARK VINA RESULT:      -7.1      2.441      6.143
REMARK  Name = 
REMARK  5 active torsions:
REMARK  status: ('A' for Active; 'I' for Inactive)
REMARK    1  A    between atoms: C_1  and  O_2
REMARK    2  A    between atoms: O_2  and  C_3
REMARK    3  A    between atoms: C_3  and  C_4
REMARK    4  A    between atoms: C_13  and  C_14
REMARK    5  A    between atoms: C_16  and  C_17
REMARK                            x       y       z     vdW  Elec       q    Type
REMARK                         _______ _______ _______ _____ _____    ______ ____
ROOT
ATOM      1  C   UNL     1       6.208   4.693  18.149  0.00  0.00    +0.000 C 
ATOM      2  O   UNL     1       6.920   5.141  19.049  0.00  0.00    +0.000 OA
ATOM      3  N   UNL     1       4.982   4.079  18.400  0.00  0.00    +0.000 N 
ATOM      4  C   UNL     1       4.389   3.157  17.437  0.00  0.00    +0.000 C 
ATOM      5  C   UNL     1       3.381   2.229  18.074  0.00  0.00    +0.000 C 
ATOM      6  C   UNL     1       2.314   3.048  18.779  0.00  0.00    +0.000 C 
ATOM      7  O   UNL     1       1.458   2.114  19.458  0.00  0.00    +0.000 OA
ATOM      8  C   UNL     1       1.173   2.634  20.753  0.00  0.00    +0.000 C 
ATOM      9  C   UNL     1       2.372   3.474  21.142  0.00  0.00    +0.000 C 
ATOM     10  C   UNL     1       2.874   4.050  19.807  0.00  0.00    +0.000 C 
ATOM     11  C   UNL     1       4.417   4.151  19.751  0.00  0.00    +0.000 C 
ENDROOT
BRANCH  10  12
ATOM     12  C   UNL     1       2.218   5.395  19.667  0.00  0.00    +0.000 A 
ATOM     13  N   UNL     1       1.539   6.028  20.598  0.00  0.00    +0.000 NA
ATOM     14  C   UNL     1       1.776   7.336  20.293  0.00  0.00    +0.000 A 
ATOM     15  C   UNL     1       1.547   8.385  21.299  0.00  0.00    +0.000 C 
ATOM     16  N   UNL     1       2.439   7.540  19.145  0.00  0.00    +0.000 NA
ATOM     17  O   UNL     1       2.730   6.241  18.716  0.00  0.00    +0.000 OA
ENDBRANCH  10  12
BRANCH   1  18
ATOM     18  C   UNL     1       6.582   4.907  16.673  0.00  0.00    +0.000 C 
BRANCH  18  20
ATOM     19  C   UNL     1       5.103   6.602  15.961  0.00  0.00    +0.000 C 
ATOM     20  O   UNL     1       6.453   6.270  16.276  0.00  0.00    +0.000 OA
ENDBRANCH  18  20
ENDBRANCH   1  18
TORSDOF 3
ENDMDL
