MODEL 1
REMARK VINA RESULT:      -6.9      0.000      0.000
REMARK  Name = 
REMARK  4 active torsions:
REMARK  status: ('A' for Active; 'I' for Inactive)
REMARK    1  A    between atoms: C_1  and  O_2
REMARK    2  A    between atoms: O_2  and  C_3
REMARK    3  A    between atoms: C_6  and  C_7
REMARK    4  A    between atoms: C_7  and  N_8
REMARK                            x       y       z     vdW  Elec       q    Type
REMARK                         _______ _______ _______ _____ _____    ______ ____
ROOT
ATOM      1  N   UNL     1       7.257   7.502  18.387  0.00  0.00    +0.000 NA
ATOM      2  C   UNL     1       7.873   6.179  18.640  0.00  0.00    +0.000 C 
ATOM      3  C   UNL     1       6.964   5.112  18.021  0.00  0.00    +0.000 C 
ATOM      4  O   UNL     1       7.444   4.827  16.691  0.00  0.00    +0.000 OA
ATOM      5  C   UNL     1       6.489   4.044  15.963  0.00  0.00    +0.000 C 
ATOM      6  C   UNL     1       5.197   4.845  15.786  0.00  0.00    +0.000 C 
ATOM      7  N   UNL     1       4.626   5.208  17.092  0.00  0.00    +0.000 N 
ATOM      8  C   UNL     1       3.777   4.254  17.658  0.00  0.00    +0.000 A 
ATOM      9  N   UNL     1       3.498   3.128  16.985  0.00  0.00    +0.000 NA
ATOM     10  C   UNL     1       2.653   2.242  17.549  0.00  0.00    +0.000 A 
ATOM     11  C   UNL     1       2.065   2.437  18.769  0.00  0.00    +0.000 A 
ATOM     12  C   UNL     1       2.397   3.611  19.388  0.00  0.00    +0.000 A 
ATOM     13  N   UNL     1       3.243   4.516  18.862  0.00  0.00    +0.000 NA
ATOM     14  C   UNL     1       5.585   5.786  18.062  0.00  0.00    +0.000 C 
ATOM     15  C   UNL     1       5.930   7.251  17.775  0.00  0.00    +0.000 C 
ENDROOT
BRANCH   1  16
ATOM     16  C   UNL     1       8.074   8.342  17.499  0.00  0.00    +0.000 C 
BRANCH  16  20
ATOM     17  C   UNL     1       9.531  12.102  19.066  0.00  0.00    +0.000 A 
ATOM     18  C   UNL     1       9.741  10.919  19.775  0.00  0.00    +0.000 A 
ATOM     19  C   UNL     1       9.237   9.706  19.295  0.00  0.00    +0.000 A 
ATOM     20  C   UNL     1       8.497   9.664  18.103  0.00  0.00    +0.000 A 
ATOM     21  C   UNL     1       8.234  10.868  17.436  0.00  0.00    +0.000 A 
ATOM     22  C   UNL     1       8.746  12.079  17.913  0.00  0.00    +0.000 A 
BRANCH  17  24
ATOM     23  C   UNL     1      10.847  14.010  18.656  0.00  0.00    +0.000 C 
ATOM     24  O   UNL     1      10.108  13.227  19.592  0.00  0.00    +0.000 OA
ENDBRANCH  17  24
ENDBRANCH  16  20
ENDBRANCH   1  16
TORSDOF 3
ENDMDL
MODEL 2
REMARK VINA RESULT:      -6.8      0.555      1.127
REMARK  Name = 
REMARK  4 active torsions:
REMARK  status: ('A' for Active; 'I' for Inactive)
REMARK    1  A    between atoms: C_1  and  O_2
REMARK    2  A    between atoms: O_2  and  C_3
REMARK    3  A    between atoms: C_6  and  C_7
REMARK    4  A    between atoms: C_7  and  N_8
REMARK                            x       y       z     vdW  Elec       q    Type
REMARK                         _______ _______ _______ _____ _____    ______ ____
ROOT
ATOM      1  N   UNL     1       7.261   7.538  18.368  0.00  0.00    +0.000 NA
ATOM      2  C   UNL     1       7.925   6.236  18.609  0.00  0.00    +0.000 C 
ATOM      3  C   UNL     1       7.031   5.138  18.024  0.00  0.00    +0.000 C 
ATOM      4  O   UNL     1       7.478   4.861  16.681  0.00  0.00    +0.000 OA
ATOM      5  C   UNL     1       6.525   4.044  15.987  0.00  0.00    +0.000 C 
ATOM      6  C   UNL     1       5.203   4.804  15.847  0.00  0.00    +0.000 C 
ATOM      7  N   UNL     1       4.662   5.156  17.168  0.00  0.00    +0.000 N 
ATOM      8  C   UNL     1       3.863   4.179  17.766  0.00  0.00    +0.000 A 
ATOM      9  N   UNL     1       3.597   3.042  17.107  0.00  0.00    +0.000 NA
ATOM     10  C   UNL     1       2.799   2.133  17.702  0.00  0.00    +0.000 A 
ATOM     11  C   UNL     1       2.244   2.317  18.939  0.00  0.00    +0.000 A 
ATOM     12  C   UNL     1       2.559   3.503  19.542  0.00  0.00    +0.000 A 
ATOM     13  N   UNL     1       3.359   4.432  18.985  0.00  0.00    +0.000 NA
ATOM     14  C   UNL     1       5.633   5.769  18.105  0.00  0.00    +0.000 C 
ATOM     15  C   UNL     1       5.923   7.243  17.800  0.00  0.00    +0.000 C 
ENDROOT
BRANCH   1  16
ATOM     16  C   UNL     1       8.023   8.398  17.451  0.00  0.00    +0.000 C 
BRANCH  16  20
ATOM     17  C   UNL     1       9.307  12.041  19.400  0.00  0.00    +0.000 A 
ATOM     18  C   UNL     1       8.763  12.087  18.116  0.00  0.00    +0.000 A 
ATOM     19  C   UNL     1       8.384  10.910  17.463  0.00  0.00    +0.000 A 
ATOM     20  C   UNL     1       8.563   9.663  18.084  0.00  0.00    +0.000 A 
ATOM     21  C   UNL     1       9.174   9.624  19.344  0.00  0.00    +0.000 A 
ATOM     22  C   UNL     1       9.545  10.804  19.998  0.00  0.00    +0.000 A 
BRANCH  17  24
ATOM     23  C   UNL     1       8.611  14.258  19.766  0.00  0.00    +0.000 C 
ATOM     24  O   UNL     1       9.598  13.250  19.972  0.00  0.00    +0.000 OA
ENDBRANCH  17  24
ENDBRANCH  16  20
ENDBRANCH   1  16
TORSDOF 3
ENDMDL
MODEL 3
REMARK VINA RESULT:      -6.7      4.146      6.352
REMARK  Name = 
REMARK  4 active torsions:
REMARK  status: ('A' for Active; 'I' for Inactive)
REMARK    1  A    between atoms: C_1  and  O_2
REMARK    2  A    between atoms: O_2  and  C_3
REMARK    3  A    between atoms: C_6  and  C_7
REMARK    4  A    between atoms: C_7  and  N_8
REMARK                            x       y       z     vdW  Elec       q    Type
REMARK                         _______ _______ _______ _____ _____    ______ ____
ROOT
ATOM      1  N   UNL     1       3.260   4.679  18.796  0.00  0.00    +0.000 NA
ATOM      2  C   UNL     1       4.308   3.643  18.946  0.00  0.00    +0.000 C 
ATOM      3  C   UNL     1       5.451   3.989  17.987  0.00  0.00    +0.000 C 
ATOM      4  O   UNL     1       6.430   4.761  18.713  0.00  0.00    +0.000 OA
ATOM      5  C   UNL     1       7.386   5.342  17.816  0.00  0.00    +0.000 C 
ATOM      6  C   UNL     1       6.679   6.325  16.879  0.00  0.00    +0.000 C 
ATOM      7  N   UNL     1       5.638   5.642  16.096  0.00  0.00    +0.000 N 
ATOM      8  C   UNL     1       6.074   5.058  14.905  0.00  0.00    +0.000 A 
ATOM      9  N   UNL     1       7.354   5.190  14.528  0.00  0.00    +0.000 NA
ATOM     10  C   UNL     1       7.734   4.637  13.359  0.00  0.00    +0.000 A 
ATOM     11  C   UNL     1       6.878   3.953  12.539  0.00  0.00    +0.000 A 
ATOM     12  C   UNL     1       5.591   3.866  12.992  0.00  0.00    +0.000 A 
ATOM     13  N   UNL     1       5.175   4.397  14.157  0.00  0.00    +0.000 NA
ATOM     14  C   UNL     1       4.731   4.769  16.878  0.00  0.00    +0.000 C 
ATOM     15  C   UNL     1       3.669   5.547  17.664  0.00  0.00    +0.000 C 
ENDROOT
BRANCH   1  16
ATOM     16  C   UNL     1       3.086   5.484  20.013  0.00  0.00    +0.000 C 
BRANCH  16  20
ATOM     17  C   UNL     1       1.141   9.316  19.515  0.00  0.00    +0.000 A 
ATOM     18  C   UNL     1       0.961   8.586  20.690  0.00  0.00    +0.000 A 
ATOM     19  C   UNL     1       1.553   7.329  20.842  0.00  0.00    +0.000 A 
ATOM     20  C   UNL     1       2.321   6.774  19.806  0.00  0.00    +0.000 A 
ATOM     21  C   UNL     1       2.437   7.486  18.604  0.00  0.00    +0.000 A 
ATOM     22  C   UNL     1       1.851   8.747  18.458  0.00  0.00    +0.000 A 
BRANCH  17  24
ATOM     23  C   UNL     1      -0.558  10.670  18.611  0.00  0.00    +0.000 C 
ATOM     24  O   UNL     1       0.563  10.557  19.485  0.00  0.00    +0.000 OA
ENDBRANCH  17  24
ENDBRANCH  16  20
ENDBRANCH   1  16
TORSDOF 3
ENDMDL
MODEL 4
REMARK VINA RESULT:      -6.4      4.013      6.438
REMARK  Name = 
REMARK  4 active torsions:
REMARK  status: ('A' for Active; 'I' for Inactive)
REMARK    1  A    between atoms: C_1  and  O_2
REMARK    2  A    between atoms: O_2  and  C_3
REMARK    3  A    between atoms: C_6  and  C_7
REMARK    4  A    between atoms: C_7  and  N_8
REMARK                            x       y       z     vdW  Elec       q    Type
REMARK                         _______ _______ _______ _____ _____    ______ ____
ROOT
ATOM      1  N   UNL     1       3.000   5.147  19.003  0.00  0.00    +0.000 NA
ATOM      2  C   UNL     1       4.041   4.125  19.262  0.00  0.00    +0.000 C 
ATOM      3  C   UNL     1       5.218   4.407  18.323  0.00  0.00    +0.000 C 
ATOM      4  O   UNL     1       6.171   5.229  19.028  0.00  0.00    +0.000 OA
ATOM      5  C   UNL     1       7.158   5.749  18.127  0.00  0.00    +0.000 C 
ATOM      6  C   UNL     1       6.485   6.663  17.100  0.00  0.00    +0.000 C 
ATOM      7  N   UNL     1       5.472   5.926  16.330  0.00  0.00    +0.000 N 
ATOM      8  C   UNL     1       5.950   5.261  15.199  0.00  0.00    +0.000 A 
ATOM      9  N   UNL     1       7.243   5.370  14.859  0.00  0.00    +0.000 NA
ATOM     10  C   UNL     1       7.663   4.738  13.745  0.00  0.00    +0.000 A 
ATOM     11  C   UNL     1       6.837   3.997  12.944  0.00  0.00    +0.000 A 
ATOM     12  C   UNL     1       5.534   3.939  13.357  0.00  0.00    +0.000 A 
ATOM     13  N   UNL     1       5.078   4.548  14.467  0.00  0.00    +0.000 NA
ATOM     14  C   UNL     1       4.537   5.107  17.137  0.00  0.00    +0.000 C 
ATOM     15  C   UNL     1       3.449   5.934  17.830  0.00  0.00    +0.000 C 
ENDROOT
BRANCH   1  16
ATOM     16  C   UNL     1       2.783   6.033  20.156  0.00  0.00    +0.000 C 
BRANCH  16  20
ATOM     17  C   UNL     1       0.785   9.721  19.094  0.00  0.00    +0.000 A 
ATOM     18  C   UNL     1       1.569   9.052  18.153  0.00  0.00    +0.000 A 
ATOM     19  C   UNL     1       2.250   7.882  18.500  0.00  0.00    +0.000 A 
ATOM     20  C   UNL     1       2.171   7.374  19.807  0.00  0.00    +0.000 A 
ATOM     21  C   UNL     1       1.438   8.092  20.761  0.00  0.00    +0.000 A 
ATOM     22  C   UNL     1       0.750   9.258  20.409  0.00  0.00    +0.000 A 
BRANCH  17  24
ATOM     23  C   UNL     1      -1.266  10.616  18.366  0.00  0.00    +0.000 C 
ATOM     24  O   UNL     1       0.117  10.827  18.641  0.00  0.00    +0.000 OA
ENDBRANCH  17  24
ENDBRANCH  16  20
ENDBRANCH   1  16
TORSDOF 3
ENDMDL
MODEL 5
REMARK VINA RESULT:      -6.4      6.873      9.512
REMARK  Name = 
REMARK  4 active torsions:
REMARK  status: ('A' for Active; 'I' for Inactive)
REMARK    1  A    between atoms: C_1  and  O_2
REMARK    2  A    between atoms: O_2  and  C_3
REMARK    3  A    between atoms: C_6  and  C_7
REMARK    4  A    between atoms: C_7  and  N_8
REMARK                            x       y       z     vdW  Elec       q    Type
REMARK                         _______ _______ _______ _____ _____    ______ ____
ROOT
ATOM      1  N   UNL     1       1.134   8.939  18.661  0.00  0.00    +0.000 NA
ATOM      2  C   UNL     1       0.164   9.822  17.972  0.00  0.00    +0.000 C 
ATOM      3  C   UNL     1      -0.013  11.081  18.826  0.00  0.00    +0.000 C 
ATOM      4  O   UNL     1       0.901  12.086  18.342  0.00  0.00    +0.000 OA
ATOM      5  C   UNL     1       0.979  13.186  19.258  0.00  0.00    +0.000 C 
ATOM      6  C   UNL     1       1.548  12.702  20.594  0.00  0.00    +0.000 C 
ATOM      7  N   UNL     1       0.697  11.652  21.174  0.00  0.00    +0.000 N 
ATOM      8  C   UNL     1      -0.360  12.110  21.964  0.00  0.00    +0.000 A 
ATOM      9  N   UNL     1      -0.505  13.425  22.187  0.00  0.00    +0.000 NA
ATOM     10  C   UNL     1      -1.519  13.828  22.977  0.00  0.00    +0.000 A 
ATOM     11  C   UNL     1      -2.403  12.965  23.565  0.00  0.00    +0.000 A 
ATOM     12  C   UNL     1      -2.185  11.643  23.292  0.00  0.00    +0.000 A 
ATOM     13  N   UNL     1      -1.190  11.200  22.501  0.00  0.00    +0.000 NA
ATOM     14  C   UNL     1       0.302  10.571  20.240  0.00  0.00    +0.000 C 
ATOM     15  C   UNL     1       1.422   9.558  19.978  0.00  0.00    +0.000 C 
ENDROOT
BRANCH   1  16
ATOM     16  C   UNL     1       2.379   8.767  17.899  0.00  0.00    +0.000 C 
BRANCH  16  20
ATOM     17  C   UNL     1       3.769   4.687  17.520  0.00  0.00    +0.000 A 
ATOM     18  C   UNL     1       2.518   4.953  18.079  0.00  0.00    +0.000 A 
ATOM     19  C   UNL     1       2.079   6.270  18.243  0.00  0.00    +0.000 A 
ATOM     20  C   UNL     1       2.899   7.345  17.864  0.00  0.00    +0.000 A 
ATOM     21  C   UNL     1       4.180   7.068  17.369  0.00  0.00    +0.000 A 
ATOM     22  C   UNL     1       4.614   5.749  17.199  0.00  0.00    +0.000 A 
BRANCH  17  24
ATOM     23  C   UNL     1       3.261   2.462  18.090  0.00  0.00    +0.000 C 
ATOM     24  O   UNL     1       4.084   3.365  17.356  0.00  0.00    +0.000 OA
ENDBRANCH  17  24
ENDBRANCH  16  20
ENDBRANCH   1  16
TORSDOF 3
ENDMDL
MODEL 6
REMARK VINA RESULT:      -6.4      7.361      9.693
REMARK  Name = 
REMARK  4 active torsions:
REMARK  status: ('A' for Active; 'I' for Inactive)
REMARK    1  A    between atoms: C_1  and  O_2
REMARK    2  A    between atoms: O_2  and  C_3
REMARK    3  A    between atoms: C_6  and  C_7
REMARK    4  A    between atoms: C_7  and  N_8
REMARK                            x       y       z     vdW  Elec       q    Type
REMARK                         _______ _______ _______ _____ _____    ______ ____
ROOT
ATOM      1  N   UNL     1       0.722   9.289  18.907  0.00  0.00    +0.000 NA
ATOM      2  C   UNL     1      -0.241  10.159  18.192  0.00  0.00    +0.000 C 
ATOM      3  C   UNL     1      -0.440  11.426  19.030  0.00  0.00    +0.000 C 
ATOM      4  O   UNL     1       0.476  12.432  18.550  0.00  0.00    +0.000 OA
ATOM      5  C   UNL     1       0.533  13.542  19.456  0.00  0.00    +0.000 C 
ATOM      6  C   UNL     1       1.083  13.075  20.806  0.00  0.00    +0.000 C 
ATOM      7  N   UNL     1       0.228  12.027  21.383  0.00  0.00    +0.000 N 
ATOM      8  C   UNL     1      -0.844  12.487  22.150  0.00  0.00    +0.000 A 
ATOM      9  N   UNL     1      -0.999  13.803  22.357  0.00  0.00    +0.000 NA
ATOM     10  C   UNL     1      -2.029  14.209  23.126  0.00  0.00    +0.000 A 
ATOM     11  C   UNL     1      -2.918  13.347  23.709  0.00  0.00    +0.000 A 
ATOM     12  C   UNL     1      -2.687  12.023  23.454  0.00  0.00    +0.000 A 
ATOM     13  N   UNL     1      -1.677  11.578  22.684  0.00  0.00    +0.000 NA
ATOM     14  C   UNL     1      -0.145  10.934  20.454  0.00  0.00    +0.000 C 
ATOM     15  C   UNL     1       0.985   9.924  20.221  0.00  0.00    +0.000 C 
ENDROOT
BRANCH   1  16
ATOM     16  C   UNL     1       1.980   9.117  18.167  0.00  0.00    +0.000 C 
BRANCH  16  20
ATOM     17  C   UNL     1       4.077   5.410  18.929  0.00  0.00    +0.000 A 
ATOM     18  C   UNL     1       4.383   6.169  17.799  0.00  0.00    +0.000 A 
ATOM     19  C   UNL     1       3.682   7.347  17.524  0.00  0.00    +0.000 A 
ATOM     20  C   UNL     1       2.646   7.772  18.371  0.00  0.00    +0.000 A 
ATOM     21  C   UNL     1       2.302   6.966  19.464  0.00  0.00    +0.000 A 
ATOM     22  C   UNL     1       3.010   5.792  19.742  0.00  0.00    +0.000 A 
BRANCH  17  24
ATOM     23  C   UNL     1       4.144   3.067  19.133  0.00  0.00    +0.000 C 
ATOM     24  O   UNL     1       4.855   4.303  19.137  0.00  0.00    +0.000 OA
ENDBRANCH  17  24
ENDBRANCH  16  20
ENDBRANCH   1  16
TORSDOF 3
ENDMDL
MODEL 7
REMARK VINA RESULT:      -6.3      8.248     10.727
REMARK  Name = 
REMARK  4 active torsions:
REMARK  status: ('A' for Active; 'I' for Inactive)
REMARK    1  A    between atoms: C_1  and  O_2
REMARK    2  A    between atoms: O_2  and  C_3
REMARK    3  A    between atoms: C_6  and  C_7
REMARK    4  A    between atoms: C_7  and  N_8
REMARK                            x       y       z     vdW  Elec       q    Type
REMARK                         _______ _______ _______ _____ _____    ______ ____
ROOT
ATOM      1  N   UNL     1       0.132   9.530  20.176  0.00  0.00    +0.000 NA
ATOM      2  C   UNL     1      -0.774  10.296  19.288  0.00  0.00    +0.000 C 
ATOM      3  C   UNL     1      -1.089  11.627  19.975  0.00  0.00    +0.000 C 
ATOM      4  O   UNL     1      -0.153  12.615  19.496  0.00  0.00    +0.000 OA
ATOM      5  C   UNL     1      -0.219  13.806  20.292  0.00  0.00    +0.000 C 
ATOM      6  C   UNL     1       0.200  13.486  21.729  0.00  0.00    +0.000 C 
ATOM      7  N   UNL     1      -0.683  12.467  22.315  0.00  0.00    +0.000 N 
ATOM      8  C   UNL     1      -1.841  12.959  22.923  0.00  0.00    +0.000 A 
ATOM      9  N   UNL     1      -2.049  14.282  22.985  0.00  0.00    +0.000 NA
ATOM     10  C   UNL     1      -3.162  14.722  23.605  0.00  0.00    +0.000 A 
ATOM     11  C   UNL     1      -4.085  13.888  24.175  0.00  0.00    +0.000 A 
ATOM     12  C   UNL     1      -3.797  12.554  24.073  0.00  0.00    +0.000 A 
ATOM     13  N   UNL     1      -2.701  12.075  23.455  0.00  0.00    +0.000 NA
ATOM     14  C   UNL     1      -0.931  11.280  21.463  0.00  0.00    +0.000 C 
ATOM     15  C   UNL     1       0.241  10.292  21.443  0.00  0.00    +0.000 C 
ENDROOT
BRANCH   1  16
ATOM     16  C   UNL     1       1.464   9.332  19.586  0.00  0.00    +0.000 C 
BRANCH  16  20
ATOM     17  C   UNL     1       2.418   5.133  19.171  0.00  0.00    +0.000 A 
ATOM     18  C   UNL     1       1.957   5.630  20.390  0.00  0.00    +0.000 A 
ATOM     19  C   UNL     1       1.686   6.993  20.544  0.00  0.00    +0.000 A 
ATOM     20  C   UNL     1       1.892   7.884  19.479  0.00  0.00    +0.000 A 
ATOM     21  C   UNL     1       2.420   7.384  18.281  0.00  0.00    +0.000 A 
ATOM     22  C   UNL     1       2.683   6.019  18.127  0.00  0.00    +0.000 A 
BRANCH  17  24
ATOM     23  C   UNL     1       1.403   3.011  19.124  0.00  0.00    +0.000 C 
ATOM     24  O   UNL     1       2.604   3.778  19.107  0.00  0.00    +0.000 OA
ENDBRANCH  17  24
ENDBRANCH  16  20
ENDBRANCH   1  16
TORSDOF 3
ENDMDL
MODEL 8
REMARK VINA RESULT:      -6.3      4.028      6.930
REMARK  Name = 
REMARK  4 active torsions:
REMARK  status: ('A' for Active; 'I' for Inactive)
REMARK    1  A    between atoms: C_1  and  O_2
REMARK    2  A    between atoms: O_2  and  C_3
REMARK    3  A    between atoms: C_6  and  C_7
REMARK    4  A    between atoms: C_7  and  N_8
REMARK                            x       y       z     vdW  Elec       q    Type
REMARK                         _______ _______ _______ _____ _____    ______ ____
ROOT
ATOM      1  N   UNL     1       6.926   6.142  16.278  0.00  0.00    +0.000 NA
ATOM      2  C   UNL     1       7.375   6.150  17.690  0.00  0.00    +0.000 C 
ATOM      3  C   UNL     1       6.189   5.726  18.562  0.00  0.00    +0.000 C 
ATOM      4  O   UNL     1       6.276   4.303  18.780  0.00  0.00    +0.000 OA
ATOM      5  C   UNL     1       5.062   3.802  19.356  0.00  0.00    +0.000 C 
ATOM      6  C   UNL     1       3.905   4.012  18.376  0.00  0.00    +0.000 C 
ATOM      7  N   UNL     1       3.736   5.439  18.066  0.00  0.00    +0.000 N 
ATOM      8  C   UNL     1       2.918   6.149  18.948  0.00  0.00    +0.000 A 
ATOM      9  N   UNL     1       2.312   5.506  19.957  0.00  0.00    +0.000 NA
ATOM     10  C   UNL     1       1.507   6.217  20.771  0.00  0.00    +0.000 A 
ATOM     11  C   UNL     1       1.275   7.557  20.617  0.00  0.00    +0.000 A 
ATOM     12  C   UNL     1       1.927   8.136  19.563  0.00  0.00    +0.000 A 
ATOM     13  N   UNL     1       2.745   7.463  18.733  0.00  0.00    +0.000 NA
ATOM     14  C   UNL     1       4.982   6.161  17.716  0.00  0.00    +0.000 C 
ATOM     15  C   UNL     1       5.467   5.880  16.290  0.00  0.00    +0.000 C 
ENDROOT
BRANCH   1  16
ATOM     16  C   UNL     1       7.618   5.123  15.474  0.00  0.00    +0.000 C 
BRANCH  16  20
ATOM     17  C   UNL     1       5.434   3.373  12.175  0.00  0.00    +0.000 A 
ATOM     18  C   UNL     1       6.684   3.954  11.959  0.00  0.00    +0.000 A 
ATOM     19  C   UNL     1       7.378   4.557  13.012  0.00  0.00    +0.000 A 
ATOM     20  C   UNL     1       6.817   4.605  14.298  0.00  0.00    +0.000 A 
ATOM     21  C   UNL     1       5.531   4.082  14.488  0.00  0.00    +0.000 A 
ATOM     22  C   UNL     1       4.843   3.471  13.434  0.00  0.00    +0.000 A 
BRANCH  17  24
ATOM     23  C   UNL     1       3.541   3.210  10.786  0.00  0.00    +0.000 C 
ATOM     24  O   UNL     1       4.861   2.763  11.092  0.00  0.00    +0.000 OA
ENDBRANCH  17  24
ENDBRANCH  16  20
ENDBRANCH   1  16
TORSDOF 3
ENDMDL
MODEL 9
REMARK VINA RESULT:      -6.2      4.537      6.651
REMARK  Name = 
REMARK  4 active torsions:
REMARK  status: ('A' for Active; 'I' for Inactive)
REMARK    1  A    between atoms: C_1  and  O_2
REMARK    2  A    between atoms: O_2  and  C_3
REMARK    3  A    between atoms: C_6  and  C_7
REMARK    4  A    between atoms: C_7  and  N_8
REMARK                            x       y       z     vdW  Elec       q    Type
REMARK                         _______ _______ _______ _____ _____    ______ ____
ROOT
ATOM      1  N   UNL     1       2.674   6.117  19.215  0.00  0.00    +0.000 NA
ATOM      2  C   UNL     1       3.452   4.905  19.563  0.00  0.00    +0.000 C 
ATOM      3  C   UNL     1       4.732   4.913  18.723  0.00  0.00    +0.000 C 
ATOM      4  O   UNL     1       5.778   5.531  19.501  0.00  0.00    +0.000 OA
ATOM      5  C   UNL     1       6.922   5.812  18.682  0.00  0.00    +0.000 C 
ATOM      6  C   UNL     1       6.542   6.825  17.600  0.00  0.00    +0.000 C 
ATOM      7  N   UNL     1       5.461   6.302  16.752  0.00  0.00    +0.000 N 
ATOM      8  C   UNL     1       5.876   5.527  15.666  0.00  0.00    +0.000 A 
ATOM      9  N   UNL     1       7.185   5.354  15.434  0.00  0.00    +0.000 NA
ATOM     10  C   UNL     1       7.550   4.625  14.361  0.00  0.00    +0.000 A 
ATOM     11  C   UNL     1       6.653   4.057  13.498  0.00  0.00    +0.000 A 
ATOM     12  C   UNL     1       5.339   4.283  13.802  0.00  0.00    +0.000 A 
ATOM     13  N   UNL     1       4.934   4.998  14.868  0.00  0.00    +0.000 NA
ATOM     14  C   UNL     1       4.312   5.715  17.482  0.00  0.00    +0.000 C 
ATOM     15  C   UNL     1       3.372   6.768  18.079  0.00  0.00    +0.000 C 
ENDROOT
BRANCH   1  16
ATOM     16  C   UNL     1       2.558   7.054  20.342  0.00  0.00    +0.000 C 
BRANCH  16  20
ATOM     17  C   UNL     1      -0.293  10.283  19.938  0.00  0.00    +0.000 A 
ATOM     18  C   UNL     1      -0.281   9.499  21.092  0.00  0.00    +0.000 A 
ATOM     19  C   UNL     1       0.610   8.428  21.213  0.00  0.00    +0.000 A 
ATOM     20  C   UNL     1       1.491   8.115  20.166  0.00  0.00    +0.000 A 
ATOM     21  C   UNL     1       1.422   8.865  18.985  0.00  0.00    +0.000 A 
ATOM     22  C   UNL     1       0.536   9.941  18.870  0.00  0.00    +0.000 A 
BRANCH  17  24
ATOM     23  C   UNL     1      -1.044  12.210  21.061  0.00  0.00    +0.000 C 
ATOM     24  O   UNL     1      -1.165  11.338  19.939  0.00  0.00    +0.000 OA
ENDBRANCH  17  24
ENDBRANCH  16  20
ENDBRANCH   1  16
TORSDOF 3
ENDMDL
