MODEL 1
REMARK VINA RESULT:      -6.9      0.000      0.000
REMARK  Name = 
REMARK  8 active torsions:
REMARK  status: ('A' for Active; 'I' for Inactive)
REMARK    1  A    between atoms: C_1  and  O_2
REMARK    2  A    between atoms: O_2  and  C_3
REMARK    3  A    between atoms: C_6  and  C_7
REMARK    4  A    between atoms: C_7  and  C_9
REMARK    5  A    between atoms: C_9  and  S_10
REMARK    6  A    between atoms: S_10  and  C_11
REMARK    7  A    between atoms: C_14  and  C_15
REMARK    8  A    between atoms: N_20  and  C_21
REMARK                            x       y       z     vdW  Elec       q    Type
REMARK                         _______ _______ _______ _____ _____    ______ ____
ROOT
ATOM      1  S   UNL     1       8.098   7.475  18.255  0.00  0.00    +0.000 S 
ENDROOT
BRANCH   1   2
ATOM      2  C   UNL     1       6.643   6.891  17.531  0.00  0.00    +0.000 A 
ATOM      3  N   UNL     1       6.141   7.240  16.371  0.00  0.00    +0.000 NA
ATOM      4  N   UNL     1       4.987   6.509  16.184  0.00  0.00    +0.000 NA
ATOM      5  C   UNL     1       4.801   5.751  17.250  0.00  0.00    +0.000 A 
ATOM      6  N   UNL     1       5.842   5.949  18.123  0.00  0.00    +0.000 N 
ATOM      7  C   UNL     1       6.112   5.269  19.364  0.00  0.00    +0.000 C 
BRANCH   5   8
ATOM      8  C   UNL     1       3.694   4.859  17.425  0.00  0.00    +0.000 A 
ATOM      9  C   UNL     1       3.659   3.488  17.226  0.00  0.00    +0.000 A 
ATOM     10  C   UNL     1       2.351   3.045  17.542  0.00  0.00    +0.000 A 
ATOM     11  C   UNL     1       1.646   4.166  17.892  0.00  0.00    +0.000 A 
ATOM     12  O   UNL     1       2.445   5.264  17.827  0.00  0.00    +0.000 OA
ENDBRANCH   5   8
ENDBRANCH   1   2
BRANCH   1  13
ATOM     13  C   UNL     1       8.086   9.220  17.745  0.00  0.00    +0.000 C 
BRANCH  13  14
ATOM     14  C   UNL     1       8.933  10.055  18.697  0.00  0.00    +0.000 C 
ATOM     15  O   UNL     1       9.147   9.720  19.864  0.00  0.00    +0.000 OA
BRANCH  14  19
ATOM     16  C   UNL     1      10.699  13.733  17.284  0.00  0.00    +0.000 A 
ATOM     17  C   UNL     1       9.344  13.654  17.599  0.00  0.00    +0.000 A 
ATOM     18  C   UNL     1       8.792  12.456  18.059  0.00  0.00    +0.000 A 
ATOM     19  C   UNL     1       9.587  11.308  18.198  0.00  0.00    +0.000 A 
ATOM     20  C   UNL     1      10.945  11.388  17.867  0.00  0.00    +0.000 A 
ATOM     21  C   UNL     1      11.494  12.594  17.407  0.00  0.00    +0.000 A 
BRANCH  16  23
ATOM     22  C   UNL     1      10.355  16.072  17.267  0.00  0.00    +0.000 C 
ATOM     23  O   UNL     1      11.123  14.953  16.838  0.00  0.00    +0.000 OA
ENDBRANCH  16  23
ENDBRANCH  14  19
ENDBRANCH  13  14
ENDBRANCH   1  13
TORSDOF 6
ENDMDL
MODEL 2
REMARK VINA RESULT:      -6.8      5.306      8.445
REMARK  Name = 
REMARK  8 active torsions:
REMARK  status: ('A' for Active; 'I' for Inactive)
REMARK    1  A    between atoms: C_1  and  O_2
REMARK    2  A    between atoms: O_2  and  C_3
REMARK    3  A    between atoms: C_6  and  C_7
REMARK    4  A    between atoms: C_7  and  C_9
REMARK    5  A    between atoms: C_9  and  S_10
REMARK    6  A    between atoms: S_10  and  C_11
REMARK    7  A    between atoms: C_14  and  C_15
REMARK    8  A    between atoms: N_20  and  C_21
REMARK                            x       y       z     vdW  Elec       q    Type
REMARK                         _______ _______ _______ _____ _____    ______ ____
ROOT
ATOM      1  S   UNL     1       7.240   5.018  17.520  0.00  0.00    +0.000 S 
ENDROOT
BRANCH   1   2
ATOM      2  C   UNL     1       7.112   4.898  15.801  0.00  0.00    +0.000 A 
ATOM      3  N   UNL     1       7.752   5.615  14.908  0.00  0.00    +0.000 NA
ATOM      4  N   UNL     1       7.364   5.166  13.664  0.00  0.00    +0.000 NA
ATOM      5  C   UNL     1       6.476   4.202  13.832  0.00  0.00    +0.000 A 
ATOM      6  N   UNL     1       6.301   3.988  15.176  0.00  0.00    +0.000 N 
ATOM      7  C   UNL     1       5.508   2.976  15.826  0.00  0.00    +0.000 C 
BRANCH   5   8
ATOM      8  C   UNL     1       5.835   3.499  12.761  0.00  0.00    +0.000 A 
ATOM      9  C   UNL     1       4.627   3.789  12.147  0.00  0.00    +0.000 A 
ATOM     10  C   UNL     1       4.421   2.822  11.132  0.00  0.00    +0.000 A 
ATOM     11  C   UNL     1       5.498   1.977  11.192  0.00  0.00    +0.000 A 
ATOM     12  O   UNL     1       6.356   2.376  12.167  0.00  0.00    +0.000 OA
ENDBRANCH   5   8
ENDBRANCH   1   2
BRANCH   1  13
ATOM     13  C   UNL     1       6.355   6.572  17.845  0.00  0.00    +0.000 C 
BRANCH  13  14
ATOM     14  C   UNL     1       4.876   6.418  17.517  0.00  0.00    +0.000 C 
ATOM     15  O   UNL     1       4.305   7.116  16.677  0.00  0.00    +0.000 OA
BRANCH  14  19
ATOM     16  C   UNL     1       2.651   3.343  19.576  0.00  0.00    +0.000 A 
ATOM     17  C   UNL     1       3.758   3.953  20.163  0.00  0.00    +0.000 A 
ATOM     18  C   UNL     1       4.462   4.949  19.482  0.00  0.00    +0.000 A 
ATOM     19  C   UNL     1       4.078   5.343  18.192  0.00  0.00    +0.000 A 
ATOM     20  C   UNL     1       2.973   4.719  17.600  0.00  0.00    +0.000 A 
ATOM     21  C   UNL     1       2.269   3.719  18.289  0.00  0.00    +0.000 A 
BRANCH  16  23
ATOM     22  C   UNL     1       1.126   2.844  21.313  0.00  0.00    +0.000 C 
ATOM     23  O   UNL     1       2.048   2.379  20.333  0.00  0.00    +0.000 OA
ENDBRANCH  16  23
ENDBRANCH  14  19
ENDBRANCH  13  14
ENDBRANCH   1  13
TORSDOF 6
ENDMDL
MODEL 3
REMARK VINA RESULT:      -6.8      6.284      7.732
REMARK  Name = 
REMARK  8 active torsions:
REMARK  status: ('A' for Active; 'I' for Inactive)
REMARK    1  A    between atoms: C_1  and  O_2
REMARK    2  A    between atoms: O_2  and  C_3
REMARK    3  A    between atoms: C_6  and  C_7
REMARK    4  A    between atoms: C_7  and  C_9
REMARK    5  A    between atoms: C_9  and  S_10
REMARK    6  A    between atoms: S_10  and  C_11
REMARK    7  A    between atoms: C_14  and  C_15
REMARK    8  A    between atoms: N_20  and  C_21
REMARK                            x       y       z     vdW  Elec       q    Type
REMARK                         _______ _______ _______ _____ _____    ______ ____
ROOT
ATOM      1  S   UNL     1       3.620   2.303  20.866  0.00  0.00    +0.000 S 
ENDROOT
BRANCH   1   2
ATOM      2  C   UNL     1       4.559   3.235  19.755  0.00  0.00    +0.000 A 
ATOM      3  N   UNL     1       5.498   4.103  20.047  0.00  0.00    +0.000 NA
ATOM      4  N   UNL     1       5.993   4.589  18.855  0.00  0.00    +0.000 NA
ATOM      5  C   UNL     1       5.324   4.023  17.868  0.00  0.00    +0.000 A 
ATOM      6  N   UNL     1       4.414   3.140  18.395  0.00  0.00    +0.000 N 
ATOM      7  C   UNL     1       3.540   2.232  17.699  0.00  0.00    +0.000 C 
BRANCH   5   8
ATOM      8  C   UNL     1       5.552   4.291  16.479  0.00  0.00    +0.000 A 
ATOM      9  C   UNL     1       5.378   5.486  15.797  0.00  0.00    +0.000 A 
ATOM     10  C   UNL     1       5.747   5.264  14.447  0.00  0.00    +0.000 A 
ATOM     11  C   UNL     1       6.102   3.943  14.366  0.00  0.00    +0.000 A 
ATOM     12  O   UNL     1       5.991   3.349  15.582  0.00  0.00    +0.000 OA
ENDBRANCH   5   8
ENDBRANCH   1   2
BRANCH   1  13
ATOM     13  C   UNL     1       2.449   3.547  21.490  0.00  0.00    +0.000 C 
BRANCH  13  14
ATOM     14  C   UNL     1       1.525   4.010  20.371  0.00  0.00    +0.000 C 
ATOM     15  O   UNL     1       0.524   3.377  20.031  0.00  0.00    +0.000 OA
BRANCH  14  19
ATOM     16  C   UNL     1       2.307   7.827  18.512  0.00  0.00    +0.000 A 
ATOM     17  C   UNL     1       2.073   7.723  19.882  0.00  0.00    +0.000 A 
ATOM     18  C   UNL     1       1.826   6.478  20.465  0.00  0.00    +0.000 A 
ATOM     19  C   UNL     1       1.795   5.314  19.683  0.00  0.00    +0.000 A 
ATOM     20  C   UNL     1       2.017   5.425  18.305  0.00  0.00    +0.000 A 
ATOM     21  C   UNL     1       2.266   6.678  17.724  0.00  0.00    +0.000 A 
BRANCH  16  23
ATOM     22  C   UNL     1       1.475  10.027  18.272  0.00  0.00    +0.000 C 
ATOM     23  O   UNL     1       2.529   9.096  18.054  0.00  0.00    +0.000 OA
ENDBRANCH  16  23
ENDBRANCH  14  19
ENDBRANCH  13  14
ENDBRANCH   1  13
TORSDOF 6
ENDMDL
MODEL 4
REMARK VINA RESULT:      -6.8      5.901      7.672
REMARK  Name = 
REMARK  8 active torsions:
REMARK  status: ('A' for Active; 'I' for Inactive)
REMARK    1  A    between atoms: C_1  and  O_2
REMARK    2  A    between atoms: O_2  and  C_3
REMARK    3  A    between atoms: C_6  and  C_7
REMARK    4  A    between atoms: C_7  and  C_9
REMARK    5  A    between atoms: C_9  and  S_10
REMARK    6  A    between atoms: S_10  and  C_11
REMARK    7  A    between atoms: C_14  and  C_15
REMARK    8  A    between atoms: N_20  and  C_21
REMARK                            x       y       z     vdW  Elec       q    Type
REMARK                         _______ _______ _______ _____ _____    ______ ____
ROOT
ATOM      1  S   UNL     1       4.727   5.349  19.192  0.00  0.00    +0.000 S 
ENDROOT
BRANCH   1   2
ATOM      2  C   UNL     1       5.711   5.567  17.788  0.00  0.00    +0.000 A 
ATOM      3  N   UNL     1       6.722   6.391  17.651  0.00  0.00    +0.000 NA
ATOM      4  N   UNL     1       7.227   6.215  16.380  0.00  0.00    +0.000 NA
ATOM      5  C   UNL     1       6.492   5.305  15.767  0.00  0.00    +0.000 A 
ATOM      6  N   UNL     1       5.528   4.852  16.633  0.00  0.00    +0.000 N 
ATOM      7  C   UNL     1       4.569   3.796  16.434  0.00  0.00    +0.000 C 
BRANCH   5   8
ATOM      8  C   UNL     1       6.709   4.866  14.421  0.00  0.00    +0.000 A 
ATOM      9  C   UNL     1       6.077   3.834  13.743  0.00  0.00    +0.000 A 
ATOM     10  C   UNL     1       6.615   3.791  12.433  0.00  0.00    +0.000 A 
ATOM     11  C   UNL     1       7.564   4.779  12.383  0.00  0.00    +0.000 A 
ATOM     12  O   UNL     1       7.628   5.433  13.572  0.00  0.00    +0.000 OA
ENDBRANCH   5   8
ENDBRANCH   1   2
BRANCH   1  13
ATOM     13  C   UNL     1       3.071   5.722  18.540  0.00  0.00    +0.000 C 
BRANCH  13  14
ATOM     14  C   UNL     1       2.940   7.212  18.251  0.00  0.00    +0.000 C 
ATOM     15  O   UNL     1       3.520   7.760  17.312  0.00  0.00    +0.000 OA
BRANCH  14  19
ATOM     16  C   UNL     1       0.352   9.549  20.796  0.00  0.00    +0.000 A 
ATOM     17  C   UNL     1       0.946   8.374  21.251  0.00  0.00    +0.000 A 
ATOM     18  C   UNL     1       1.784   7.634  20.414  0.00  0.00    +0.000 A 
ATOM     19  C   UNL     1       2.031   8.051  19.097  0.00  0.00    +0.000 A 
ATOM     20  C   UNL     1       1.421   9.226  18.639  0.00  0.00    +0.000 A 
ATOM     21  C   UNL     1       0.581   9.966  19.486  0.00  0.00    +0.000 A 
BRANCH  16  23
ATOM     22  C   UNL     1      -0.307   9.771  23.056  0.00  0.00    +0.000 C 
ATOM     23  O   UNL     1      -0.452  10.182  21.701  0.00  0.00    +0.000 OA
ENDBRANCH  16  23
ENDBRANCH  14  19
ENDBRANCH  13  14
ENDBRANCH   1  13
TORSDOF 6
ENDMDL
MODEL 5
REMARK VINA RESULT:      -6.8      6.131      7.836
REMARK  Name = 
REMARK  8 active torsions:
REMARK  status: ('A' for Active; 'I' for Inactive)
REMARK    1  A    between atoms: C_1  and  O_2
REMARK    2  A    between atoms: O_2  and  C_3
REMARK    3  A    between atoms: C_6  and  C_7
REMARK    4  A    between atoms: C_7  and  C_9
REMARK    5  A    between atoms: C_9  and  S_10
REMARK    6  A    between atoms: S_10  and  C_11
REMARK    7  A    between atoms: C_14  and  C_15
REMARK    8  A    between atoms: N_20  and  C_21
REMARK                            x       y       z     vdW  Elec       q    Type
REMARK                         _______ _______ _______ _____ _____    ______ ____
ROOT
ATOM      1  S   UNL     1       2.886   5.532  20.118  0.00  0.00    +0.000 S 
ENDROOT
BRANCH   1   2
ATOM      2  C   UNL     1       2.439   6.940  19.223  0.00  0.00    +0.000 A 
ATOM      3  N   UNL     1       2.670   7.178  17.954  0.00  0.00    +0.000 NA
ATOM      4  N   UNL     1       2.119   8.406  17.659  0.00  0.00    +0.000 NA
ATOM      5  C   UNL     1       1.589   8.898  18.765  0.00  0.00    +0.000 A 
ATOM      6  N   UNL     1       1.754   7.989  19.779  0.00  0.00    +0.000 N 
ATOM      7  C   UNL     1       1.254   8.052  21.129  0.00  0.00    +0.000 C 
BRANCH   5   8
ATOM      8  C   UNL     1       0.934  10.169  18.850  0.00  0.00    +0.000 A 
ATOM      9  C   UNL     1      -0.352  10.499  18.453  0.00  0.00    +0.000 A 
ATOM     10  C   UNL     1      -0.553  11.869  18.753  0.00  0.00    +0.000 A 
ATOM     11  C   UNL     1       0.624  12.314  19.294  0.00  0.00    +0.000 A 
ATOM     12  O   UNL     1       1.526  11.299  19.359  0.00  0.00    +0.000 OA
ENDBRANCH   5   8
ENDBRANCH   1   2
BRANCH   1  13
ATOM     13  C   UNL     1       3.151   4.321  18.786  0.00  0.00    +0.000 C 
BRANCH  13  14
ATOM     14  C   UNL     1       4.622   3.936  18.706  0.00  0.00    +0.000 C 
ATOM     15  O   UNL     1       5.195   3.310  19.600  0.00  0.00    +0.000 OA
BRANCH  14  19
ATOM     16  C   UNL     1       6.768   4.914  15.090  0.00  0.00    +0.000 A 
ATOM     17  C   UNL     1       5.404   4.630  15.069  0.00  0.00    +0.000 A 
ATOM     18  C   UNL     1       4.727   4.320  16.250  0.00  0.00    +0.000 A 
ATOM     19  C   UNL     1       5.408   4.275  17.475  0.00  0.00    +0.000 A 
ATOM     20  C   UNL     1       6.781   4.548  17.491  0.00  0.00    +0.000 A 
ATOM     21  C   UNL     1       7.457   4.859  16.301  0.00  0.00    +0.000 A 
BRANCH  16  23
ATOM     22  C   UNL     1       6.994   4.298  12.819  0.00  0.00    +0.000 C 
ATOM     23  O   UNL     1       7.323   5.195  13.874  0.00  0.00    +0.000 OA
ENDBRANCH  16  23
ENDBRANCH  14  19
ENDBRANCH  13  14
ENDBRANCH   1  13
TORSDOF 6
ENDMDL
MODEL 6
REMARK VINA RESULT:      -6.7      5.906      7.355
REMARK  Name = 
REMARK  8 active torsions:
REMARK  status: ('A' for Active; 'I' for Inactive)
REMARK    1  A    between atoms: C_1  and  O_2
REMARK    2  A    between atoms: O_2  and  C_3
REMARK    3  A    between atoms: C_6  and  C_7
REMARK    4  A    between atoms: C_7  and  C_9
REMARK    5  A    between atoms: C_9  and  S_10
REMARK    6  A    between atoms: S_10  and  C_11
REMARK    7  A    between atoms: C_14  and  C_15
REMARK    8  A    between atoms: N_20  and  C_21
REMARK                            x       y       z     vdW  Elec       q    Type
REMARK                         _______ _______ _______ _____ _____    ______ ____
ROOT
ATOM      1  S   UNL     1       6.054   5.902  17.802  0.00  0.00    +0.000 S 
ENDROOT
BRANCH   1   2
ATOM      2  C   UNL     1       6.497   5.450  16.195  0.00  0.00    +0.000 A 
ATOM      3  N   UNL     1       7.556   5.841  15.526  0.00  0.00    +0.000 NA
ATOM      4  N   UNL     1       7.520   5.216  14.298  0.00  0.00    +0.000 NA
ATOM      5  C   UNL     1       6.425   4.480  14.240  0.00  0.00    +0.000 A 
ATOM      6  N   UNL     1       5.754   4.586  15.433  0.00  0.00    +0.000 N 
ATOM      7  C   UNL     1       4.569   3.887  15.859  0.00  0.00    +0.000 C 
BRANCH   5   8
ATOM      8  C   UNL     1       6.040   3.692  13.107  0.00  0.00    +0.000 A 
ATOM      9  C   UNL     1       6.811   2.793  12.387  0.00  0.00    +0.000 A 
ATOM     10  C   UNL     1       5.991   2.248  11.368  0.00  0.00    +0.000 A 
ATOM     11  C   UNL     1       4.771   2.857  11.500  0.00  0.00    +0.000 A 
ATOM     12  O   UNL     1       4.788   3.726  12.545  0.00  0.00    +0.000 OA
ENDBRANCH   5   8
ENDBRANCH   1   2
BRANCH   1  13
ATOM     13  C   UNL     1       4.686   7.061  17.493  0.00  0.00    +0.000 C 
BRANCH  13  14
ATOM     14  C   UNL     1       3.461   6.661  18.304  0.00  0.00    +0.000 C 
ATOM     15  O   UNL     1       3.269   5.507  18.693  0.00  0.00    +0.000 OA
BRANCH  14  19
ATOM     16  C   UNL     1       0.605   9.635  19.584  0.00  0.00    +0.000 A 
ATOM     17  C   UNL     1       1.087   8.667  20.463  0.00  0.00    +0.000 A 
ATOM     18  C   UNL     1       2.014   7.716  20.032  0.00  0.00    +0.000 A 
ATOM     19  C   UNL     1       2.465   7.708  18.703  0.00  0.00    +0.000 A 
ATOM     20  C   UNL     1       1.968   8.673  17.818  0.00  0.00    +0.000 A 
ATOM     21  C   UNL     1       1.037   9.626  18.258  0.00  0.00    +0.000 A 
BRANCH  16  23
ATOM     22  C   UNL     1      -0.340  11.801  19.530  0.00  0.00    +0.000 C 
ATOM     23  O   UNL     1      -0.303  10.505  20.117  0.00  0.00    +0.000 OA
ENDBRANCH  16  23
ENDBRANCH  14  19
ENDBRANCH  13  14
ENDBRANCH   1  13
TORSDOF 6
ENDMDL
MODEL 7
REMARK VINA RESULT:      -6.7      5.990      7.431
REMARK  Name = 
REMARK  8 active torsions:
REMARK  status: ('A' for Active; 'I' for Inactive)
REMARK    1  A    between atoms: C_1  and  O_2
REMARK    2  A    between atoms: O_2  and  C_3
REMARK    3  A    between atoms: C_6  and  C_7
REMARK    4  A    between atoms: C_7  and  C_9
REMARK    5  A    between atoms: C_9  and  S_10
REMARK    6  A    between atoms: S_10  and  C_11
REMARK    7  A    between atoms: C_14  and  C_15
REMARK    8  A    between atoms: N_20  and  C_21
REMARK                            x       y       z     vdW  Elec       q    Type
REMARK                         _______ _______ _______ _____ _____    ______ ____
ROOT
ATOM      1  S   UNL     1       5.945   5.889  17.800  0.00  0.00    +0.000 S 
ENDROOT
BRANCH   1   2
ATOM      2  C   UNL     1       6.411   5.440  16.198  0.00  0.00    +0.000 A 
ATOM      3  N   UNL     1       7.486   5.822  15.551  0.00  0.00    +0.000 NA
ATOM      4  N   UNL     1       7.465   5.204  14.318  0.00  0.00    +0.000 NA
ATOM      5  C   UNL     1       6.363   4.481  14.237  0.00  0.00    +0.000 A 
ATOM      6  N   UNL     1       5.673   4.588  15.419  0.00  0.00    +0.000 N 
ATOM      7  C   UNL     1       4.472   3.901  15.820  0.00  0.00    +0.000 C 
BRANCH   5   8
ATOM      8  C   UNL     1       5.989   3.704  13.094  0.00  0.00    +0.000 A 
ATOM      9  C   UNL     1       6.782   2.851  12.341  0.00  0.00    +0.000 A 
ATOM     10  C   UNL     1       5.966   2.296  11.324  0.00  0.00    +0.000 A 
ATOM     11  C   UNL     1       4.726   2.855  11.489  0.00  0.00    +0.000 A 
ATOM     12  O   UNL     1       4.727   3.701  12.552  0.00  0.00    +0.000 OA
ENDBRANCH   5   8
ENDBRANCH   1   2
BRANCH   1  13
ATOM     13  C   UNL     1       4.515   6.965  17.478  0.00  0.00    +0.000 C 
BRANCH  13  14
ATOM     14  C   UNL     1       3.359   6.599  18.399  0.00  0.00    +0.000 C 
ATOM     15  O   UNL     1       3.192   5.458  18.835  0.00  0.00    +0.000 OA
BRANCH  14  19
ATOM     16  C   UNL     1       0.606   9.712  19.569  0.00  0.00    +0.000 A 
ATOM     17  C   UNL     1       1.079   9.617  18.261  0.00  0.00    +0.000 A 
ATOM     18  C   UNL     1       1.966   8.599  17.901  0.00  0.00    +0.000 A 
ATOM     19  C   UNL     1       2.408   7.666  18.851  0.00  0.00    +0.000 A 
ATOM     20  C   UNL     1       1.941   7.773  20.167  0.00  0.00    +0.000 A 
ATOM     21  C   UNL     1       1.050   8.797  20.522  0.00  0.00    +0.000 A 
BRANCH  16  23
ATOM     22  C   UNL     1      -0.729  10.871  21.138  0.00  0.00    +0.000 C 
ATOM     23  O   UNL     1      -0.249  10.751  19.803  0.00  0.00    +0.000 OA
ENDBRANCH  16  23
ENDBRANCH  14  19
ENDBRANCH  13  14
ENDBRANCH   1  13
TORSDOF 6
ENDMDL
MODEL 8
REMARK VINA RESULT:      -6.7      5.677      8.047
REMARK  Name = 
REMARK  8 active torsions:
REMARK  status: ('A' for Active; 'I' for Inactive)
REMARK    1  A    between atoms: C_1  and  O_2
REMARK    2  A    between atoms: O_2  and  C_3
REMARK    3  A    between atoms: C_6  and  C_7
REMARK    4  A    between atoms: C_7  and  C_9
REMARK    5  A    between atoms: C_9  and  S_10
REMARK    6  A    between atoms: S_10  and  C_11
REMARK    7  A    between atoms: C_14  and  C_15
REMARK    8  A    between atoms: N_20  and  C_21
REMARK                            x       y       z     vdW  Elec       q    Type
REMARK                         _______ _______ _______ _____ _____    ______ ____
ROOT
ATOM      1  S   UNL     1       2.523   6.324  19.780  0.00  0.00    +0.000 S 
ENDROOT
BRANCH   1   2
ATOM      2  C   UNL     1       2.138   7.813  18.994  0.00  0.00    +0.000 A 
ATOM      3  N   UNL     1       2.424   8.154  17.760  0.00  0.00    +0.000 NA
ATOM      4  N   UNL     1       1.907   9.415  17.551  0.00  0.00    +0.000 NA
ATOM      5  C   UNL     1       1.342   9.821  18.674  0.00  0.00    +0.000 A 
ATOM      6  N   UNL     1       1.449   8.825  19.612  0.00  0.00    +0.000 N 
ATOM      7  C   UNL     1       0.896   8.783  20.941  0.00  0.00    +0.000 C 
BRANCH   5   8
ATOM      8  C   UNL     1       0.706  11.093  18.843  0.00  0.00    +0.000 A 
ATOM      9  C   UNL     1       1.218  12.234  19.441  0.00  0.00    +0.000 A 
ATOM     10  C   UNL     1       0.226  13.242  19.356  0.00  0.00    +0.000 A 
ATOM     11  C   UNL     1      -0.848  12.663  18.734  0.00  0.00    +0.000 A 
ATOM     12  O   UNL     1      -0.570  11.370  18.419  0.00  0.00    +0.000 OA
ENDBRANCH   5   8
ENDBRANCH   1   2
BRANCH   1  13
ATOM     13  C   UNL     1       2.424   5.145  18.399  0.00  0.00    +0.000 C 
BRANCH  13  14
ATOM     14  C   UNL     1       3.683   4.288  18.344  0.00  0.00    +0.000 C 
ATOM     15  O   UNL     1       3.817   3.261  19.013  0.00  0.00    +0.000 OA
BRANCH  14  19
ATOM     16  C   UNL     1       6.822   5.272  15.548  0.00  0.00    +0.000 A 
ATOM     17  C   UNL     1       5.934   4.226  15.303  0.00  0.00    +0.000 A 
ATOM     18  C   UNL     1       4.922   3.926  16.218  0.00  0.00    +0.000 A 
ATOM     19  C   UNL     1       4.790   4.661  17.405  0.00  0.00    +0.000 A 
ATOM     20  C   UNL     1       5.692   5.702  17.655  0.00  0.00    +0.000 A 
ATOM     21  C   UNL     1       6.706   6.000  16.732  0.00  0.00    +0.000 A 
BRANCH  16  23
ATOM     22  C   UNL     1       7.514   4.858  13.326  0.00  0.00    +0.000 C 
ATOM     23  O   UNL     1       7.773   5.465  14.587  0.00  0.00    +0.000 OA
ENDBRANCH  16  23
ENDBRANCH  14  19
ENDBRANCH  13  14
ENDBRANCH   1  13
TORSDOF 6
ENDMDL
MODEL 9
REMARK VINA RESULT:      -6.7      5.877      7.477
REMARK  Name = 
REMARK  8 active torsions:
REMARK  status: ('A' for Active; 'I' for Inactive)
REMARK    1  A    between atoms: C_1  and  O_2
REMARK    2  A    between atoms: O_2  and  C_3
REMARK    3  A    between atoms: C_6  and  C_7
REMARK    4  A    between atoms: C_7  and  C_9
REMARK    5  A    between atoms: C_9  and  S_10
REMARK    6  A    between atoms: S_10  and  C_11
REMARK    7  A    between atoms: C_14  and  C_15
REMARK    8  A    between atoms: N_20  and  C_21
REMARK                            x       y       z     vdW  Elec       q    Type
REMARK                         _______ _______ _______ _____ _____    ______ ____
ROOT
ATOM      1  S   UNL     1       4.969   5.334  19.239  0.00  0.00    +0.000 S 
ENDROOT
BRANCH   1   2
ATOM      2  C   UNL     1       5.874   5.558  17.785  0.00  0.00    +0.000 A 
ATOM      3  N   UNL     1       6.845   6.417  17.583  0.00  0.00    +0.000 NA
ATOM      4  N   UNL     1       7.294   6.233  16.292  0.00  0.00    +0.000 NA
ATOM      5  C   UNL     1       6.565   5.284  15.732  0.00  0.00    +0.000 A 
ATOM      6  N   UNL     1       5.663   4.814  16.654  0.00  0.00    +0.000 N 
ATOM      7  C   UNL     1       4.736   3.720  16.522  0.00  0.00    +0.000 C 
BRANCH   5   8
ATOM      8  C   UNL     1       6.733   4.826  14.386  0.00  0.00    +0.000 A 
ATOM      9  C   UNL     1       6.067   3.794  13.742  0.00  0.00    +0.000 A 
ATOM     10  C   UNL     1       6.563   3.728  12.416  0.00  0.00    +0.000 A 
ATOM     11  C   UNL     1       7.520   4.703  12.322  0.00  0.00    +0.000 A 
ATOM     12  O   UNL     1       7.630   5.371  13.501  0.00  0.00    +0.000 OA
ENDBRANCH   5   8
ENDBRANCH   1   2
BRANCH   1  13
ATOM     13  C   UNL     1       3.266   5.591  18.654  0.00  0.00    +0.000 C 
BRANCH  13  14
ATOM     14  C   UNL     1       3.045   7.054  18.295  0.00  0.00    +0.000 C 
ATOM     15  O   UNL     1       3.552   7.579  17.302  0.00  0.00    +0.000 OA
BRANCH  14  19
ATOM     16  C   UNL     1       0.396   9.548  20.621  0.00  0.00    +0.000 A 
ATOM     17  C   UNL     1       0.746   9.883  19.314  0.00  0.00    +0.000 A 
ATOM     18  C   UNL     1       1.601   9.061  18.576  0.00  0.00    +0.000 A 
ATOM     19  C   UNL     1       2.134   7.893  19.141  0.00  0.00    +0.000 A 
ATOM     20  C   UNL     1       1.792   7.566  20.459  0.00  0.00    +0.000 A 
ATOM     21  C   UNL     1       0.931   8.395  21.195  0.00  0.00    +0.000 A 
BRANCH  16  23
ATOM     22  C   UNL     1      -0.163  11.809  21.022  0.00  0.00    +0.000 C 
ATOM     23  O   UNL     1      -0.439  10.431  21.244  0.00  0.00    +0.000 OA
ENDBRANCH  16  23
ENDBRANCH  14  19
ENDBRANCH  13  14
ENDBRANCH   1  13
TORSDOF 6
ENDMDL
