MODEL 1
REMARK VINA RESULT:      -7.2      0.000      0.000
REMARK  Name = 
REMARK  8 active torsions:
REMARK  status: ('A' for Active; 'I' for Inactive)
REMARK    1  A    between atoms: C_1  and  O_2
REMARK    2  A    between atoms: O_2  and  C_3
REMARK    3  A    between atoms: C_6  and  C_7
REMARK    4  A    between atoms: C_11  and  C_12
REMARK    5  A    between atoms: C_12  and  C_13
REMARK    6  A    between atoms: C_13  and  C_14
REMARK    7  A    between atoms: C_14  and  O_15
REMARK    8  A    between atoms: C_20  and  O_21
REMARK                            x       y       z     vdW  Elec       q    Type
REMARK                         _______ _______ _______ _____ _____    ______ ____
ROOT
ATOM      1  C   UNL     1       2.969   7.193  18.137  0.00  0.00    +0.000 A 
ATOM      2  C   UNL     1       2.390   8.380  17.747  0.00  0.00    +0.000 A 
ATOM      3  C   UNL     1       1.631   8.837  18.848  0.00  0.00    +0.000 A 
ATOM      4  C   UNL     1       0.797   9.935  19.095  0.00  0.00    +0.000 A 
ATOM      5  C   UNL     1       0.194  10.077  20.358  0.00  0.00    +0.000 A 
ATOM      6  C   UNL     1       0.452   9.124  21.362  0.00  0.00    +0.000 A 
ATOM      7  C   UNL     1       1.275   8.011  21.129  0.00  0.00    +0.000 A 
ATOM      8  C   UNL     1       1.826   7.909  19.860  0.00  0.00    +0.000 A 
ATOM      9  O   UNL     1       2.621   6.898  19.424  0.00  0.00    +0.000 OA
ENDROOT
BRANCH   1  13
ATOM     10  C   UNL     1       5.351   4.375  15.998  0.00  0.00    +0.000 A 
ATOM     11  C   UNL     1       5.594   5.746  15.892  0.00  0.00    +0.000 A 
ATOM     12  C   UNL     1       4.828   6.662  16.613  0.00  0.00    +0.000 A 
ATOM     13  C   UNL     1       3.806   6.221  17.462  0.00  0.00    +0.000 A 
ATOM     14  C   UNL     1       3.584   4.845  17.580  0.00  0.00    +0.000 A 
ATOM     15  C   UNL     1       4.341   3.927  16.856  0.00  0.00    +0.000 A 
BRANCH  10  17
ATOM     16  C   UNL     1       6.281   3.943  13.864  0.00  0.00    +0.000 C 
ATOM     17  O   UNL     1       6.154   3.581  15.233  0.00  0.00    +0.000 OA
ENDBRANCH  10  17
BRANCH  14  18
ATOM     18  O   UNL     1       2.606   4.313  18.388  0.00  0.00    +0.000 OA
ATOM     19  H   UNL     1       1.865   4.037  17.811  0.00  0.00    +0.000 HD
ENDBRANCH  14  18
ENDBRANCH   1  13
BRANCH   5  20
ATOM     20  C   UNL     1      -0.710  11.267  20.593  0.00  0.00    +0.000 C 
BRANCH  20  21
ATOM     21  C   UNL     1      -0.783  12.254  19.421  0.00  0.00    +0.000 C 
BRANCH  21  22
ATOM     22  C   UNL     1      -2.001  12.029  18.538  0.00  0.00    +0.000 C 
BRANCH  22  23
ATOM     23  O   UNL     1      -1.649  12.269  17.181  0.00  0.00    +0.000 OA
ATOM     24  H   UNL     1      -1.176  13.117  17.144  0.00  0.00    +0.000 HD
ENDBRANCH  22  23
ENDBRANCH  21  22
ENDBRANCH  20  21
ENDBRANCH   5  20
TORSDOF 7
ENDMDL
MODEL 2
REMARK VINA RESULT:      -7.1      1.393      8.040
REMARK  Name = 
REMARK  8 active torsions:
REMARK  status: ('A' for Active; 'I' for Inactive)
REMARK    1  A    between atoms: C_1  and  O_2
REMARK    2  A    between atoms: O_2  and  C_3
REMARK    3  A    between atoms: C_6  and  C_7
REMARK    4  A    between atoms: C_11  and  C_12
REMARK    5  A    between atoms: C_12  and  C_13
REMARK    6  A    between atoms: C_13  and  C_14
REMARK    7  A    between atoms: C_14  and  O_15
REMARK    8  A    between atoms: C_20  and  O_21
REMARK                            x       y       z     vdW  Elec       q    Type
REMARK                         _______ _______ _______ _____ _____    ______ ____
ROOT
ATOM      1  C   UNL     1       2.623   7.518  18.356  0.00  0.00    +0.000 A 
ATOM      2  C   UNL     1       3.695   7.715  17.516  0.00  0.00    +0.000 A 
ATOM      3  C   UNL     1       4.171   6.432  17.162  0.00  0.00    +0.000 A 
ATOM      4  C   UNL     1       5.227   5.942  16.383  0.00  0.00    +0.000 A 
ATOM      5  C   UNL     1       5.395   4.552  16.241  0.00  0.00    +0.000 A 
ATOM      6  C   UNL     1       4.490   3.675  16.868  0.00  0.00    +0.000 A 
ATOM      7  C   UNL     1       3.434   4.147  17.663  0.00  0.00    +0.000 A 
ATOM      8  C   UNL     1       3.327   5.525  17.786  0.00  0.00    +0.000 A 
ATOM      9  O   UNL     1       2.399   6.181  18.529  0.00  0.00    +0.000 OA
ENDROOT
BRANCH   1  13
ATOM     10  C   UNL     1       0.185  10.272  20.515  0.00  0.00    +0.000 A 
ATOM     11  C   UNL     1       0.443  10.456  19.155  0.00  0.00    +0.000 A 
ATOM     12  C   UNL     1       1.220   9.538  18.448  0.00  0.00    +0.000 A 
ATOM     13  C   UNL     1       1.749   8.412  19.090  0.00  0.00    +0.000 A 
ATOM     14  C   UNL     1       1.468   8.224  20.447  0.00  0.00    +0.000 A 
ATOM     15  C   UNL     1       0.699   9.141  21.159  0.00  0.00    +0.000 A 
BRANCH  10  17
ATOM     16  C   UNL     1      -1.246  12.135  20.220  0.00  0.00    +0.000 C 
ATOM     17  O   UNL     1      -0.573  11.243  21.100  0.00  0.00    +0.000 OA
ENDBRANCH  10  17
BRANCH  14  18
ATOM     18  O   UNL     1       1.940   7.149  21.165  0.00  0.00    +0.000 OA
ATOM     19  H   UNL     1       1.237   6.468  21.172  0.00  0.00    +0.000 HD
ENDBRANCH  14  18
ENDBRANCH   1  13
BRANCH   5  20
ATOM     20  C   UNL     1       6.550   4.050  15.403  0.00  0.00    +0.000 C 
BRANCH  20  21
ATOM     21  C   UNL     1       6.248   3.939  13.903  0.00  0.00    +0.000 C 
BRANCH  21  22
ATOM     22  C   UNL     1       7.206   4.753  13.048  0.00  0.00    +0.000 C 
BRANCH  22  23
ATOM     23  O   UNL     1       7.976   5.605  13.886  0.00  0.00    +0.000 OA
ATOM     24  H   UNL     1       8.888   5.607  13.547  0.00  0.00    +0.000 HD
ENDBRANCH  22  23
ENDBRANCH  21  22
ENDBRANCH  20  21
ENDBRANCH   5  20
TORSDOF 7
ENDMDL
MODEL 3
REMARK VINA RESULT:      -7.0      1.759      8.237
REMARK  Name = 
REMARK  8 active torsions:
REMARK  status: ('A' for Active; 'I' for Inactive)
REMARK    1  A    between atoms: C_1  and  O_2
REMARK    2  A    between atoms: O_2  and  C_3
REMARK    3  A    between atoms: C_6  and  C_7
REMARK    4  A    between atoms: C_11  and  C_12
REMARK    5  A    between atoms: C_12  and  C_13
REMARK    6  A    between atoms: C_13  and  C_14
REMARK    7  A    between atoms: C_14  and  O_15
REMARK    8  A    between atoms: C_20  and  O_21
REMARK                            x       y       z     vdW  Elec       q    Type
REMARK                         _______ _______ _______ _____ _____    ______ ____
ROOT
ATOM      1  C   UNL     1       2.596   7.597  18.438  0.00  0.00    +0.000 A 
ATOM      2  C   UNL     1       3.507   7.971  17.476  0.00  0.00    +0.000 A 
ATOM      3  C   UNL     1       4.082   6.778  16.981  0.00  0.00    +0.000 A 
ATOM      4  C   UNL     1       5.070   6.466  16.039  0.00  0.00    +0.000 A 
ATOM      5  C   UNL     1       5.387   5.118  15.789  0.00  0.00    +0.000 A 
ATOM      6  C   UNL     1       4.694   4.102  16.476  0.00  0.00    +0.000 A 
ATOM      7  C   UNL     1       3.711   4.397  17.433  0.00  0.00    +0.000 A 
ATOM      8  C   UNL     1       3.453   5.742  17.656  0.00  0.00    +0.000 A 
ATOM      9  O   UNL     1       2.565   6.237  18.556  0.00  0.00    +0.000 OA
ENDROOT
BRANCH   1  13
ATOM     10  C   UNL     1       0.183   9.893  21.102  0.00  0.00    +0.000 A 
ATOM     11  C   UNL     1       0.407  10.318  19.791  0.00  0.00    +0.000 A 
ATOM     12  C   UNL     1       1.177   9.550  18.916  0.00  0.00    +0.000 A 
ATOM     13  C   UNL     1       1.731   8.336  19.337  0.00  0.00    +0.000 A 
ATOM     14  C   UNL     1       1.482   7.907  20.645  0.00  0.00    +0.000 A 
ATOM     15  C   UNL     1       0.722   8.672  21.524  0.00  0.00    +0.000 A 
BRANCH  10  17
ATOM     16  C   UNL     1      -0.818  10.323  23.204  0.00  0.00    +0.000 C 
ATOM     17  O   UNL     1      -0.571  10.734  21.865  0.00  0.00    +0.000 OA
ENDBRANCH  10  17
BRANCH  14  18
ATOM     18  O   UNL     1       1.981   6.728  21.151  0.00  0.00    +0.000 OA
ATOM     19  H   UNL     1       1.680   6.655  22.079  0.00  0.00    +0.000 HD
ENDBRANCH  14  18
ENDBRANCH   1  13
BRANCH   5  20
ATOM     20  C   UNL     1       6.465   4.810  14.773  0.00  0.00    +0.000 C 
BRANCH  20  21
ATOM     21  C   UNL     1       6.243   3.516  13.980  0.00  0.00    +0.000 C 
BRANCH  21  22
ATOM     22  C   UNL     1       6.398   3.712  12.481  0.00  0.00    +0.000 C 
BRANCH  22  23
ATOM     23  O   UNL     1       6.733   2.469  11.876  0.00  0.00    +0.000 OA
ATOM     24  H   UNL     1       6.242   1.771  12.342  0.00  0.00    +0.000 HD
ENDBRANCH  22  23
ENDBRANCH  21  22
ENDBRANCH  20  21
ENDBRANCH   5  20
TORSDOF 7
ENDMDL
MODEL 4
REMARK VINA RESULT:      -7.0      1.650      8.183
REMARK  Name = 
REMARK  8 active torsions:
REMARK  status: ('A' for Active; 'I' for Inactive)
REMARK    1  A    between atoms: C_1  and  O_2
REMARK    2  A    between atoms: O_2  and  C_3
REMARK    3  A    between atoms: C_6  and  C_7
REMARK    4  A    between atoms: C_11  and  C_12
REMARK    5  A    between atoms: C_12  and  C_13
REMARK    6  A    between atoms: C_13  and  C_14
REMARK    7  A    between atoms: C_14  and  O_15
REMARK    8  A    between atoms: C_20  and  O_21
REMARK                            x       y       z     vdW  Elec       q    Type
REMARK                         _______ _______ _______ _____ _____    ______ ____
ROOT
ATOM      1  C   UNL     1       2.571   7.457  18.590  0.00  0.00    +0.000 A 
ATOM      2  C   UNL     1       3.583   7.584  17.666  0.00  0.00    +0.000 A 
ATOM      3  C   UNL     1       3.968   6.272  17.308  0.00  0.00    +0.000 A 
ATOM      4  C   UNL     1       4.936   5.714  16.463  0.00  0.00    +0.000 A 
ATOM      5  C   UNL     1       5.027   4.315  16.344  0.00  0.00    +0.000 A 
ATOM      6  C   UNL     1       4.132   3.497  17.060  0.00  0.00    +0.000 A 
ATOM      7  C   UNL     1       3.165   4.037  17.921  0.00  0.00    +0.000 A 
ATOM      8  C   UNL     1       3.133   5.421  18.018  0.00  0.00    +0.000 A 
ATOM      9  O   UNL     1       2.297   6.137  18.813  0.00  0.00    +0.000 OA
ENDROOT
BRANCH   1  13
ATOM     10  C   UNL     1       0.163  10.143  20.866  0.00  0.00    +0.000 A 
ATOM     11  C   UNL     1       0.663   8.970  21.435  0.00  0.00    +0.000 A 
ATOM     12  C   UNL     1       1.470   8.107  20.693  0.00  0.00    +0.000 A 
ATOM     13  C   UNL     1       1.800   8.408  19.367  0.00  0.00    +0.000 A 
ATOM     14  C   UNL     1       1.314   9.597  18.812  0.00  0.00    +0.000 A 
ATOM     15  C   UNL     1       0.502  10.457  19.545  0.00  0.00    +0.000 A 
BRANCH  10  17
ATOM     16  C   UNL     1      -0.828  10.399  23.001  0.00  0.00    +0.000 C 
ATOM     17  O   UNL     1      -0.626  10.897  21.684  0.00  0.00    +0.000 OA
ENDBRANCH  10  17
BRANCH  14  18
ATOM     18  O   UNL     1       1.584   9.981  17.518  0.00  0.00    +0.000 OA
ATOM     19  H   UNL     1       2.091   9.257  17.096  0.00  0.00    +0.000 HD
ENDBRANCH  14  18
ENDBRANCH   1  13
BRANCH   5  20
ATOM     20  C   UNL     1       6.088   3.740  15.432  0.00  0.00    +0.000 C 
BRANCH  20  21
ATOM     21  C   UNL     1       6.778   4.769  14.528  0.00  0.00    +0.000 C 
BRANCH  21  22
ATOM     22  C   UNL     1       6.832   4.332  13.073  0.00  0.00    +0.000 C 
BRANCH  22  23
ATOM     23  O   UNL     1       6.272   3.030  12.952  0.00  0.00    +0.000 OA
ATOM     24  H   UNL     1       6.994   2.416  12.739  0.00  0.00    +0.000 HD
ENDBRANCH  22  23
ENDBRANCH  21  22
ENDBRANCH  20  21
ENDBRANCH   5  20
TORSDOF 7
ENDMDL
MODEL 5
REMARK VINA RESULT:      -7.0      6.206      9.285
REMARK  Name = 
REMARK  8 active torsions:
REMARK  status: ('A' for Active; 'I' for Inactive)
REMARK    1  A    between atoms: C_1  and  O_2
REMARK    2  A    between atoms: O_2  and  C_3
REMARK    3  A    between atoms: C_6  and  C_7
REMARK    4  A    between atoms: C_11  and  C_12
REMARK    5  A    between atoms: C_12  and  C_13
REMARK    6  A    between atoms: C_13  and  C_14
REMARK    7  A    between atoms: C_14  and  O_15
REMARK    8  A    between atoms: C_20  and  O_21
REMARK                            x       y       z     vdW  Elec       q    Type
REMARK                         _______ _______ _______ _____ _____    ______ ____
ROOT
ATOM      1  C   UNL     1       8.681   9.471  18.493  0.00  0.00    +0.000 A 
ATOM      2  C   UNL     1       7.780   9.207  17.487  0.00  0.00    +0.000 A 
ATOM      3  C   UNL     1       7.459   7.834  17.584  0.00  0.00    +0.000 A 
ATOM      4  C   UNL     1       6.649   6.947  16.862  0.00  0.00    +0.000 A 
ATOM      5  C   UNL     1       6.560   5.603  17.269  0.00  0.00    +0.000 A 
ATOM      6  C   UNL     1       7.271   5.173  18.406  0.00  0.00    +0.000 A 
ATOM      7  C   UNL     1       8.097   6.044  19.134  0.00  0.00    +0.000 A 
ATOM      8  C   UNL     1       8.165   7.352  18.677  0.00  0.00    +0.000 A 
ATOM      9  O   UNL     1       8.924   8.339  19.218  0.00  0.00    +0.000 OA
ENDROOT
BRANCH   1  13
ATOM     10  C   UNL     1      11.003  12.871  19.608  0.00  0.00    +0.000 A 
ATOM     11  C   UNL     1      10.751  12.583  18.265  0.00  0.00    +0.000 A 
ATOM     12  C   UNL     1       9.970  11.484  17.907  0.00  0.00    +0.000 A 
ATOM     13  C   UNL     1       9.418  10.654  18.890  0.00  0.00    +0.000 A 
ATOM     14  C   UNL     1       9.657  10.963  20.233  0.00  0.00    +0.000 A 
ATOM     15  C   UNL     1      10.442  12.054  20.596  0.00  0.00    +0.000 A 
BRANCH  10  17
ATOM     16  C   UNL     1      12.329  14.598  18.681  0.00  0.00    +0.000 C 
ATOM     17  O   UNL     1      11.791  13.960  19.832  0.00  0.00    +0.000 OA
ENDBRANCH  10  17
BRANCH  14  18
ATOM     18  O   UNL     1       9.157  10.209  21.272  0.00  0.00    +0.000 OA
ATOM     19  H   UNL     1       8.182  10.194  21.182  0.00  0.00    +0.000 HD
ENDBRANCH  14  18
ENDBRANCH   1  13
BRANCH   5  20
ATOM     20  C   UNL     1       5.687   4.666  16.465  0.00  0.00    +0.000 C 
BRANCH  20  21
ATOM     21  C   UNL     1       6.419   3.919  15.342  0.00  0.00    +0.000 C 
BRANCH  21  22
ATOM     22  C   UNL     1       5.764   4.114  13.984  0.00  0.00    +0.000 C 
BRANCH  22  23
ATOM     23  O   UNL     1       6.272   3.145  13.074  0.00  0.00    +0.000 OA
ATOM     24  H   UNL     1       7.222   3.318  12.958  0.00  0.00    +0.000 HD
ENDBRANCH  22  23
ENDBRANCH  21  22
ENDBRANCH  20  21
ENDBRANCH   5  20
TORSDOF 7
ENDMDL
MODEL 6
REMARK VINA RESULT:      -7.0      1.579      8.089
REMARK  Name = 
REMARK  8 active torsions:
REMARK  status: ('A' for Active; 'I' for Inactive)
REMARK    1  A    between atoms: C_1  and  O_2
REMARK    2  A    between atoms: O_2  and  C_3
REMARK    3  A    between atoms: C_6  and  C_7
REMARK    4  A    between atoms: C_11  and  C_12
REMARK    5  A    between atoms: C_12  and  C_13
REMARK    6  A    between atoms: C_13  and  C_14
REMARK    7  A    between atoms: C_14  and  O_15
REMARK    8  A    between atoms: C_20  and  O_21
REMARK                            x       y       z     vdW  Elec       q    Type
REMARK                         _______ _______ _______ _____ _____    ______ ____
ROOT
ATOM      1  C   UNL     1       2.072   8.038  19.030  0.00  0.00    +0.000 A 
ATOM      2  C   UNL     1       2.857   8.058  17.900  0.00  0.00    +0.000 A 
ATOM      3  C   UNL     1       3.546   6.824  17.867  0.00  0.00    +0.000 A 
ATOM      4  C   UNL     1       4.499   6.238  17.023  0.00  0.00    +0.000 A 
ATOM      5  C   UNL     1       4.970   4.943  17.306  0.00  0.00    +0.000 A 
ATOM      6  C   UNL     1       4.464   4.247  18.420  0.00  0.00    +0.000 A 
ATOM      7  C   UNL     1       3.519   4.823  19.284  0.00  0.00    +0.000 A 
ATOM      8  C   UNL     1       3.106   6.110  18.972  0.00  0.00    +0.000 A 
ATOM      9  O   UNL     1       2.226   6.852  19.691  0.00  0.00    +0.000 OA
ENDROOT
BRANCH   1  13
ATOM     10  C   UNL     1      -0.430  11.007  20.796  0.00  0.00    +0.000 A 
ATOM     11  C   UNL     1      -0.363  10.857  19.410  0.00  0.00    +0.000 A 
ATOM     12  C   UNL     1       0.438   9.868  18.838  0.00  0.00    +0.000 A 
ATOM     13  C   UNL     1       1.183   9.002  19.647  0.00  0.00    +0.000 A 
ATOM     14  C   UNL     1       1.092   9.144  21.036  0.00  0.00    +0.000 A 
ATOM     15  C   UNL     1       0.301  10.134  21.611  0.00  0.00    +0.000 A 
BRANCH  10  17
ATOM     16  C   UNL     1      -1.209  12.282  22.632  0.00  0.00    +0.000 C 
ATOM     17  O   UNL     1      -1.233  12.017  21.235  0.00  0.00    +0.000 OA
ENDBRANCH  10  17
BRANCH  14  18
ATOM     18  O   UNL     1       1.784   8.341  21.914  0.00  0.00    +0.000 OA
ATOM     19  H   UNL     1       2.580   8.013  21.448  0.00  0.00    +0.000 HD
ENDBRANCH  14  18
ENDBRANCH   1  13
BRANCH   5  20
ATOM     20  C   UNL     1       6.006   4.339  16.383  0.00  0.00    +0.000 C 
BRANCH  20  21
ATOM     21  C   UNL     1       5.595   4.293  14.906  0.00  0.00    +0.000 C 
BRANCH  21  22
ATOM     22  C   UNL     1       6.747   4.608  13.966  0.00  0.00    +0.000 C 
BRANCH  22  23
ATOM     23  O   UNL     1       7.713   5.395  14.651  0.00  0.00    +0.000 OA
ATOM     24  H   UNL     1       7.248   5.901  15.339  0.00  0.00    +0.000 HD
ENDBRANCH  22  23
ENDBRANCH  21  22
ENDBRANCH  20  21
ENDBRANCH   5  20
TORSDOF 7
ENDMDL
MODEL 7
REMARK VINA RESULT:      -6.9      6.220      8.942
REMARK  Name = 
REMARK  8 active torsions:
REMARK  status: ('A' for Active; 'I' for Inactive)
REMARK    1  A    between atoms: C_1  and  O_2
REMARK    2  A    between atoms: O_2  and  C_3
REMARK    3  A    between atoms: C_6  and  C_7
REMARK    4  A    between atoms: C_11  and  C_12
REMARK    5  A    between atoms: C_12  and  C_13
REMARK    6  A    between atoms: C_13  and  C_14
REMARK    7  A    between atoms: C_14  and  O_15
REMARK    8  A    between atoms: C_20  and  O_21
REMARK                            x       y       z     vdW  Elec       q    Type
REMARK                         _______ _______ _______ _____ _____    ______ ____
ROOT
ATOM      1  C   UNL     1       8.717   9.429  18.473  0.00  0.00    +0.000 A 
ATOM      2  C   UNL     1       7.734   9.222  17.532  0.00  0.00    +0.000 A 
ATOM      3  C   UNL     1       7.375   7.858  17.619  0.00  0.00    +0.000 A 
ATOM      4  C   UNL     1       6.484   7.017  16.938  0.00  0.00    +0.000 A 
ATOM      5  C   UNL     1       6.382   5.666  17.316  0.00  0.00    +0.000 A 
ATOM      6  C   UNL     1       7.162   5.182  18.384  0.00  0.00    +0.000 A 
ATOM      7  C   UNL     1       8.069   6.006  19.069  0.00  0.00    +0.000 A 
ATOM      8  C   UNL     1       8.145   7.323  18.641  0.00  0.00    +0.000 A 
ATOM      9  O   UNL     1       8.976   8.270  19.148  0.00  0.00    +0.000 OA
ENDROOT
BRANCH   1  13
ATOM     10  C   UNL     1      11.232  12.712  19.519  0.00  0.00    +0.000 A 
ATOM     11  C   UNL     1      11.021  12.366  18.183  0.00  0.00    +0.000 A 
ATOM     12  C   UNL     1      10.178  11.307  17.845  0.00  0.00    +0.000 A 
ATOM     13  C   UNL     1       9.521  10.577  18.843  0.00  0.00    +0.000 A 
ATOM     14  C   UNL     1       9.719  10.944  20.178  0.00  0.00    +0.000 A 
ATOM     15  C   UNL     1      10.566  11.995  20.520  0.00  0.00    +0.000 A 
BRANCH  10  17
ATOM     16  C   UNL     1      12.052  14.799  18.762  0.00  0.00    +0.000 C 
ATOM     17  O   UNL     1      12.088  13.753  19.724  0.00  0.00    +0.000 OA
ENDBRANCH  10  17
BRANCH  14  18
ATOM     18  O   UNL     1       9.117  10.290  21.228  0.00  0.00    +0.000 OA
ATOM     19  H   UNL     1       9.733   9.591  21.531  0.00  0.00    +0.000 HD
ENDBRANCH  14  18
ENDBRANCH   1  13
BRANCH   5  20
ATOM     20  C   UNL     1       5.419   4.779  16.558  0.00  0.00    +0.000 C 
BRANCH  20  21
ATOM     21  C   UNL     1       3.996   4.749  17.128  0.00  0.00    +0.000 C 
BRANCH  21  22
ATOM     22  C   UNL     1       3.817   3.694  18.207  0.00  0.00    +0.000 C 
BRANCH  22  23
ATOM     23  O   UNL     1       4.342   2.455  17.746  0.00  0.00    +0.000 OA
ATOM     24  H   UNL     1       4.318   1.829  18.489  0.00  0.00    +0.000 HD
ENDBRANCH  22  23
ENDBRANCH  21  22
ENDBRANCH  20  21
ENDBRANCH   5  20
TORSDOF 7
ENDMDL
MODEL 8
REMARK VINA RESULT:      -6.9      1.488      1.700
REMARK  Name = 
REMARK  8 active torsions:
REMARK  status: ('A' for Active; 'I' for Inactive)
REMARK    1  A    between atoms: C_1  and  O_2
REMARK    2  A    between atoms: O_2  and  C_3
REMARK    3  A    between atoms: C_6  and  C_7
REMARK    4  A    between atoms: C_11  and  C_12
REMARK    5  A    between atoms: C_12  and  C_13
REMARK    6  A    between atoms: C_13  and  C_14
REMARK    7  A    between atoms: C_14  and  O_15
REMARK    8  A    between atoms: C_20  and  O_21
REMARK                            x       y       z     vdW  Elec       q    Type
REMARK                         _______ _______ _______ _____ _____    ______ ____
ROOT
ATOM      1  C   UNL     1       2.848   7.221  18.348  0.00  0.00    +0.000 A 
ATOM      2  C   UNL     1       2.237   8.396  17.972  0.00  0.00    +0.000 A 
ATOM      3  C   UNL     1       1.501   8.844  19.092  0.00  0.00    +0.000 A 
ATOM      4  C   UNL     1       0.655   9.928  19.358  0.00  0.00    +0.000 A 
ATOM      5  C   UNL     1       0.086  10.064  20.638  0.00  0.00    +0.000 A 
ATOM      6  C   UNL     1       0.389   9.119  21.637  0.00  0.00    +0.000 A 
ATOM      7  C   UNL     1       1.224   8.020  21.385  0.00  0.00    +0.000 A 
ATOM      8  C   UNL     1       1.741   7.923  20.101  0.00  0.00    +0.000 A 
ATOM      9  O   UNL     1       2.541   6.924  19.646  0.00  0.00    +0.000 OA
ENDROOT
BRANCH   1  13
ATOM     10  C   UNL     1       5.235   4.453  16.149  0.00  0.00    +0.000 A 
ATOM     11  C   UNL     1       5.540   5.816  16.157  0.00  0.00    +0.000 A 
ATOM     12  C   UNL     1       4.770   6.713  16.898  0.00  0.00    +0.000 A 
ATOM     13  C   UNL     1       3.683   6.260  17.654  0.00  0.00    +0.000 A 
ATOM     14  C   UNL     1       3.398   4.891  17.659  0.00  0.00    +0.000 A 
ATOM     15  C   UNL     1       4.158   3.992  16.915  0.00  0.00    +0.000 A 
BRANCH  10  17
ATOM     16  C   UNL     1       6.093   3.997  13.991  0.00  0.00    +0.000 C 
ATOM     17  O   UNL     1       6.048   3.679  15.376  0.00  0.00    +0.000 OA
ENDBRANCH  10  17
BRANCH  14  18
ATOM     18  O   UNL     1       2.353   4.349  18.372  0.00  0.00    +0.000 OA
ATOM     19  H   UNL     1       1.693   5.059  18.513  0.00  0.00    +0.000 HD
ENDBRANCH  14  18
ENDBRANCH   1  13
BRANCH   5  20
ATOM     20  C   UNL     1      -0.832  11.238  20.894  0.00  0.00    +0.000 C 
BRANCH  20  21
ATOM     21  C   UNL     1      -0.954  11.642  22.369  0.00  0.00    +0.000 C 
BRANCH  21  22
ATOM     22  C   UNL     1      -2.050  12.669  22.608  0.00  0.00    +0.000 C 
BRANCH  22  23
ATOM     23  O   UNL     1      -3.249  12.000  22.980  0.00  0.00    +0.000 OA
ATOM     24  H   UNL     1      -3.021  11.077  23.183  0.00  0.00    +0.000 HD
ENDBRANCH  22  23
ENDBRANCH  21  22
ENDBRANCH  20  21
ENDBRANCH   5  20
TORSDOF 7
ENDMDL
MODEL 9
REMARK VINA RESULT:      -6.9      1.306      1.460
REMARK  Name = 
REMARK  8 active torsions:
REMARK  status: ('A' for Active; 'I' for Inactive)
REMARK    1  A    between atoms: C_1  and  O_2
REMARK    2  A    between atoms: O_2  and  C_3
REMARK    3  A    between atoms: C_6  and  C_7
REMARK    4  A    between atoms: C_11  and  C_12
REMARK    5  A    between atoms: C_12  and  C_13
REMARK    6  A    between atoms: C_13  and  C_14
REMARK    7  A    between atoms: C_14  and  O_15
REMARK    8  A    between atoms: C_20  and  O_21
REMARK                            x       y       z     vdW  Elec       q    Type
REMARK                         _______ _______ _______ _____ _____    ______ ____
ROOT
ATOM      1  C   UNL     1       2.959   7.184  18.169  0.00  0.00    +0.000 A 
ATOM      2  C   UNL     1       2.399   8.385  17.796  0.00  0.00    +0.000 A 
ATOM      3  C   UNL     1       1.638   8.834  18.899  0.00  0.00    +0.000 A 
ATOM      4  C   UNL     1       0.816   9.938  19.159  0.00  0.00    +0.000 A 
ATOM      5  C   UNL     1       0.207  10.067  20.421  0.00  0.00    +0.000 A 
ATOM      6  C   UNL     1       0.446   9.094  21.410  0.00  0.00    +0.000 A 
ATOM      7  C   UNL     1       1.256   7.974  21.164  0.00  0.00    +0.000 A 
ATOM      8  C   UNL     1       1.814   7.886  19.897  0.00  0.00    +0.000 A 
ATOM      9  O   UNL     1       2.599   6.872  19.449  0.00  0.00    +0.000 OA
ENDROOT
BRANCH   1  13
ATOM     10  C   UNL     1       5.320   4.372  15.999  0.00  0.00    +0.000 A 
ATOM     11  C   UNL     1       5.586   5.741  15.924  0.00  0.00    +0.000 A 
ATOM     12  C   UNL     1       4.826   6.654  16.655  0.00  0.00    +0.000 A 
ATOM     13  C   UNL     1       3.788   6.212  17.484  0.00  0.00    +0.000 A 
ATOM     14  C   UNL     1       3.544   4.838  17.571  0.00  0.00    +0.000 A 
ATOM     15  C   UNL     1       4.293   3.922  16.837  0.00  0.00    +0.000 A 
BRANCH  10  17
ATOM     16  C   UNL     1       6.239   3.948  13.859  0.00  0.00    +0.000 C 
ATOM     17  O   UNL     1       6.118   3.581  15.227  0.00  0.00    +0.000 OA
ENDBRANCH  10  17
BRANCH  14  18
ATOM     18  O   UNL     1       2.548   4.306  18.359  0.00  0.00    +0.000 OA
ATOM     19  H   UNL     1       2.652   4.680  19.257  0.00  0.00    +0.000 HD
ENDBRANCH  14  18
ENDBRANCH   1  13
BRANCH   5  20
ATOM     20  C   UNL     1      -0.683  11.264  20.669  0.00  0.00    +0.000 C 
BRANCH  20  21
ATOM     21  C   UNL     1      -0.132  12.591  20.132  0.00  0.00    +0.000 C 
BRANCH  21  22
ATOM     22  C   UNL     1       0.604  13.394  21.193  0.00  0.00    +0.000 C 
BRANCH  22  23
ATOM     23  O   UNL     1       1.958  12.962  21.256  0.00  0.00    +0.000 OA
ATOM     24  H   UNL     1       2.244  12.755  20.350  0.00  0.00    +0.000 HD
ENDBRANCH  22  23
ENDBRANCH  21  22
ENDBRANCH  20  21
ENDBRANCH   5  20
TORSDOF 7
ENDMDL
