MODEL 1
REMARK VINA RESULT:      -6.5      0.000      0.000
REMARK  Name = 
REMARK  6 active torsions:
REMARK  status: ('A' for Active; 'I' for Inactive)
REMARK    1  A    between atoms: C_1  and  C_2
REMARK    2  A    between atoms: C_2  and  C_3
REMARK    3  A    between atoms: C_2  and  C_4
REMARK    4  A    between atoms: C_4  and  C_5
REMARK    5  A    between atoms: C_4  and  N_6
REMARK    6  A    between atoms: N_6  and  C_7
REMARK                            x       y       z     vdW  Elec       q    Type
REMARK                         _______ _______ _______ _____ _____    ______ ____
ROOT
ATOM      1  N   UNL     1       3.417   4.754  18.799  0.00  0.00    +0.000 N 
ATOM      2  C   UNL     1       2.433   4.542  17.747  0.00  0.00    +0.000 C 
ATOM      3  C   UNL     1       4.781   4.928  18.514  0.00  0.00    +0.000 A 
ATOM      4  N   UNL     1       5.564   5.352  19.491  0.00  0.00    +0.000 NA
ATOM      5  C   UNL     1       6.916   5.512  19.301  0.00  0.00    +0.000 A 
ATOM      6  C   UNL     1       7.546   5.219  18.156  0.00  0.00    +0.000 A 
ATOM      7  N   UNL     1       6.783   4.770  17.107  0.00  0.00    +0.000 N 
ATOM      8  C   UNL     1       7.132   4.383  15.843  0.00  0.00    +0.000 A 
ATOM      9  N   UNL     1       6.082   4.059  15.125  0.00  0.00    +0.000 NA
ATOM     10  C   UNL     1       5.011   4.225  15.973  0.00  0.00    +0.000 A 
ATOM     11  C   UNL     1       5.417   4.644  17.222  0.00  0.00    +0.000 A 
ENDROOT
BRANCH   1  12
ATOM     12  C   UNL     1       2.976   4.516  20.202  0.00  0.00    +0.000 C 
ATOM     13  C   UNL     1       1.795   5.434  20.558  0.00  0.00    +0.000 C 
BRANCH  12  15
ATOM     14  C   UNL     1       1.740   2.791  21.647  0.00  0.00    +0.000 C 
ATOM     15  C   UNL     1       2.657   3.009  20.436  0.00  0.00    +0.000 C 
ATOM     16  C   UNL     1       3.931   2.177  20.643  0.00  0.00    +0.000 C 
ENDBRANCH  12  15
ENDBRANCH   1  12
TORSDOF 2
ENDMDL
MODEL 2
REMARK VINA RESULT:      -6.4      1.873      5.300
REMARK  Name = 
REMARK  6 active torsions:
REMARK  status: ('A' for Active; 'I' for Inactive)
REMARK    1  A    between atoms: C_1  and  C_2
REMARK    2  A    between atoms: C_2  and  C_3
REMARK    3  A    between atoms: C_2  and  C_4
REMARK    4  A    between atoms: C_4  and  C_5
REMARK    5  A    between atoms: C_4  and  N_6
REMARK    6  A    between atoms: N_6  and  C_7
REMARK                            x       y       z     vdW  Elec       q    Type
REMARK                         _______ _______ _______ _____ _____    ______ ____
ROOT
ATOM      1  N   UNL     1       4.068   5.517  17.480  0.00  0.00    +0.000 N 
ATOM      2  C   UNL     1       3.524   6.810  17.871  0.00  0.00    +0.000 C 
ATOM      3  C   UNL     1       3.540   4.312  17.972  0.00  0.00    +0.000 A 
ATOM      4  N   UNL     1       3.925   3.190  17.390  0.00  0.00    +0.000 NA
ATOM      5  C   UNL     1       3.481   1.967  17.838  0.00  0.00    +0.000 A 
ATOM      6  C   UNL     1       2.680   1.810  18.900  0.00  0.00    +0.000 A 
ATOM      7  N   UNL     1       2.252   2.942  19.546  0.00  0.00    +0.000 N 
ATOM      8  C   UNL     1       1.457   3.102  20.648  0.00  0.00    +0.000 A 
ATOM      9  N   UNL     1       1.252   4.369  20.921  0.00  0.00    +0.000 NA
ATOM     10  C   UNL     1       1.965   5.056  19.965  0.00  0.00    +0.000 A 
ATOM     11  C   UNL     1       2.618   4.195  19.109  0.00  0.00    +0.000 A 
ENDROOT
BRANCH   1  12
ATOM     12  C   UNL     1       5.367   5.516  16.752  0.00  0.00    +0.000 C 
ATOM     13  C   UNL     1       5.325   6.505  15.575  0.00  0.00    +0.000 C 
BRANCH  12  15
ATOM     14  C   UNL     1       7.278   7.104  17.400  0.00  0.00    +0.000 C 
ATOM     15  C   UNL     1       6.551   5.792  17.727  0.00  0.00    +0.000 C 
ATOM     16  C   UNL     1       7.583   4.656  17.714  0.00  0.00    +0.000 C 
ENDBRANCH  12  15
ENDBRANCH   1  12
TORSDOF 2
ENDMDL
MODEL 3
REMARK VINA RESULT:      -6.1      1.583      5.243
REMARK  Name = 
REMARK  6 active torsions:
REMARK  status: ('A' for Active; 'I' for Inactive)
REMARK    1  A    between atoms: C_1  and  C_2
REMARK    2  A    between atoms: C_2  and  C_3
REMARK    3  A    between atoms: C_2  and  C_4
REMARK    4  A    between atoms: C_4  and  C_5
REMARK    5  A    between atoms: C_4  and  N_6
REMARK    6  A    between atoms: N_6  and  C_7
REMARK                            x       y       z     vdW  Elec       q    Type
REMARK                         _______ _______ _______ _____ _____    ______ ____
ROOT
ATOM      1  N   UNL     1       4.912   4.678  17.961  0.00  0.00    +0.000 N 
ATOM      2  C   UNL     1       4.114   5.653  17.232  0.00  0.00    +0.000 C 
ATOM      3  C   UNL     1       4.358   3.867  18.964  0.00  0.00    +0.000 A 
ATOM      4  N   UNL     1       5.081   2.852  19.403  0.00  0.00    +0.000 NA
ATOM      5  C   UNL     1       4.623   2.034  20.409  0.00  0.00    +0.000 A 
ATOM      6  C   UNL     1       3.457   2.217  21.043  0.00  0.00    +0.000 A 
ATOM      7  N   UNL     1       2.666   3.259  20.631  0.00  0.00    +0.000 N 
ATOM      8  C   UNL     1       1.454   3.701  21.085  0.00  0.00    +0.000 A 
ATOM      9  N   UNL     1       1.010   4.716  20.381  0.00  0.00    +0.000 NA
ATOM     10  C   UNL     1       1.992   4.952  19.446  0.00  0.00    +0.000 A 
ATOM     11  C   UNL     1       3.047   4.076  19.592  0.00  0.00    +0.000 A 
ENDROOT
BRANCH   1  12
ATOM     12  C   UNL     1       6.391   4.750  17.797  0.00  0.00    +0.000 C 
ATOM     13  C   UNL     1       6.775   4.623  16.313  0.00  0.00    +0.000 C 
BRANCH  12  15
ATOM     14  C   UNL     1       7.539   7.016  17.420  0.00  0.00    +0.000 C 
ATOM     15  C   UNL     1       6.961   6.042  18.456  0.00  0.00    +0.000 C 
ATOM     16  C   UNL     1       8.058   5.728  19.483  0.00  0.00    +0.000 C 
ENDBRANCH  12  15
ENDBRANCH   1  12
TORSDOF 2
ENDMDL
MODEL 4
REMARK VINA RESULT:      -6.0      1.648      2.448
REMARK  Name = 
REMARK  6 active torsions:
REMARK  status: ('A' for Active; 'I' for Inactive)
REMARK    1  A    between atoms: C_1  and  C_2
REMARK    2  A    between atoms: C_2  and  C_3
REMARK    3  A    between atoms: C_2  and  C_4
REMARK    4  A    between atoms: C_4  and  C_5
REMARK    5  A    between atoms: C_4  and  N_6
REMARK    6  A    between atoms: N_6  and  C_7
REMARK                            x       y       z     vdW  Elec       q    Type
REMARK                         _______ _______ _______ _____ _____    ______ ____
ROOT
ATOM      1  N   UNL     1       3.054   3.656  18.077  0.00  0.00    +0.000 N 
ATOM      2  C   UNL     1       3.625   2.336  17.852  0.00  0.00    +0.000 C 
ATOM      3  C   UNL     1       3.747   4.831  17.741  0.00  0.00    +0.000 A 
ATOM      4  N   UNL     1       3.072   5.967  17.751  0.00  0.00    +0.000 NA
ATOM      5  C   UNL     1       3.688   7.164  17.469  0.00  0.00    +0.000 A 
ATOM      6  C   UNL     1       4.997   7.283  17.212  0.00  0.00    +0.000 A 
ATOM      7  N   UNL     1       5.749   6.136  17.194  0.00  0.00    +0.000 N 
ATOM      8  C   UNL     1       7.086   5.941  16.982  0.00  0.00    +0.000 A 
ATOM      9  N   UNL     1       7.403   4.667  17.005  0.00  0.00    +0.000 NA
ATOM     10  C   UNL     1       6.220   4.015  17.266  0.00  0.00    +0.000 A 
ATOM     11  C   UNL     1       5.176   4.904  17.412  0.00  0.00    +0.000 A 
ENDROOT
BRANCH   1  12
ATOM     12  C   UNL     1       1.825   3.733  18.915  0.00  0.00    +0.000 C 
ATOM     13  C   UNL     1       0.948   2.488  18.701  0.00  0.00    +0.000 C 
BRANCH  12  15
ATOM     14  C   UNL     1       1.577   2.891  21.328  0.00  0.00    +0.000 C 
ATOM     15  C   UNL     1       2.189   3.961  20.413  0.00  0.00    +0.000 C 
ATOM     16  C   UNL     1       1.730   5.337  20.913  0.00  0.00    +0.000 C 
ENDBRANCH  12  15
ENDBRANCH   1  12
TORSDOF 2
ENDMDL
MODEL 5
REMARK VINA RESULT:      -5.8      1.567      4.988
REMARK  Name = 
REMARK  6 active torsions:
REMARK  status: ('A' for Active; 'I' for Inactive)
REMARK    1  A    between atoms: C_1  and  C_2
REMARK    2  A    between atoms: C_2  and  C_3
REMARK    3  A    between atoms: C_2  and  C_4
REMARK    4  A    between atoms: C_4  and  C_5
REMARK    5  A    between atoms: C_4  and  N_6
REMARK    6  A    between atoms: N_6  and  C_7
REMARK                            x       y       z     vdW  Elec       q    Type
REMARK                         _______ _______ _______ _____ _____    ______ ____
ROOT
ATOM      1  N   UNL     1       5.331   4.052  17.240  0.00  0.00    +0.000 N 
ATOM      2  C   UNL     1       4.763   4.392  15.943  0.00  0.00    +0.000 C 
ATOM      3  C   UNL     1       4.545   3.533  18.281  0.00  0.00    +0.000 A 
ATOM      4  N   UNL     1       5.169   3.028  19.330  0.00  0.00    +0.000 NA
ATOM      5  C   UNL     1       4.468   2.534  20.406  0.00  0.00    +0.000 A 
ATOM      6  C   UNL     1       3.133   2.561  20.499  0.00  0.00    +0.000 A 
ATOM      7  N   UNL     1       2.432   3.079  19.439  0.00  0.00    +0.000 N 
ATOM      8  C   UNL     1       1.088   3.253  19.249  0.00  0.00    +0.000 A 
ATOM      9  N   UNL     1       0.824   3.749  18.063  0.00  0.00    +0.000 NA
ATOM     10  C   UNL     1       2.054   3.921  17.471  0.00  0.00    +0.000 A 
ATOM     11  C   UNL     1       3.076   3.536  18.312  0.00  0.00    +0.000 A 
ENDROOT
BRANCH   1  12
ATOM     12  C   UNL     1       6.719   4.517  17.518  0.00  0.00    +0.000 C 
ATOM     13  C   UNL     1       7.523   4.625  16.212  0.00  0.00    +0.000 C 
BRANCH  12  15
ATOM     14  C   UNL     1       7.052   7.062  17.454  0.00  0.00    +0.000 C 
ATOM     15  C   UNL     1       6.706   5.849  18.328  0.00  0.00    +0.000 C 
ATOM     16  C   UNL     1       7.686   5.813  19.509  0.00  0.00    +0.000 C 
ENDBRANCH  12  15
ENDBRANCH   1  12
TORSDOF 2
ENDMDL
MODEL 6
REMARK VINA RESULT:      -5.8      1.704      2.977
REMARK  Name = 
REMARK  6 active torsions:
REMARK  status: ('A' for Active; 'I' for Inactive)
REMARK    1  A    between atoms: C_1  and  C_2
REMARK    2  A    between atoms: C_2  and  C_3
REMARK    3  A    between atoms: C_2  and  C_4
REMARK    4  A    between atoms: C_4  and  C_5
REMARK    5  A    between atoms: C_4  and  N_6
REMARK    6  A    between atoms: N_6  and  C_7
REMARK                            x       y       z     vdW  Elec       q    Type
REMARK                         _______ _______ _______ _____ _____    ______ ____
ROOT
ATOM      1  N   UNL     1       4.072   3.829  18.753  0.00  0.00    +0.000 N 
ATOM      2  C   UNL     1       4.727   2.957  19.717  0.00  0.00    +0.000 C 
ATOM      3  C   UNL     1       4.764   4.857  18.093  0.00  0.00    +0.000 A 
ATOM      4  N   UNL     1       4.168   5.439  17.067  0.00  0.00    +0.000 NA
ATOM      5  C   UNL     1       4.766   6.478  16.392  0.00  0.00    +0.000 A 
ATOM      6  C   UNL     1       5.948   7.005  16.735  0.00  0.00    +0.000 A 
ATOM      7  N   UNL     1       6.611   6.442  17.797  0.00  0.00    +0.000 N 
ATOM      8  C   UNL     1       7.805   6.762  18.382  0.00  0.00    +0.000 A 
ATOM      9  N   UNL     1       8.106   5.938  19.359  0.00  0.00    +0.000 NA
ATOM     10  C   UNL     1       7.046   5.061  19.418  0.00  0.00    +0.000 A 
ATOM     11  C   UNL     1       6.089   5.364  18.474  0.00  0.00    +0.000 A 
ENDROOT
BRANCH   1  12
ATOM     12  C   UNL     1       2.585   3.769  18.682  0.00  0.00    +0.000 C 
ATOM     13  C   UNL     1       2.132   2.496  17.948  0.00  0.00    +0.000 C 
BRANCH  12  15
ATOM     14  C   UNL     1       0.596   3.197  20.201  0.00  0.00    +0.000 C 
ATOM     15  C   UNL     1       1.956   3.902  20.101  0.00  0.00    +0.000 C 
ATOM     16  C   UNL     1       1.766   5.369  20.511  0.00  0.00    +0.000 C 
ENDBRANCH  12  15
ENDBRANCH   1  12
TORSDOF 2
ENDMDL
MODEL 7
REMARK VINA RESULT:      -5.7      1.703      3.230
REMARK  Name = 
REMARK  6 active torsions:
REMARK  status: ('A' for Active; 'I' for Inactive)
REMARK    1  A    between atoms: C_1  and  C_2
REMARK    2  A    between atoms: C_2  and  C_3
REMARK    3  A    between atoms: C_2  and  C_4
REMARK    4  A    between atoms: C_4  and  C_5
REMARK    5  A    between atoms: C_4  and  N_6
REMARK    6  A    between atoms: N_6  and  C_7
REMARK                            x       y       z     vdW  Elec       q    Type
REMARK                         _______ _______ _______ _____ _____    ______ ____
ROOT
ATOM      1  N   UNL     1       4.447   3.345  18.390  0.00  0.00    +0.000 N 
ATOM      2  C   UNL     1       4.845   3.306  19.790  0.00  0.00    +0.000 C 
ATOM      3  C   UNL     1       5.163   4.088  17.437  0.00  0.00    +0.000 A 
ATOM      4  N   UNL     1       4.885   3.880  16.162  0.00  0.00    +0.000 NA
ATOM      5  C   UNL     1       5.517   4.594  15.170  0.00  0.00    +0.000 A 
ATOM      6  C   UNL     1       6.409   5.565  15.407  0.00  0.00    +0.000 A 
ATOM      7  N   UNL     1       6.732   5.827  16.714  0.00  0.00    +0.000 N 
ATOM      8  C   UNL     1       7.581   6.750  17.262  0.00  0.00    +0.000 A 
ATOM      9  N   UNL     1       7.639   6.642  18.569  0.00  0.00    +0.000 NA
ATOM     10  C   UNL     1       6.773   5.617  18.877  0.00  0.00    +0.000 A 
ATOM     11  C   UNL     1       6.175   5.106  17.745  0.00  0.00    +0.000 A 
ENDROOT
BRANCH   1  12
ATOM     12  C   UNL     1       3.108   2.790  18.047  0.00  0.00    +0.000 C 
ATOM     13  C   UNL     1       3.018   1.310  18.455  0.00  0.00    +0.000 C 
BRANCH  12  15
ATOM     14  C   UNL     1       0.790   2.803  19.151  0.00  0.00    +0.000 C 
ATOM     15  C   UNL     1       1.972   3.656  18.670  0.00  0.00    +0.000 C 
ATOM     16  C   UNL     1       1.437   4.700  17.681  0.00  0.00    +0.000 C 
ENDBRANCH  12  15
ENDBRANCH   1  12
TORSDOF 2
ENDMDL
MODEL 8
REMARK VINA RESULT:      -5.7      1.833      5.560
REMARK  Name = 
REMARK  6 active torsions:
REMARK  status: ('A' for Active; 'I' for Inactive)
REMARK    1  A    between atoms: C_1  and  C_2
REMARK    2  A    between atoms: C_2  and  C_3
REMARK    3  A    between atoms: C_2  and  C_4
REMARK    4  A    between atoms: C_4  and  C_5
REMARK    5  A    between atoms: C_4  and  N_6
REMARK    6  A    between atoms: N_6  and  C_7
REMARK                            x       y       z     vdW  Elec       q    Type
REMARK                         _______ _______ _______ _____ _____    ______ ____
ROOT
ATOM      1  N   UNL     1       4.341   5.017  17.005  0.00  0.00    +0.000 N 
ATOM      2  C   UNL     1       4.391   6.463  17.165  0.00  0.00    +0.000 C 
ATOM      3  C   UNL     1       3.435   4.222  17.725  0.00  0.00    +0.000 A 
ATOM      4  N   UNL     1       3.288   2.964  17.350  0.00  0.00    +0.000 NA
ATOM      5  C   UNL     1       2.446   2.112  18.028  0.00  0.00    +0.000 A 
ATOM      6  C   UNL     1       1.758   2.463  19.122  0.00  0.00    +0.000 A 
ATOM      7  N   UNL     1       1.876   3.757  19.560  0.00  0.00    +0.000 N 
ATOM      8  C   UNL     1       1.321   4.397  20.635  0.00  0.00    +0.000 A 
ATOM      9  N   UNL     1       1.658   5.665  20.675  0.00  0.00    +0.000 NA
ATOM     10  C   UNL     1       2.484   5.844  19.589  0.00  0.00    +0.000 A 
ATOM     11  C   UNL     1       2.658   4.669  18.889  0.00  0.00    +0.000 A 
ENDROOT
BRANCH   1  12
ATOM     12  C   UNL     1       5.456   4.376  16.254  0.00  0.00    +0.000 C 
ATOM     13  C   UNL     1       5.092   4.235  14.766  0.00  0.00    +0.000 C 
BRANCH  12  15
ATOM     14  C   UNL     1       7.648   5.203  15.202  0.00  0.00    +0.000 C 
ATOM     15  C   UNL     1       6.791   5.149  16.475  0.00  0.00    +0.000 C 
ATOM     16  C   UNL     1       7.636   4.528  17.595  0.00  0.00    +0.000 C 
ENDBRANCH  12  15
ENDBRANCH   1  12
TORSDOF 2
ENDMDL
MODEL 9
REMARK VINA RESULT:      -5.7      1.503      5.198
REMARK  Name = 
REMARK  6 active torsions:
REMARK  status: ('A' for Active; 'I' for Inactive)
REMARK    1  A    between atoms: C_1  and  C_2
REMARK    2  A    between atoms: C_2  and  C_3
REMARK    3  A    between atoms: C_2  and  C_4
REMARK    4  A    between atoms: C_4  and  C_5
REMARK    5  A    between atoms: C_4  and  N_6
REMARK    6  A    between atoms: N_6  and  C_7
REMARK                            x       y       z     vdW  Elec       q    Type
REMARK                         _______ _______ _______ _____ _____    ______ ____
ROOT
ATOM      1  N   UNL     1       5.092   5.357  17.519  0.00  0.00    +0.000 N 
ATOM      2  C   UNL     1       4.619   6.675  17.123  0.00  0.00    +0.000 C 
ATOM      3  C   UNL     1       4.399   4.570  18.454  0.00  0.00    +0.000 A 
ATOM      4  N   UNL     1       4.755   3.304  18.576  0.00  0.00    +0.000 NA
ATOM      5  C   UNL     1       4.149   2.479  19.495  0.00  0.00    +0.000 A 
ATOM      6  C   UNL     1       3.205   2.888  20.352  0.00  0.00    +0.000 A 
ATOM      7  N   UNL     1       2.799   4.197  20.273  0.00  0.00    +0.000 N 
ATOM      8  C   UNL     1       1.882   4.899  21.007  0.00  0.00    +0.000 A 
ATOM      9  N   UNL     1       1.756   6.133  20.578  0.00  0.00    +0.000 NA
ATOM     10  C   UNL     1       2.647   6.235  19.534  0.00  0.00    +0.000 A 
ATOM     11  C   UNL     1       3.328   5.053  19.335  0.00  0.00    +0.000 A 
ENDROOT
BRANCH   1  12
ATOM     12  C   UNL     1       6.471   4.975  17.104  0.00  0.00    +0.000 C 
ATOM     13  C   UNL     1       6.638   5.131  15.583  0.00  0.00    +0.000 C 
BRANCH  12  15
ATOM     14  C   UNL     1       7.316   5.669  19.426  0.00  0.00    +0.000 C 
ATOM     15  C   UNL     1       7.536   5.775  17.911  0.00  0.00    +0.000 C 
ATOM     16  C   UNL     1       7.546   7.263  17.532  0.00  0.00    +0.000 C 
ENDBRANCH  12  15
ENDBRANCH   1  12
TORSDOF 2
ENDMDL
