MODEL 1
REMARK VINA RESULT:      -7.0      0.000      0.000
REMARK  Name = 
REMARK  2 active torsions:
REMARK  status: ('A' for Active; 'I' for Inactive)
REMARK    1  A    between atoms: O_1  and  C_2
REMARK    2  A    between atoms: C_10  and  C_11
REMARK                            x       y       z     vdW  Elec       q    Type
REMARK                         _______ _______ _______ _____ _____    ______ ____
ROOT
ATOM      1  C   UNL     1       6.801   5.150  18.817  0.00  0.00    +0.000 A 
ATOM      2  N   UNL     1       7.657   5.254  17.751  0.00  0.00    +0.000 N 
ATOM      3  C   UNL     1       7.013   4.942  16.579  0.00  0.00    +0.000 A 
ATOM      4  C   UNL     1       7.494   4.926  15.264  0.00  0.00    +0.000 A 
ATOM      5  C   UNL     1       6.598   4.573  14.251  0.00  0.00    +0.000 A 
ATOM      6  C   UNL     1       5.278   4.247  14.543  0.00  0.00    +0.000 A 
ATOM      7  C   UNL     1       4.817   4.263  15.866  0.00  0.00    +0.000 A 
ATOM      8  C   UNL     1       5.699   4.612  16.912  0.00  0.00    +0.000 A 
ATOM      9  C   UNL     1       5.566   4.739  18.338  0.00  0.00    +0.000 A 
ATOM     10  H   UNL     1       8.628   5.524  17.800  0.00  0.00    +0.000 HD
ENDROOT
BRANCH   9  11
ATOM     11  C   UNL     1       4.381   4.489  19.159  0.00  0.00    +0.000 C 
ATOM     12  N   UNL     1       4.212   3.277  19.567  0.00  0.00    +0.000 NA
ATOM     13  C   UNL     1       3.069   2.918  20.403  0.00  0.00    +0.000 C 
ATOM     14  C   UNL     1       2.472   4.099  21.149  0.00  0.00    +0.000 C 
ATOM     15  C   UNL     1       2.167   5.199  20.153  0.00  0.00    +0.000 C 
ATOM     16  C   UNL     1       3.463   5.646  19.506  0.00  0.00    +0.000 C 
ENDBRANCH   9  11
BRANCH   1  17
ATOM     17  O   UNL     1       7.206   5.405  20.059  0.00  0.00    +0.000 OA
ATOM     18  H   UNL     1       8.133   5.138  20.174  0.00  0.00    +0.000 HD
ENDBRANCH   1  17
TORSDOF 2
ENDMDL
MODEL 2
REMARK VINA RESULT:      -7.0      2.255      2.627
REMARK  Name = 
REMARK  2 active torsions:
REMARK  status: ('A' for Active; 'I' for Inactive)
REMARK    1  A    between atoms: O_1  and  C_2
REMARK    2  A    between atoms: C_10  and  C_11
REMARK                            x       y       z     vdW  Elec       q    Type
REMARK                         _______ _______ _______ _____ _____    ______ ____
ROOT
ATOM      1  C   UNL     1       3.191   6.615  18.311  0.00  0.00    +0.000 A 
ATOM      2  N   UNL     1       4.016   7.176  17.371  0.00  0.00    +0.000 N 
ATOM      3  C   UNL     1       4.687   6.203  16.670  0.00  0.00    +0.000 A 
ATOM      4  C   UNL     1       5.611   6.321  15.625  0.00  0.00    +0.000 A 
ATOM      5  C   UNL     1       6.134   5.142  15.086  0.00  0.00    +0.000 A 
ATOM      6  C   UNL     1       5.749   3.898  15.577  0.00  0.00    +0.000 A 
ATOM      7  C   UNL     1       4.828   3.801  16.627  0.00  0.00    +0.000 A 
ATOM      8  C   UNL     1       4.284   4.974  17.195  0.00  0.00    +0.000 A 
ATOM      9  C   UNL     1       3.336   5.238  18.243  0.00  0.00    +0.000 A 
ATOM     10  H   UNL     1       4.127   8.164  17.199  0.00  0.00    +0.000 HD
ENDROOT
BRANCH   9  11
ATOM     11  C   UNL     1       2.643   4.271  19.096  0.00  0.00    +0.000 C 
ATOM     12  N   UNL     1       3.242   3.939  20.190  0.00  0.00    +0.000 NA
ATOM     13  C   UNL     1       2.635   2.991  21.121  0.00  0.00    +0.000 C 
ATOM     14  C   UNL     1       1.127   2.884  20.975  0.00  0.00    +0.000 C 
ATOM     15  C   UNL     1       0.797   2.597  19.525  0.00  0.00    +0.000 C 
ATOM     16  C   UNL     1       1.280   3.756  18.675  0.00  0.00    +0.000 C 
ENDBRANCH   9  11
BRANCH   1  17
ATOM     17  O   UNL     1       2.441   7.367  19.112  0.00  0.00    +0.000 OA
ATOM     18  H   UNL     1       2.398   6.976  20.000  0.00  0.00    +0.000 HD
ENDBRANCH   1  17
TORSDOF 2
ENDMDL
MODEL 3
REMARK VINA RESULT:      -6.9      2.033      2.630
REMARK  Name = 
REMARK  2 active torsions:
REMARK  status: ('A' for Active; 'I' for Inactive)
REMARK    1  A    between atoms: O_1  and  C_2
REMARK    2  A    between atoms: C_10  and  C_11
REMARK                            x       y       z     vdW  Elec       q    Type
REMARK                         _______ _______ _______ _____ _____    ______ ____
ROOT
ATOM      1  C   UNL     1       6.623   5.806  16.524  0.00  0.00    +0.000 A 
ATOM      2  N   UNL     1       7.556   5.804  15.521  0.00  0.00    +0.000 N 
ATOM      3  C   UNL     1       7.106   5.090  14.437  0.00  0.00    +0.000 A 
ATOM      4  C   UNL     1       7.720   4.839  13.205  0.00  0.00    +0.000 A 
ATOM      5  C   UNL     1       7.012   4.076  12.271  0.00  0.00    +0.000 A 
ATOM      6  C   UNL     1       5.744   3.584  12.562  0.00  0.00    +0.000 A 
ATOM      7  C   UNL     1       5.149   3.841  13.804  0.00  0.00    +0.000 A 
ATOM      8  C   UNL     1       5.839   4.605  14.770  0.00  0.00    +0.000 A 
ATOM      9  C   UNL     1       5.535   5.056  16.100  0.00  0.00    +0.000 A 
ATOM     10  H   UNL     1       8.455   6.261  15.553  0.00  0.00    +0.000 HD
ENDROOT
BRANCH   9  11
ATOM     11  C   UNL     1       4.330   4.794  16.887  0.00  0.00    +0.000 C 
ATOM     12  N   UNL     1       3.743   5.825  17.397  0.00  0.00    +0.000 NA
ATOM     13  C   UNL     1       2.525   5.679  18.190  0.00  0.00    +0.000 C 
ATOM     14  C   UNL     1       1.769   4.394  17.905  0.00  0.00    +0.000 C 
ATOM     15  C   UNL     1       2.723   3.226  18.050  0.00  0.00    +0.000 C 
ATOM     16  C   UNL     1       3.829   3.369  17.024  0.00  0.00    +0.000 C 
ENDBRANCH   9  11
BRANCH   1  17
ATOM     17  O   UNL     1       6.842   6.436  17.675  0.00  0.00    +0.000 OA
ATOM     18  H   UNL     1       7.781   6.381  17.917  0.00  0.00    +0.000 HD
ENDBRANCH   1  17
TORSDOF 2
ENDMDL
MODEL 4
REMARK VINA RESULT:      -6.9      0.716      1.268
REMARK  Name = 
REMARK  2 active torsions:
REMARK  status: ('A' for Active; 'I' for Inactive)
REMARK    1  A    between atoms: O_1  and  C_2
REMARK    2  A    between atoms: C_10  and  C_11
REMARK                            x       y       z     vdW  Elec       q    Type
REMARK                         _______ _______ _______ _____ _____    ______ ____
ROOT
ATOM      1  C   UNL     1       6.787   5.146  18.800  0.00  0.00    +0.000 A 
ATOM      2  N   UNL     1       7.633   5.304  17.733  0.00  0.00    +0.000 N 
ATOM      3  C   UNL     1       7.008   4.957  16.560  0.00  0.00    +0.000 A 
ATOM      4  C   UNL     1       7.487   4.972  15.245  0.00  0.00    +0.000 A 
ATOM      5  C   UNL     1       6.612   4.568  14.232  0.00  0.00    +0.000 A 
ATOM      6  C   UNL     1       5.314   4.163  14.526  0.00  0.00    +0.000 A 
ATOM      7  C   UNL     1       4.856   4.149  15.848  0.00  0.00    +0.000 A 
ATOM      8  C   UNL     1       5.716   4.547  16.895  0.00  0.00    +0.000 A 
ATOM      9  C   UNL     1       5.578   4.663  18.322  0.00  0.00    +0.000 A 
ATOM     10  H   UNL     1       8.586   5.631  17.782  0.00  0.00    +0.000 HD
ENDROOT
BRANCH   9  11
ATOM     11  C   UNL     1       4.411   4.340  19.143  0.00  0.00    +0.000 C 
ATOM     12  N   UNL     1       3.782   5.340  19.663  0.00  0.00    +0.000 NA
ATOM     13  C   UNL     1       2.596   5.134  20.490  0.00  0.00    +0.000 C 
ATOM     14  C   UNL     1       1.905   3.806  20.234  0.00  0.00    +0.000 C 
ATOM     15  C   UNL     1       2.926   2.694  20.359  0.00  0.00    +0.000 C 
ATOM     16  C   UNL     1       3.995   2.890  19.302  0.00  0.00    +0.000 C 
ENDBRANCH   9  11
BRANCH   1  17
ATOM     17  O   UNL     1       7.177   5.421  20.041  0.00  0.00    +0.000 OA
ATOM     18  H   UNL     1       7.824   6.146  20.040  0.00  0.00    +0.000 HD
ENDBRANCH   1  17
TORSDOF 2
ENDMDL
MODEL 5
REMARK VINA RESULT:      -6.9      2.324      5.242
REMARK  Name = 
REMARK  2 active torsions:
REMARK  status: ('A' for Active; 'I' for Inactive)
REMARK    1  A    between atoms: O_1  and  C_2
REMARK    2  A    between atoms: C_10  and  C_11
REMARK                            x       y       z     vdW  Elec       q    Type
REMARK                         _______ _______ _______ _____ _____    ______ ____
ROOT
ATOM      1  C   UNL     1       4.296   3.159  17.369  0.00  0.00    +0.000 A 
ATOM      2  N   UNL     1       3.134   2.493  17.658  0.00  0.00    +0.000 N 
ATOM      3  C   UNL     1       2.445   3.130  18.661  0.00  0.00    +0.000 A 
ATOM      4  C   UNL     1       1.220   2.808  19.258  0.00  0.00    +0.000 A 
ATOM      5  C   UNL     1       0.747   3.655  20.265  0.00  0.00    +0.000 A 
ATOM      6  C   UNL     1       1.473   4.774  20.659  0.00  0.00    +0.000 A 
ATOM      7  C   UNL     1       2.699   5.076  20.054  0.00  0.00    +0.000 A 
ATOM      8  C   UNL     1       3.206   4.239  19.036  0.00  0.00    +0.000 A 
ATOM      9  C   UNL     1       4.387   4.253  18.217  0.00  0.00    +0.000 A 
ATOM     10  H   UNL     1       2.810   1.651  17.207  0.00  0.00    +0.000 HD
ENDROOT
BRANCH   9  11
ATOM     11  C   UNL     1       5.492   5.213  18.245  0.00  0.00    +0.000 C 
ATOM     12  N   UNL     1       6.406   5.008  19.133  0.00  0.00    +0.000 NA
ATOM     13  C   UNL     1       7.560   5.897  19.241  0.00  0.00    +0.000 C 
ATOM     14  C   UNL     1       7.848   6.671  17.966  0.00  0.00    +0.000 C 
ATOM     15  C   UNL     1       6.582   7.379  17.531  0.00  0.00    +0.000 C 
ATOM     16  C   UNL     1       5.518   6.341  17.232  0.00  0.00    +0.000 C 
ENDBRANCH   9  11
BRANCH   1  17
ATOM     17  O   UNL     1       5.130   2.724  16.428  0.00  0.00    +0.000 OA
ATOM     18  H   UNL     1       5.491   1.855  16.672  0.00  0.00    +0.000 HD
ENDBRANCH   1  17
TORSDOF 2
ENDMDL
MODEL 6
REMARK VINA RESULT:      -6.9      2.019      5.545
REMARK  Name = 
REMARK  2 active torsions:
REMARK  status: ('A' for Active; 'I' for Inactive)
REMARK    1  A    between atoms: O_1  and  C_2
REMARK    2  A    between atoms: C_10  and  C_11
REMARK                            x       y       z     vdW  Elec       q    Type
REMARK                         _______ _______ _______ _____ _____    ______ ____
ROOT
ATOM      1  C   UNL     1       3.572   2.332  18.569  0.00  0.00    +0.000 A 
ATOM      2  N   UNL     1       2.527   2.427  19.450  0.00  0.00    +0.000 N 
ATOM      3  C   UNL     1       2.278   3.739  19.770  0.00  0.00    +0.000 A 
ATOM      4  C   UNL     1       1.309   4.293  20.615  0.00  0.00    +0.000 A 
ATOM      5  C   UNL     1       1.282   5.684  20.747  0.00  0.00    +0.000 A 
ATOM      6  C   UNL     1       2.191   6.486  20.064  0.00  0.00    +0.000 A 
ATOM      7  C   UNL     1       3.157   5.913  19.228  0.00  0.00    +0.000 A 
ATOM      8  C   UNL     1       3.213   4.511  19.077  0.00  0.00    +0.000 A 
ATOM      9  C   UNL     1       4.040   3.613  18.317  0.00  0.00    +0.000 A 
ATOM     10  H   UNL     1       1.998   1.653  19.822  0.00  0.00    +0.000 HD
ENDROOT
BRANCH   9  11
ATOM     11  C   UNL     1       5.164   3.947  17.441  0.00  0.00    +0.000 C 
ATOM     12  N   UNL     1       5.028   3.646  16.194  0.00  0.00    +0.000 NA
ATOM     13  C   UNL     1       6.083   3.946  15.229  0.00  0.00    +0.000 C 
ATOM     14  C   UNL     1       7.020   5.052  15.684  0.00  0.00    +0.000 C 
ATOM     15  C   UNL     1       7.545   4.709  17.063  0.00  0.00    +0.000 C 
ATOM     16  C   UNL     1       6.378   4.642  18.028  0.00  0.00    +0.000 C 
ENDBRANCH   9  11
BRANCH   1  17
ATOM     17  O   UNL     1       3.994   1.154  18.118  0.00  0.00    +0.000 OA
ATOM     18  H   UNL     1       3.242   0.619  17.813  0.00  0.00    +0.000 HD
ENDBRANCH   1  17
TORSDOF 2
ENDMDL
MODEL 7
REMARK VINA RESULT:      -6.8      2.806      5.036
REMARK  Name = 
REMARK  2 active torsions:
REMARK  status: ('A' for Active; 'I' for Inactive)
REMARK    1  A    between atoms: O_1  and  C_2
REMARK    2  A    between atoms: C_10  and  C_11
REMARK                            x       y       z     vdW  Elec       q    Type
REMARK                         _______ _______ _______ _____ _____    ______ ____
ROOT
ATOM      1  C   UNL     1       3.075   6.450  18.063  0.00  0.00    +0.000 A 
ATOM      2  N   UNL     1       1.910   5.728  18.072  0.00  0.00    +0.000 N 
ATOM      3  C   UNL     1       2.169   4.387  18.214  0.00  0.00    +0.000 A 
ATOM      4  C   UNL     1       1.288   3.302  18.282  0.00  0.00    +0.000 A 
ATOM      5  C   UNL     1       1.841   2.027  18.440  0.00  0.00    +0.000 A 
ATOM      6  C   UNL     1       3.218   1.849  18.523  0.00  0.00    +0.000 A 
ATOM      7  C   UNL     1       4.083   2.947  18.447  0.00  0.00    +0.000 A 
ATOM      8  C   UNL     1       3.557   4.247  18.283  0.00  0.00    +0.000 A 
ATOM      9  C   UNL     1       4.133   5.560  18.182  0.00  0.00    +0.000 A 
ATOM     10  H   UNL     1       0.980   6.111  17.989  0.00  0.00    +0.000 HD
ENDROOT
BRANCH   9  11
ATOM     11  C   UNL     1       5.550   5.926  18.193  0.00  0.00    +0.000 C 
ATOM     12  N   UNL     1       5.949   6.701  17.242  0.00  0.00    +0.000 NA
ATOM     13  C   UNL     1       7.340   7.139  17.164  0.00  0.00    +0.000 C 
ATOM     14  C   UNL     1       8.070   7.072  18.493  0.00  0.00    +0.000 C 
ATOM     15  C   UNL     1       7.910   5.678  19.066  0.00  0.00    +0.000 C 
ATOM     16  C   UNL     1       6.437   5.418  19.314  0.00  0.00    +0.000 C 
ENDBRANCH   9  11
BRANCH   1  17
ATOM     17  O   UNL     1       3.071   7.774  17.935  0.00  0.00    +0.000 OA
ATOM     18  H   UNL     1       3.884   8.074  17.496  0.00  0.00    +0.000 HD
ENDBRANCH   1  17
TORSDOF 2
ENDMDL
MODEL 8
REMARK VINA RESULT:      -6.8      2.175      5.365
REMARK  Name = 
REMARK  2 active torsions:
REMARK  status: ('A' for Active; 'I' for Inactive)
REMARK    1  A    between atoms: O_1  and  C_2
REMARK    2  A    between atoms: C_10  and  C_11
REMARK                            x       y       z     vdW  Elec       q    Type
REMARK                         _______ _______ _______ _____ _____    ______ ____
ROOT
ATOM      1  C   UNL     1       4.201   3.119  17.467  0.00  0.00    +0.000 A 
ATOM      2  N   UNL     1       2.974   2.641  17.849  0.00  0.00    +0.000 N 
ATOM      3  C   UNL     1       2.417   3.444  18.813  0.00  0.00    +0.000 A 
ATOM      4  C   UNL     1       1.187   3.340  19.472  0.00  0.00    +0.000 A 
ATOM      5  C   UNL     1       0.871   4.322  20.416  0.00  0.00    +0.000 A 
ATOM      6  C   UNL     1       1.753   5.363  20.688  0.00  0.00    +0.000 A 
ATOM      7  C   UNL     1       2.982   5.447  20.022  0.00  0.00    +0.000 A 
ATOM      8  C   UNL     1       3.332   4.468  19.067  0.00  0.00    +0.000 A 
ATOM      9  C   UNL     1       4.469   4.256  18.213  0.00  0.00    +0.000 A 
ATOM     10  H   UNL     1       2.524   1.815  17.482  0.00  0.00    +0.000 HD
ENDROOT
BRANCH   9  11
ATOM     11  C   UNL     1       5.690   5.058  18.124  0.00  0.00    +0.000 C 
ATOM     12  N   UNL     1       5.978   5.536  16.960  0.00  0.00    +0.000 NA
ATOM     13  C   UNL     1       7.166   6.361  16.760  0.00  0.00    +0.000 C 
ATOM     14  C   UNL     1       7.669   7.015  18.035  0.00  0.00    +0.000 C 
ATOM     15  C   UNL     1       7.851   5.945  19.092  0.00  0.00    +0.000 C 
ATOM     16  C   UNL     1       6.506   5.307  19.378  0.00  0.00    +0.000 C 
ENDBRANCH   9  11
BRANCH   1  17
ATOM     17  O   UNL     1       4.930   2.499  16.543  0.00  0.00    +0.000 OA
ATOM     18  H   UNL     1       4.617   1.588  16.420  0.00  0.00    +0.000 HD
ENDBRANCH   1  17
TORSDOF 2
ENDMDL
MODEL 9
REMARK VINA RESULT:      -6.8      2.392      2.813
REMARK  Name = 
REMARK  2 active torsions:
REMARK  status: ('A' for Active; 'I' for Inactive)
REMARK    1  A    between atoms: O_1  and  C_2
REMARK    2  A    between atoms: C_10  and  C_11
REMARK                            x       y       z     vdW  Elec       q    Type
REMARK                         _______ _______ _______ _____ _____    ______ ____
ROOT
ATOM      1  C   UNL     1       3.008   6.858  18.374  0.00  0.00    +0.000 A 
ATOM      2  N   UNL     1       3.844   7.382  17.423  0.00  0.00    +0.000 N 
ATOM      3  C   UNL     1       4.490   6.381  16.738  0.00  0.00    +0.000 A 
ATOM      4  C   UNL     1       5.414   6.459  15.690  0.00  0.00    +0.000 A 
ATOM      5  C   UNL     1       5.907   5.258  15.170  0.00  0.00    +0.000 A 
ATOM      6  C   UNL     1       5.493   4.033  15.682  0.00  0.00    +0.000 A 
ATOM      7  C   UNL     1       4.572   3.976  16.734  0.00  0.00    +0.000 A 
ATOM      8  C   UNL     1       4.058   5.171  17.284  0.00  0.00    +0.000 A 
ATOM      9  C   UNL     1       3.119   5.476  18.329  0.00  0.00    +0.000 A 
ATOM     10  H   UNL     1       3.980   8.364  17.235  0.00  0.00    +0.000 HD
ENDROOT
BRANCH   9  11
ATOM     11  C   UNL     1       2.404   4.541  19.199  0.00  0.00    +0.000 C 
ATOM     12  N   UNL     1       1.490   3.823  18.639  0.00  0.00    +0.000 NA
ATOM     13  C   UNL     1       0.723   2.848  19.411  0.00  0.00    +0.000 C 
ATOM     14  C   UNL     1       1.425   2.394  20.678  0.00  0.00    +0.000 C 
ATOM     15  C   UNL     1       1.821   3.618  21.480  0.00  0.00    +0.000 C 
ATOM     16  C   UNL     1       2.794   4.444  20.662  0.00  0.00    +0.000 C 
ENDBRANCH   9  11
BRANCH   1  17
ATOM     17  O   UNL     1       2.278   7.641  19.163  0.00  0.00    +0.000 OA
ATOM     18  H   UNL     1       2.848   8.112  19.793  0.00  0.00    +0.000 HD
ENDBRANCH   1  17
TORSDOF 2
ENDMDL
