MODEL 1
REMARK VINA RESULT:      -8.3      0.000      0.000
REMARK  Name = 
REMARK  7 active torsions:
REMARK  status: ('A' for Active; 'I' for Inactive)
REMARK    1  A    between atoms: C_2  and  O_3
REMARK    2  A    between atoms: C_2  and  C_4
REMARK    3  A    between atoms: C_4  and  N_5
REMARK    4  A    between atoms: C_6  and  C_8
REMARK    5  A    between atoms: C_11  and  S_12
REMARK    6  A    between atoms: S_12  and  C_13
REMARK    7  A    between atoms: C_19  and  N_20
REMARK                            x       y       z     vdW  Elec       q    Type
REMARK                         _______ _______ _______ _____ _____    ______ ____
ROOT
ATOM      1  C   UNL     1       6.039   5.320  15.580  0.00  0.00    +0.000 A 
ATOM      2  C   UNL     1       5.034   6.290  15.469  0.00  0.00    +0.000 A 
ATOM      3  C   UNL     1       4.303   6.696  16.596  0.00  0.00    +0.000 A 
ATOM      4  C   UNL     1       4.556   6.145  17.862  0.00  0.00    +0.000 A 
ATOM      5  C   UNL     1       5.566   5.174  17.945  0.00  0.00    +0.000 A 
ATOM      6  C   UNL     1       6.324   4.773  16.831  0.00  0.00    +0.000 A 
ENDROOT
BRANCH   1   8
ATOM      7  N   UNL     1       6.169   4.003  13.530  0.00  0.00    +0.000 N 
ATOM      8  C   UNL     1       6.785   4.911  14.360  0.00  0.00    +0.000 C 
ATOM      9  O   UNL     1       7.886   5.391  14.116  0.00  0.00    +0.000 OA
ATOM     10  H   UNL     1       5.195   3.738  13.648  0.00  0.00    +0.000 HD
BRANCH   7  11
ATOM     11  C   UNL     1       6.827   3.548  12.320  0.00  0.00    +0.000 C 
BRANCH  11  13
ATOM     12  O   UNL     1       4.814   2.551  11.398  0.00  0.00    +0.000 OA
ATOM     13  C   UNL     1       6.011   2.462  11.631  0.00  0.00    +0.000 C 
BRANCH  13  14
ATOM     14  O   UNL     1       6.747   1.376  11.290  0.00  0.00    +0.000 OA
ATOM     15  H   UNL     1       6.239   0.671  10.845  0.00  0.00    +0.000 HD
ENDBRANCH  13  14
ENDBRANCH  11  13
ENDBRANCH   7  11
ENDBRANCH   1   8
BRANCH   5  16
ATOM     16  N   UNL     1       5.857   4.501  19.194  0.00  0.00    +0.000 N 
ATOM     17  O   UNL     1       5.281   3.429  19.412  0.00  0.00    +0.000 OA
ATOM     18  O   UNL     1       6.724   5.017  19.913  0.00  0.00    +0.000 OA
ENDBRANCH   5  16
BRANCH   4  19
ATOM     19  S   UNL     1       3.498   6.642  19.212  0.00  0.00    +0.000 S 
BRANCH  19  20
ATOM     20  C   UNL     1       2.379   5.266  19.401  0.00  0.00    +0.000 A 
ATOM     21  C   UNL     1       1.985   4.538  18.270  0.00  0.00    +0.000 A 
ATOM     22  C   UNL     1       1.212   3.382  18.402  0.00  0.00    +0.000 A 
ATOM     23  C   UNL     1       0.832   2.939  19.667  0.00  0.00    +0.000 A 
ATOM     24  C   UNL     1       1.217   3.656  20.798  0.00  0.00    +0.000 A 
ATOM     25  C   UNL     1       1.991   4.814  20.667  0.00  0.00    +0.000 A 
ENDBRANCH  19  20
ENDBRANCH   4  19
TORSDOF 7
ENDMDL
MODEL 2
REMARK VINA RESULT:      -8.1      0.177      1.018
REMARK  Name = 
REMARK  7 active torsions:
REMARK  status: ('A' for Active; 'I' for Inactive)
REMARK    1  A    between atoms: C_2  and  O_3
REMARK    2  A    between atoms: C_2  and  C_4
REMARK    3  A    between atoms: C_4  and  N_5
REMARK    4  A    between atoms: C_6  and  C_8
REMARK    5  A    between atoms: C_11  and  S_12
REMARK    6  A    between atoms: S_12  and  C_13
REMARK    7  A    between atoms: C_19  and  N_20
REMARK                            x       y       z     vdW  Elec       q    Type
REMARK                         _______ _______ _______ _____ _____    ______ ____
ROOT
ATOM      1  C   UNL     1       6.119   5.335  15.532  0.00  0.00    +0.000 A 
ATOM      2  C   UNL     1       5.078   6.266  15.414  0.00  0.00    +0.000 A 
ATOM      3  C   UNL     1       4.332   6.651  16.538  0.00  0.00    +0.000 A 
ATOM      4  C   UNL     1       4.605   6.118  17.808  0.00  0.00    +0.000 A 
ATOM      5  C   UNL     1       5.651   5.187  17.897  0.00  0.00    +0.000 A 
ATOM      6  C   UNL     1       6.424   4.807  16.786  0.00  0.00    +0.000 A 
ENDROOT
BRANCH   1   8
ATOM      7  N   UNL     1       6.314   3.988  13.507  0.00  0.00    +0.000 N 
ATOM      8  C   UNL     1       6.880   4.947  14.314  0.00  0.00    +0.000 C 
ATOM      9  O   UNL     1       7.950   5.486  14.053  0.00  0.00    +0.000 OA
ATOM     10  H   UNL     1       5.358   3.668  13.637  0.00  0.00    +0.000 HD
BRANCH   7  11
ATOM     11  C   UNL     1       6.990   3.548  12.301  0.00  0.00    +0.000 C 
BRANCH  11  13
ATOM     12  O   UNL     1       5.028   2.411  11.432  0.00  0.00    +0.000 OA
ATOM     13  C   UNL     1       6.234   2.405  11.638  0.00  0.00    +0.000 C 
BRANCH  13  14
ATOM     14  O   UNL     1       7.033   1.369  11.284  0.00  0.00    +0.000 OA
ATOM     15  H   UNL     1       7.420   0.885  12.038  0.00  0.00    +0.000 HD
ENDBRANCH  13  14
ENDBRANCH  11  13
ENDBRANCH   7  11
ENDBRANCH   1   8
BRANCH   5  16
ATOM     16  N   UNL     1       5.968   4.533  19.151  0.00  0.00    +0.000 N 
ATOM     17  O   UNL     1       5.447   3.434  19.369  0.00  0.00    +0.000 OA
ATOM     18  O   UNL     1       6.800   5.096  19.875  0.00  0.00    +0.000 OA
ENDBRANCH   5  16
BRANCH   4  19
ATOM     19  S   UNL     1       3.529   6.584  19.155  0.00  0.00    +0.000 S 
BRANCH  19  20
ATOM     20  C   UNL     1       2.540   5.125  19.429  0.00  0.00    +0.000 A 
ATOM     21  C   UNL     1       2.241   4.731  20.741  0.00  0.00    +0.000 A 
ATOM     22  C   UNL     1       1.367   3.668  20.983  0.00  0.00    +0.000 A 
ATOM     23  C   UNL     1       0.778   2.994  19.916  0.00  0.00    +0.000 A 
ATOM     24  C   UNL     1       1.069   3.377  18.608  0.00  0.00    +0.000 A 
ATOM     25  C   UNL     1       1.945   4.440  18.364  0.00  0.00    +0.000 A 
ENDBRANCH  19  20
ENDBRANCH   4  19
TORSDOF 7
ENDMDL
MODEL 3
REMARK VINA RESULT:      -7.8      2.349      3.012
REMARK  Name = 
REMARK  7 active torsions:
REMARK  status: ('A' for Active; 'I' for Inactive)
REMARK    1  A    between atoms: C_2  and  O_3
REMARK    2  A    between atoms: C_2  and  C_4
REMARK    3  A    between atoms: C_4  and  N_5
REMARK    4  A    between atoms: C_6  and  C_8
REMARK    5  A    between atoms: C_11  and  S_12
REMARK    6  A    between atoms: S_12  and  C_13
REMARK    7  A    between atoms: C_19  and  N_20
REMARK                            x       y       z     vdW  Elec       q    Type
REMARK                         _______ _______ _______ _____ _____    ______ ____
ROOT
ATOM      1  C   UNL     1       5.623   4.826  15.963  0.00  0.00    +0.000 A 
ATOM      2  C   UNL     1       5.970   5.796  16.913  0.00  0.00    +0.000 A 
ATOM      3  C   UNL     1       5.203   5.963  18.077  0.00  0.00    +0.000 A 
ATOM      4  C   UNL     1       4.073   5.168  18.322  0.00  0.00    +0.000 A 
ATOM      5  C   UNL     1       3.747   4.206  17.354  0.00  0.00    +0.000 A 
ATOM      6  C   UNL     1       4.516   4.008  16.194  0.00  0.00    +0.000 A 
ENDROOT
BRANCH   1   8
ATOM      7  N   UNL     1       5.945   3.910  13.725  0.00  0.00    +0.000 N 
ATOM      8  C   UNL     1       6.456   4.686  14.739  0.00  0.00    +0.000 C 
ATOM      9  O   UNL     1       7.536   5.261  14.654  0.00  0.00    +0.000 OA
ATOM     10  H   UNL     1       4.985   3.576  13.732  0.00  0.00    +0.000 HD
BRANCH   7  11
ATOM     11  C   UNL     1       6.693   3.718  12.496  0.00  0.00    +0.000 C 
BRANCH  11  13
ATOM     12  O   UNL     1       4.970   2.377  11.433  0.00  0.00    +0.000 OA
ATOM     13  C   UNL     1       6.152   2.533  11.708  0.00  0.00    +0.000 C 
BRANCH  13  14
ATOM     14  O   UNL     1       7.115   1.659  11.328  0.00  0.00    +0.000 OA
ATOM     15  H   UNL     1       7.794   2.041  10.740  0.00  0.00    +0.000 HD
ENDBRANCH  13  14
ENDBRANCH  11  13
ENDBRANCH   7  11
ENDBRANCH   1   8
BRANCH   5  16
ATOM     16  N   UNL     1       2.563   3.381  17.485  0.00  0.00    +0.000 N 
ATOM     17  O   UNL     1       2.709   2.243  17.946  0.00  0.00    +0.000 OA
ATOM     18  O   UNL     1       1.483   3.912  17.195  0.00  0.00    +0.000 OA
ENDBRANCH   5  16
BRANCH   4  19
ATOM     19  S   UNL     1       3.098   5.532  19.774  0.00  0.00    +0.000 S 
BRANCH  19  20
ATOM     20  C   UNL     1       2.399   7.135  19.422  0.00  0.00    +0.000 A 
ATOM     21  C   UNL     1       2.437   7.631  18.112  0.00  0.00    +0.000 A 
ATOM     22  C   UNL     1       1.788   8.824  17.783  0.00  0.00    +0.000 A 
ATOM     23  C   UNL     1       1.090   9.528  18.760  0.00  0.00    +0.000 A 
ATOM     24  C   UNL     1       1.047   9.045  20.067  0.00  0.00    +0.000 A 
ATOM     25  C   UNL     1       1.697   7.851  20.397  0.00  0.00    +0.000 A 
ENDBRANCH  19  20
ENDBRANCH   4  19
TORSDOF 7
ENDMDL
MODEL 4
REMARK VINA RESULT:      -7.7      1.168      1.458
REMARK  Name = 
REMARK  7 active torsions:
REMARK  status: ('A' for Active; 'I' for Inactive)
REMARK    1  A    between atoms: C_2  and  O_3
REMARK    2  A    between atoms: C_2  and  C_4
REMARK    3  A    between atoms: C_4  and  N_5
REMARK    4  A    between atoms: C_6  and  C_8
REMARK    5  A    between atoms: C_11  and  S_12
REMARK    6  A    between atoms: S_12  and  C_13
REMARK    7  A    between atoms: C_19  and  N_20
REMARK                            x       y       z     vdW  Elec       q    Type
REMARK                         _______ _______ _______ _____ _____    ______ ____
ROOT
ATOM      1  C   UNL     1       6.280   5.007  15.527  0.00  0.00    +0.000 A 
ATOM      2  C   UNL     1       4.888   4.960  15.684  0.00  0.00    +0.000 A 
ATOM      3  C   UNL     1       4.299   5.245  16.925  0.00  0.00    +0.000 A 
ATOM      4  C   UNL     1       5.081   5.586  18.039  0.00  0.00    +0.000 A 
ATOM      5  C   UNL     1       6.472   5.624  17.854  0.00  0.00    +0.000 A 
ATOM      6  C   UNL     1       7.078   5.364  16.613  0.00  0.00    +0.000 A 
ENDROOT
BRANCH   1   8
ATOM      7  N   UNL     1       6.270   3.679  13.481  0.00  0.00    +0.000 N 
ATOM      8  C   UNL     1       6.866   4.690  14.197  0.00  0.00    +0.000 C 
ATOM      9  O   UNL     1       7.823   5.328  13.772  0.00  0.00    +0.000 OA
ATOM     10  H   UNL     1       5.382   3.270  13.760  0.00  0.00    +0.000 HD
BRANCH   7  11
ATOM     11  C   UNL     1       6.778   3.301  12.175  0.00  0.00    +0.000 C 
BRANCH  11  13
ATOM     12  O   UNL     1       4.692   2.459  11.263  0.00  0.00    +0.000 OA
ATOM     13  C   UNL     1       5.874   2.271  11.514  0.00  0.00    +0.000 C 
BRANCH  13  14
ATOM     14  O   UNL     1       6.512   1.111  11.218  0.00  0.00    +0.000 OA
ATOM     15  H   UNL     1       7.226   1.203  10.559  0.00  0.00    +0.000 HD
ENDBRANCH  13  14
ENDBRANCH  11  13
ENDBRANCH   7  11
ENDBRANCH   1   8
BRANCH   5  16
ATOM     16  N   UNL     1       7.367   5.902  18.959  0.00  0.00    +0.000 N 
ATOM     17  O   UNL     1       7.349   5.123  19.918  0.00  0.00    +0.000 OA
ATOM     18  O   UNL     1       8.140   6.861  18.819  0.00  0.00    +0.000 OA
ENDBRANCH   5  16
BRANCH   4  19
ATOM     19  S   UNL     1       4.248   5.820  19.602  0.00  0.00    +0.000 S 
BRANCH  19  20
ATOM     20  C   UNL     1       3.131   4.432  19.698  0.00  0.00    +0.000 A 
ATOM     21  C   UNL     1       1.795   4.647  20.062  0.00  0.00    +0.000 A 
ATOM     22  C   UNL     1       0.870   3.600  20.025  0.00  0.00    +0.000 A 
ATOM     23  C   UNL     1       1.272   2.331  19.614  0.00  0.00    +0.000 A 
ATOM     24  C   UNL     1       2.598   2.107  19.251  0.00  0.00    +0.000 A 
ATOM     25  C   UNL     1       3.525   3.154  19.289  0.00  0.00    +0.000 A 
ENDBRANCH  19  20
ENDBRANCH   4  19
TORSDOF 7
ENDMDL
MODEL 5
REMARK VINA RESULT:      -7.6      1.192      1.471
REMARK  Name = 
REMARK  7 active torsions:
REMARK  status: ('A' for Active; 'I' for Inactive)
REMARK    1  A    between atoms: C_2  and  O_3
REMARK    2  A    between atoms: C_2  and  C_4
REMARK    3  A    between atoms: C_4  and  N_5
REMARK    4  A    between atoms: C_6  and  C_8
REMARK    5  A    between atoms: C_11  and  S_12
REMARK    6  A    between atoms: S_12  and  C_13
REMARK    7  A    between atoms: C_19  and  N_20
REMARK                            x       y       z     vdW  Elec       q    Type
REMARK                         _______ _______ _______ _____ _____    ______ ____
ROOT
ATOM      1  C   UNL     1       6.339   4.976  15.498  0.00  0.00    +0.000 A 
ATOM      2  C   UNL     1       4.961   4.811  15.687  0.00  0.00    +0.000 A 
ATOM      3  C   UNL     1       4.379   5.039  16.943  0.00  0.00    +0.000 A 
ATOM      4  C   UNL     1       5.156   5.438  18.042  0.00  0.00    +0.000 A 
ATOM      5  C   UNL     1       6.534   5.593  17.825  0.00  0.00    +0.000 A 
ATOM      6  C   UNL     1       7.131   5.392  16.569  0.00  0.00    +0.000 A 
ENDROOT
BRANCH   1   8
ATOM      7  N   UNL     1       6.337   3.716  13.409  0.00  0.00    +0.000 N 
ATOM      8  C   UNL     1       6.918   4.716  14.152  0.00  0.00    +0.000 C 
ATOM      9  O   UNL     1       7.857   5.390  13.740  0.00  0.00    +0.000 OA
ATOM     10  H   UNL     1       5.462   3.278  13.683  0.00  0.00    +0.000 HD
BRANCH   7  11
ATOM     11  C   UNL     1       6.841   3.394  12.087  0.00  0.00    +0.000 C 
BRANCH  11  13
ATOM     12  O   UNL     1       4.882   2.220  11.261  0.00  0.00    +0.000 OA
ATOM     13  C   UNL     1       6.084   2.217  11.487  0.00  0.00    +0.000 C 
BRANCH  13  14
ATOM     14  O   UNL     1       6.879   1.153  11.215  0.00  0.00    +0.000 OA
ATOM     15  H   UNL     1       6.548   0.305  11.566  0.00  0.00    +0.000 HD
ENDBRANCH  13  14
ENDBRANCH  11  13
ENDBRANCH   7  11
ENDBRANCH   1   8
BRANCH   5  16
ATOM     16  N   UNL     1       7.429   5.938  18.911  0.00  0.00    +0.000 N 
ATOM     17  O   UNL     1       8.148   6.933  18.763  0.00  0.00    +0.000 OA
ATOM     18  O   UNL     1       7.347   5.250  19.938  0.00  0.00    +0.000 OA
ENDBRANCH   5  16
BRANCH   4  19
ATOM     19  S   UNL     1       4.343   5.593  19.625  0.00  0.00    +0.000 S 
BRANCH  19  20
ATOM     20  C   UNL     1       3.052   4.364  19.559  0.00  0.00    +0.000 A 
ATOM     21  C   UNL     1       3.383   3.032  19.271  0.00  0.00    +0.000 A 
ATOM     22  C   UNL     1       2.413   2.028  19.336  0.00  0.00    +0.000 A 
ATOM     23  C   UNL     1       1.106   2.346  19.697  0.00  0.00    +0.000 A 
ATOM     24  C   UNL     1       0.766   3.666  19.984  0.00  0.00    +0.000 A 
ATOM     25  C   UNL     1       1.736   4.672  19.918  0.00  0.00    +0.000 A 
ENDBRANCH  19  20
ENDBRANCH   4  19
TORSDOF 7
ENDMDL
MODEL 6
REMARK VINA RESULT:      -7.6      2.465      3.351
REMARK  Name = 
REMARK  7 active torsions:
REMARK  status: ('A' for Active; 'I' for Inactive)
REMARK    1  A    between atoms: C_2  and  O_3
REMARK    2  A    between atoms: C_2  and  C_4
REMARK    3  A    between atoms: C_4  and  N_5
REMARK    4  A    between atoms: C_6  and  C_8
REMARK    5  A    between atoms: C_11  and  S_12
REMARK    6  A    between atoms: S_12  and  C_13
REMARK    7  A    between atoms: C_19  and  N_20
REMARK                            x       y       z     vdW  Elec       q    Type
REMARK                         _______ _______ _______ _____ _____    ______ ____
ROOT
ATOM      1  C   UNL     1       5.449   4.643  16.262  0.00  0.00    +0.000 A 
ATOM      2  C   UNL     1       5.882   5.568  17.221  0.00  0.00    +0.000 A 
ATOM      3  C   UNL     1       5.121   5.812  18.375  0.00  0.00    +0.000 A 
ATOM      4  C   UNL     1       3.910   5.140  18.600  0.00  0.00    +0.000 A 
ATOM      5  C   UNL     1       3.498   4.221  17.623  0.00  0.00    +0.000 A 
ATOM      6  C   UNL     1       4.259   3.946  16.474  0.00  0.00    +0.000 A 
ENDROOT
BRANCH   1   8
ATOM      7  N   UNL     1       5.643   3.907  13.944  0.00  0.00    +0.000 N 
ATOM      8  C   UNL     1       6.281   4.419  15.049  0.00  0.00    +0.000 C 
ATOM      9  O   UNL     1       7.473   4.704  15.054  0.00  0.00    +0.000 OA
ATOM     10  H   UNL     1       4.631   3.831  13.892  0.00  0.00    +0.000 HD
BRANCH   7  11
ATOM     11  C   UNL     1       6.379   3.655  12.719  0.00  0.00    +0.000 C 
BRANCH  11  13
ATOM     12  O   UNL     1       6.009   1.674  11.365  0.00  0.00    +0.000 OA
ATOM     13  C   UNL     1       5.592   2.743  11.788  0.00  0.00    +0.000 C 
BRANCH  13  14
ATOM     14  O   UNL     1       4.367   3.229  11.473  0.00  0.00    +0.000 OA
ATOM     15  H   UNL     1       3.710   3.158  12.192  0.00  0.00    +0.000 HD
ENDBRANCH  13  14
ENDBRANCH  11  13
ENDBRANCH   7  11
ENDBRANCH   1   8
BRANCH   5  16
ATOM     16  N   UNL     1       2.232   3.526  17.734  0.00  0.00    +0.000 N 
ATOM     17  O   UNL     1       2.236   2.415  18.276  0.00  0.00    +0.000 OA
ATOM     18  O   UNL     1       1.228   4.137  17.342  0.00  0.00    +0.000 OA
ENDBRANCH   5  16
BRANCH   4  19
ATOM     19  S   UNL     1       2.958   5.602  20.039  0.00  0.00    +0.000 S 
BRANCH  19  20
ATOM     20  C   UNL     1       2.185   7.136  19.561  0.00  0.00    +0.000 A 
ATOM     21  C   UNL     1       1.561   7.928  20.535  0.00  0.00    +0.000 A 
ATOM     22  C   UNL     1       1.059   9.191  20.212  0.00  0.00    +0.000 A 
ATOM     23  C   UNL     1       1.182   9.677  18.913  0.00  0.00    +0.000 A 
ATOM     24  C   UNL     1       1.798   8.898  17.935  0.00  0.00    +0.000 A 
ATOM     25  C   UNL     1       2.301   7.633  18.258  0.00  0.00    +0.000 A 
ENDBRANCH  19  20
ENDBRANCH   4  19
TORSDOF 7
ENDMDL
MODEL 7
REMARK VINA RESULT:      -7.5      1.407      1.727
REMARK  Name = 
REMARK  7 active torsions:
REMARK  status: ('A' for Active; 'I' for Inactive)
REMARK    1  A    between atoms: C_2  and  O_3
REMARK    2  A    between atoms: C_2  and  C_4
REMARK    3  A    between atoms: C_4  and  N_5
REMARK    4  A    between atoms: C_6  and  C_8
REMARK    5  A    between atoms: C_11  and  S_12
REMARK    6  A    between atoms: S_12  and  C_13
REMARK    7  A    between atoms: C_19  and  N_20
REMARK                            x       y       z     vdW  Elec       q    Type
REMARK                         _______ _______ _______ _____ _____    ______ ____
ROOT
ATOM      1  C   UNL     1       6.363   4.745  15.450  0.00  0.00    +0.000 A 
ATOM      2  C   UNL     1       5.052   4.405  15.809  0.00  0.00    +0.000 A 
ATOM      3  C   UNL     1       4.604   4.576  17.128  0.00  0.00    +0.000 A 
ATOM      4  C   UNL     1       5.452   5.091  18.121  0.00  0.00    +0.000 A 
ATOM      5  C   UNL     1       6.760   5.422  17.735  0.00  0.00    +0.000 A 
ATOM      6  C   UNL     1       7.218   5.279  16.414  0.00  0.00    +0.000 A 
ENDROOT
BRANCH   1   8
ATOM      7  N   UNL     1       6.240   3.483  13.366  0.00  0.00    +0.000 N 
ATOM      8  C   UNL     1       6.802   4.540  14.044  0.00  0.00    +0.000 C 
ATOM      9  O   UNL     1       7.611   5.304  13.529  0.00  0.00    +0.000 OA
ATOM     10  H   UNL     1       5.453   2.960  13.739  0.00  0.00    +0.000 HD
BRANCH   7  11
ATOM     11  C   UNL     1       6.613   3.209  11.991  0.00  0.00    +0.000 C 
BRANCH  11  13
ATOM     12  O   UNL     1       6.047   1.036  11.066  0.00  0.00    +0.000 OA
ATOM     13  C   UNL     1       5.692   2.166  11.374  0.00  0.00    +0.000 C 
BRANCH  13  14
ATOM     14  O   UNL     1       4.422   2.608  11.202  0.00  0.00    +0.000 OA
ATOM     15  H   UNL     1       3.945   2.183  10.464  0.00  0.00    +0.000 HD
ENDBRANCH  13  14
ENDBRANCH  11  13
ENDBRANCH   7  11
ENDBRANCH   1   8
BRANCH   5  16
ATOM     16  N   UNL     1       7.728   5.900  18.701  0.00  0.00    +0.000 N 
ATOM     17  O   UNL     1       8.177   5.082  19.512  0.00  0.00    +0.000 OA
ATOM     18  O   UNL     1       8.089   7.080  18.587  0.00  0.00    +0.000 OA
ENDBRANCH   5  16
BRANCH   4  19
ATOM     19  S   UNL     1       4.826   5.166  19.793  0.00  0.00    +0.000 S 
BRANCH  19  20
ATOM     20  C   UNL     1       3.291   4.262  19.710  0.00  0.00    +0.000 A 
ATOM     21  C   UNL     1       3.318   2.872  19.535  0.00  0.00    +0.000 A 
ATOM     22  C   UNL     1       2.140   2.123  19.592  0.00  0.00    +0.000 A 
ATOM     23  C   UNL     1       0.924   2.759  19.832  0.00  0.00    +0.000 A 
ATOM     24  C   UNL     1       0.884   4.141  20.006  0.00  0.00    +0.000 A 
ATOM     25  C   UNL     1       2.064   4.891  19.948  0.00  0.00    +0.000 A 
ENDBRANCH  19  20
ENDBRANCH   4  19
TORSDOF 7
ENDMDL
MODEL 8
REMARK VINA RESULT:      -7.2      5.463      7.133
REMARK  Name = 
REMARK  7 active torsions:
REMARK  status: ('A' for Active; 'I' for Inactive)
REMARK    1  A    between atoms: C_2  and  O_3
REMARK    2  A    between atoms: C_2  and  C_4
REMARK    3  A    between atoms: C_4  and  N_5
REMARK    4  A    between atoms: C_6  and  C_8
REMARK    5  A    between atoms: C_11  and  S_12
REMARK    6  A    between atoms: S_12  and  C_13
REMARK    7  A    between atoms: C_19  and  N_20
REMARK                            x       y       z     vdW  Elec       q    Type
REMARK                         _______ _______ _______ _____ _____    ______ ____
ROOT
ATOM      1  C   UNL     1       2.391   7.503  18.821  0.00  0.00    +0.000 A 
ATOM      2  C   UNL     1       2.334   8.447  17.786  0.00  0.00    +0.000 A 
ATOM      3  C   UNL     1       1.683   9.676  17.974  0.00  0.00    +0.000 A 
ATOM      4  C   UNL     1       1.073   9.995  19.198  0.00  0.00    +0.000 A 
ATOM      5  C   UNL     1       1.144   9.031  20.216  0.00  0.00    +0.000 A 
ATOM      6  C   UNL     1       1.812   7.805  20.053  0.00  0.00    +0.000 A 
ENDROOT
BRANCH   1   8
ATOM      7  N   UNL     1       4.345   6.272  18.036  0.00  0.00    +0.000 N 
ATOM      8  C   UNL     1       3.083   6.209  18.578  0.00  0.00    +0.000 C 
ATOM      9  O   UNL     1       2.541   5.150  18.876  0.00  0.00    +0.000 OA
ATOM     10  H   UNL     1       4.852   7.149  17.948  0.00  0.00    +0.000 HD
BRANCH   7  11
ATOM     11  C   UNL     1       5.092   5.058  17.764  0.00  0.00    +0.000 C 
BRANCH  11  13
ATOM     12  O   UNL     1       6.521   5.201  19.721  0.00  0.00    +0.000 OA
ATOM     13  C   UNL     1       5.765   4.537  19.026  0.00  0.00    +0.000 C 
BRANCH  13  14
ATOM     14  O   UNL     1       5.437   3.254  19.316  0.00  0.00    +0.000 OA
ATOM     15  H   UNL     1       5.939   2.871  20.061  0.00  0.00    +0.000 HD
ENDBRANCH  13  14
ENDBRANCH  11  13
ENDBRANCH   7  11
ENDBRANCH   1   8
BRANCH   5  16
ATOM     16  N   UNL     1       0.491   9.240  21.492  0.00  0.00    +0.000 N 
ATOM     17  O   UNL     1      -0.569   8.637  21.696  0.00  0.00    +0.000 OA
ATOM     18  O   UNL     1       1.089   9.951  22.311  0.00  0.00    +0.000 OA
ENDBRANCH   5  16
BRANCH   4  19
ATOM     19  S   UNL     1       0.173  11.534  19.303  0.00  0.00    +0.000 S 
BRANCH  19  20
ATOM     20  C   UNL     1      -1.463  11.106  18.736  0.00  0.00    +0.000 A 
ATOM     21  C   UNL     1      -2.551  11.911  19.099  0.00  0.00    +0.000 A 
ATOM     22  C   UNL     1      -3.822  11.673  18.569  0.00  0.00    +0.000 A 
ATOM     23  C   UNL     1      -4.014  10.631  17.664  0.00  0.00    +0.000 A 
ATOM     24  C   UNL     1      -2.939   9.824  17.296  0.00  0.00    +0.000 A 
ATOM     25  C   UNL     1      -1.667  10.061  17.828  0.00  0.00    +0.000 A 
ENDBRANCH  19  20
ENDBRANCH   4  19
TORSDOF 7
ENDMDL
MODEL 9
REMARK VINA RESULT:      -7.2      2.108      2.795
REMARK  Name = 
REMARK  7 active torsions:
REMARK  status: ('A' for Active; 'I' for Inactive)
REMARK    1  A    between atoms: C_2  and  O_3
REMARK    2  A    between atoms: C_2  and  C_4
REMARK    3  A    between atoms: C_4  and  N_5
REMARK    4  A    between atoms: C_6  and  C_8
REMARK    5  A    between atoms: C_11  and  S_12
REMARK    6  A    between atoms: S_12  and  C_13
REMARK    7  A    between atoms: C_19  and  N_20
REMARK                            x       y       z     vdW  Elec       q    Type
REMARK                         _______ _______ _______ _____ _____    ______ ____
ROOT
ATOM      1  C   UNL     1       5.528   4.979  16.060  0.00  0.00    +0.000 A 
ATOM      2  C   UNL     1       5.124   6.274  16.411  0.00  0.00    +0.000 A 
ATOM      3  C   UNL     1       4.381   6.498  17.581  0.00  0.00    +0.000 A 
ATOM      4  C   UNL     1       4.024   5.438  18.428  0.00  0.00    +0.000 A 
ATOM      5  C   UNL     1       4.440   4.152  18.051  0.00  0.00    +0.000 A 
ATOM      6  C   UNL     1       5.204   3.911  16.897  0.00  0.00    +0.000 A 
ENDROOT
BRANCH   1   8
ATOM      7  N   UNL     1       5.747   3.972  13.848  0.00  0.00    +0.000 N 
ATOM      8  C   UNL     1       6.307   4.782  14.808  0.00  0.00    +0.000 C 
ATOM      9  O   UNL     1       7.386   5.344  14.654  0.00  0.00    +0.000 OA
ATOM     10  H   UNL     1       4.787   3.647  13.910  0.00  0.00    +0.000 HD
BRANCH   7  11
ATOM     11  C   UNL     1       6.440   3.723  12.598  0.00  0.00    +0.000 C 
BRANCH  11  13
ATOM     12  O   UNL     1       4.545   2.819  11.379  0.00  0.00    +0.000 OA
ATOM     13  C   UNL     1       5.700   2.690  11.760  0.00  0.00    +0.000 C 
BRANCH  13  14
ATOM     14  O   UNL     1       6.453   1.602  11.465  0.00  0.00    +0.000 OA
ATOM     15  H   UNL     1       6.100   0.763  11.815  0.00  0.00    +0.000 HD
ENDBRANCH  13  14
ENDBRANCH  11  13
ENDBRANCH   7  11
ENDBRANCH   1   8
BRANCH   5  16
ATOM     16  N   UNL     1       4.066   2.986  18.826  0.00  0.00    +0.000 N 
ATOM     17  O   UNL     1       4.799   2.669  19.770  0.00  0.00    +0.000 OA
ATOM     18  O   UNL     1       2.994   2.442  18.527  0.00  0.00    +0.000 OA
ENDBRANCH   5  16
BRANCH   4  19
ATOM     19  S   UNL     1       2.982   5.809  19.831  0.00  0.00    +0.000 S 
BRANCH  19  20
ATOM     20  C   UNL     1       2.273   7.394  19.424  0.00  0.00    +0.000 A 
ATOM     21  C   UNL     1       2.221   7.802  18.084  0.00  0.00    +0.000 A 
ATOM     22  C   UNL     1       1.561   8.980  17.723  0.00  0.00    +0.000 A 
ATOM     23  C   UNL     1       0.940   9.756  18.699  0.00  0.00    +0.000 A 
ATOM     24  C   UNL     1       0.987   9.360  20.035  0.00  0.00    +0.000 A 
ATOM     25  C   UNL     1       1.649   8.182  20.397  0.00  0.00    +0.000 A 
ENDBRANCH  19  20
ENDBRANCH   4  19
TORSDOF 7
ENDMDL
