MODEL 1
REMARK VINA RESULT:      -8.7      0.000      0.000
REMARK  Name = 
REMARK  11 active torsions:
REMARK  status: ('A' for Active; 'I' for Inactive)
REMARK    1  A    between atoms: C_1  and  C_2
REMARK    2  A    between atoms: C_3  and  C_4
REMARK    3  A    between atoms: N_6  and  C_7
REMARK    4  A    between atoms: C_7  and  C_8
REMARK    5  A    between atoms: C_7  and  C_9
REMARK    6  A    between atoms: C_9  and  O_10
REMARK    7  A    between atoms: O_10  and  C_11
REMARK    8  A    between atoms: C_20  and  C_21
REMARK    9  A    between atoms: C_24  and  C_25
REMARK   10  A    between atoms: C_25  and  C_26
REMARK   11  A    between atoms: C_25  and  C_27
REMARK                            x       y       z     vdW  Elec       q    Type
REMARK                         _______ _______ _______ _____ _____    ______ ____
ROOT
ATOM      1  C   UNL     1       0.666   8.711  21.437  0.00  0.00    +0.000 C 
ATOM      2  C   UNL     1       1.223   8.770  20.032  0.00  0.00    +0.000 A 
ATOM      3  C   UNL     1       1.050   9.755  19.112  0.00  0.00    +0.000 A 
ATOM      4  C   UNL     1       1.766   9.529  17.818  0.00  0.00    +0.000 A 
ATOM      5  N   UNL     1       2.487   8.502  17.485  0.00  0.00    +0.000 NA
ATOM      6  C   UNL     1       2.621   7.532  18.440  0.00  0.00    +0.000 A 
ATOM      7  C   UNL     1       3.304   6.328  18.456  0.00  0.00    +0.000 A 
ATOM      8  C   UNL     1       3.049   5.793  19.732  0.00  0.00    +0.000 A 
ATOM      9  N   UNL     1       2.276   6.574  20.481  0.00  0.00    +0.000 NA
ATOM     10  N   UNL     1       2.005   7.650  19.692  0.00  0.00    +0.000 N 
ENDROOT
BRANCH   7  11
ATOM     11  C   UNL     1       4.089   5.779  17.363  0.00  0.00    +0.000 A 
ATOM     12  C   UNL     1       4.823   6.608  16.509  0.00  0.00    +0.000 A 
ATOM     13  C   UNL     1       5.578   6.071  15.464  0.00  0.00    +0.000 A 
ATOM     14  C   UNL     1       5.625   4.688  15.253  0.00  0.00    +0.000 A 
ATOM     15  C   UNL     1       4.896   3.856  16.113  0.00  0.00    +0.000 A 
ATOM     16  C   UNL     1       4.137   4.395  17.157  0.00  0.00    +0.000 A 
BRANCH  14  17
ATOM     17  C   UNL     1       6.451   4.132  14.110  0.00  0.00    +0.000 C 
ATOM     18  C   UNL     1       5.564   3.627  12.970  0.00  0.00    +0.000 C 
ATOM     19  C   UNL     1       7.468   5.157  13.605  0.00  0.00    +0.000 C 
ENDBRANCH  14  17
ENDBRANCH   7  11
BRANCH   3  20
ATOM     20  C   UNL     1       0.283  11.006  19.395  0.00  0.00    +0.000 C 
ATOM     21  O   UNL     1       0.849  11.979  19.873  0.00  0.00    +0.000 OA
ATOM     22  N   UNL     1      -1.061  11.025  19.080  0.00  0.00    +0.000 N 
ATOM     23  H   UNL     1      -1.542  10.150  18.897  0.00  0.00    +0.000 HD
BRANCH  22  24
ATOM     24  C   UNL     1      -1.952  12.123  19.504  0.00  0.00    +0.000 C 
ATOM     25  C   UNL     1      -3.378  12.048  18.933  0.00  0.00    +0.000 C 
BRANCH  24  26
ATOM     26  C   UNL     1      -2.102  12.174  21.038  0.00  0.00    +0.000 C 
BRANCH  26  27
ATOM     27  O   UNL     1      -2.831  13.326  21.468  0.00  0.00    +0.000 OA
BRANCH  27  28
ATOM     28  C   UNL     1      -3.750  13.067  22.459  0.00  0.00    +0.000 A 
ATOM     29  C   UNL     1      -5.087  13.257  22.106  0.00  0.00    +0.000 A 
ATOM     30  C   UNL     1      -6.104  13.039  23.041  0.00  0.00    +0.000 A 
ATOM     31  C   UNL     1      -5.791  12.615  24.331  0.00  0.00    +0.000 A 
ATOM     32  C   UNL     1      -4.464  12.401  24.686  0.00  0.00    +0.000 A 
ATOM     33  C   UNL     1      -3.447  12.622  23.753  0.00  0.00    +0.000 A 
ENDBRANCH  27  28
ENDBRANCH  26  27
ENDBRANCH  24  26
ENDBRANCH  22  24
ENDBRANCH   3  20
TORSDOF 7
ENDMDL
MODEL 2
REMARK VINA RESULT:      -8.5      2.730     10.872
REMARK  Name = 
REMARK  11 active torsions:
REMARK  status: ('A' for Active; 'I' for Inactive)
REMARK    1  A    between atoms: C_1  and  C_2
REMARK    2  A    between atoms: C_3  and  C_4
REMARK    3  A    between atoms: N_6  and  C_7
REMARK    4  A    between atoms: C_7  and  C_8
REMARK    5  A    between atoms: C_7  and  C_9
REMARK    6  A    between atoms: C_9  and  O_10
REMARK    7  A    between atoms: O_10  and  C_11
REMARK    8  A    between atoms: C_20  and  C_21
REMARK    9  A    between atoms: C_24  and  C_25
REMARK   10  A    between atoms: C_25  and  C_26
REMARK   11  A    between atoms: C_25  and  C_27
REMARK                            x       y       z     vdW  Elec       q    Type
REMARK                         _______ _______ _______ _____ _____    ______ ____
ROOT
ATOM      1  C   UNL     1       2.957   8.169  17.665  0.00  0.00    +0.000 C 
ATOM      2  C   UNL     1       2.069   8.156  18.889  0.00  0.00    +0.000 A 
ATOM      3  C   UNL     1       1.890   7.140  19.773  0.00  0.00    +0.000 A 
ATOM      4  C   UNL     1       0.966   7.457  20.906  0.00  0.00    +0.000 A 
ATOM      5  N   UNL     1       0.312   8.561  21.103  0.00  0.00    +0.000 NA
ATOM      6  C   UNL     1       0.516   9.550  20.180  0.00  0.00    +0.000 A 
ATOM      7  C   UNL     1       0.016  10.835  20.065  0.00  0.00    +0.000 A 
ATOM      8  C   UNL     1       0.613  11.343  18.897  0.00  0.00    +0.000 A 
ATOM      9  N   UNL     1       1.427  10.474  18.305  0.00  0.00    +0.000 NA
ATOM     10  N   UNL     1       1.374   9.363  19.088  0.00  0.00    +0.000 N 
ENDROOT
BRANCH   7  11
ATOM     11  C   UNL     1      -0.923  11.469  20.976  0.00  0.00    +0.000 A 
ATOM     12  C   UNL     1      -1.971  12.264  20.500  0.00  0.00    +0.000 A 
ATOM     13  C   UNL     1      -2.870  12.865  21.382  0.00  0.00    +0.000 A 
ATOM     14  C   UNL     1      -2.749  12.679  22.764  0.00  0.00    +0.000 A 
ATOM     15  C   UNL     1      -1.704  11.877  23.241  0.00  0.00    +0.000 A 
ATOM     16  C   UNL     1      -0.801  11.278  22.358  0.00  0.00    +0.000 A 
BRANCH  14  17
ATOM     17  C   UNL     1      -3.739  13.345  23.700  0.00  0.00    +0.000 C 
ATOM     18  C   UNL     1      -4.893  13.991  22.929  0.00  0.00    +0.000 C 
ATOM     19  C   UNL     1      -4.260  12.366  24.752  0.00  0.00    +0.000 C 
ENDBRANCH  14  17
ENDBRANCH   7  11
BRANCH   3  20
ATOM     20  C   UNL     1       2.622   5.840  19.678  0.00  0.00    +0.000 C 
ATOM     21  O   UNL     1       3.806   5.779  19.978  0.00  0.00    +0.000 OA
ATOM     22  N   UNL     1       1.914   4.728  19.265  0.00  0.00    +0.000 N 
ATOM     23  H   UNL     1       1.011   4.851  18.818  0.00  0.00    +0.000 HD
BRANCH  22  24
ATOM     24  C   UNL     1       2.579   3.451  18.937  0.00  0.00    +0.000 C 
ATOM     25  C   UNL     1       1.728   2.199  19.203  0.00  0.00    +0.000 C 
BRANCH  24  26
ATOM     26  C   UNL     1       2.991   3.388  17.453  0.00  0.00    +0.000 C 
BRANCH  26  27
ATOM     27  O   UNL     1       4.391   3.141  17.295  0.00  0.00    +0.000 OA
BRANCH  27  28
ATOM     28  C   UNL     1       5.150   4.283  17.185  0.00  0.00    +0.000 A 
ATOM     29  C   UNL     1       6.232   4.375  18.062  0.00  0.00    +0.000 A 
ATOM     30  C   UNL     1       7.061   5.501  18.050  0.00  0.00    +0.000 A 
ATOM     31  C   UNL     1       6.822   6.537  17.148  0.00  0.00    +0.000 A 
ATOM     32  C   UNL     1       5.761   6.445  16.255  0.00  0.00    +0.000 A 
ATOM     33  C   UNL     1       4.930   5.321  16.270  0.00  0.00    +0.000 A 
ENDBRANCH  27  28
ENDBRANCH  26  27
ENDBRANCH  24  26
ENDBRANCH  22  24
ENDBRANCH   3  20
TORSDOF 7
ENDMDL
MODEL 3
REMARK VINA RESULT:      -8.5      0.349      1.242
REMARK  Name = 
REMARK  11 active torsions:
REMARK  status: ('A' for Active; 'I' for Inactive)
REMARK    1  A    between atoms: C_1  and  C_2
REMARK    2  A    between atoms: C_3  and  C_4
REMARK    3  A    between atoms: N_6  and  C_7
REMARK    4  A    between atoms: C_7  and  C_8
REMARK    5  A    between atoms: C_7  and  C_9
REMARK    6  A    between atoms: C_9  and  O_10
REMARK    7  A    between atoms: O_10  and  C_11
REMARK    8  A    between atoms: C_20  and  C_21
REMARK    9  A    between atoms: C_24  and  C_25
REMARK   10  A    between atoms: C_25  and  C_26
REMARK   11  A    between atoms: C_25  and  C_27
REMARK                            x       y       z     vdW  Elec       q    Type
REMARK                         _______ _______ _______ _____ _____    ______ ____
ROOT
ATOM      1  C   UNL     1       0.371   9.017  21.435  0.00  0.00    +0.000 C 
ATOM      2  C   UNL     1       0.960   9.011  20.042  0.00  0.00    +0.000 A 
ATOM      3  C   UNL     1       0.809   9.952  19.073  0.00  0.00    +0.000 A 
ATOM      4  C   UNL     1       1.556   9.667  17.808  0.00  0.00    +0.000 A 
ATOM      5  N   UNL     1       2.283   8.626  17.541  0.00  0.00    +0.000 NA
ATOM      6  C   UNL     1       2.396   7.702  18.543  0.00  0.00    +0.000 A 
ATOM      7  C   UNL     1       3.078   6.501  18.631  0.00  0.00    +0.000 A 
ATOM      8  C   UNL     1       2.793   6.026  19.925  0.00  0.00    +0.000 A 
ATOM      9  N   UNL     1       2.003   6.841  20.618  0.00  0.00    +0.000 NA
ATOM     10  N   UNL     1       1.750   7.878  19.774  0.00  0.00    +0.000 N 
ENDROOT
BRANCH   7  11
ATOM     11  C   UNL     1       3.889   5.902  17.584  0.00  0.00    +0.000 A 
ATOM     12  C   UNL     1       3.915   4.518  17.388  0.00  0.00    +0.000 A 
ATOM     13  C   UNL     1       4.694   3.952  16.377  0.00  0.00    +0.000 A 
ATOM     14  C   UNL     1       5.461   4.760  15.529  0.00  0.00    +0.000 A 
ATOM     15  C   UNL     1       5.430   6.148  15.719  0.00  0.00    +0.000 A 
ATOM     16  C   UNL     1       4.652   6.714  16.735  0.00  0.00    +0.000 A 
BRANCH  14  17
ATOM     17  C   UNL     1       6.299   4.120  14.440  0.00  0.00    +0.000 C 
ATOM     18  C   UNL     1       5.428   3.602  13.292  0.00  0.00    +0.000 C 
ATOM     19  C   UNL     1       7.375   5.078  13.926  0.00  0.00    +0.000 C 
ENDBRANCH  14  17
ENDBRANCH   7  11
BRANCH   3  20
ATOM     20  C   UNL     1       0.035  11.214  19.279  0.00  0.00    +0.000 C 
ATOM     21  O   UNL     1       0.617  12.251  19.569  0.00  0.00    +0.000 OA
ATOM     22  N   UNL     1      -1.334  11.167  19.109  0.00  0.00    +0.000 N 
ATOM     23  H   UNL     1      -1.803  10.267  19.088  0.00  0.00    +0.000 HD
BRANCH  22  24
ATOM     24  C   UNL     1      -2.211  12.293  19.487  0.00  0.00    +0.000 C 
ATOM     25  C   UNL     1      -3.670  12.153  19.022  0.00  0.00    +0.000 C 
BRANCH  24  26
ATOM     26  C   UNL     1      -2.260  12.489  21.015  0.00  0.00    +0.000 C 
BRANCH  26  27
ATOM     27  O   UNL     1      -3.131  13.558  21.392  0.00  0.00    +0.000 OA
BRANCH  27  28
ATOM     28  C   UNL     1      -4.005  13.235  22.405  0.00  0.00    +0.000 A 
ATOM     29  C   UNL     1      -3.436  12.610  23.516  0.00  0.00    +0.000 A 
ATOM     30  C   UNL     1      -4.234  12.223  24.597  0.00  0.00    +0.000 A 
ATOM     31  C   UNL     1      -5.605  12.473  24.581  0.00  0.00    +0.000 A 
ATOM     32  C   UNL     1      -6.178  13.116  23.489  0.00  0.00    +0.000 A 
ATOM     33  C   UNL     1      -5.381  13.499  22.407  0.00  0.00    +0.000 A 
ENDBRANCH  27  28
ENDBRANCH  26  27
ENDBRANCH  24  26
ENDBRANCH  22  24
ENDBRANCH   3  20
TORSDOF 7
ENDMDL
MODEL 4
REMARK VINA RESULT:      -8.4      1.178      1.604
REMARK  Name = 
REMARK  11 active torsions:
REMARK  status: ('A' for Active; 'I' for Inactive)
REMARK    1  A    between atoms: C_1  and  C_2
REMARK    2  A    between atoms: C_3  and  C_4
REMARK    3  A    between atoms: N_6  and  C_7
REMARK    4  A    between atoms: C_7  and  C_8
REMARK    5  A    between atoms: C_7  and  C_9
REMARK    6  A    between atoms: C_9  and  O_10
REMARK    7  A    between atoms: O_10  and  C_11
REMARK    8  A    between atoms: C_20  and  C_21
REMARK    9  A    between atoms: C_24  and  C_25
REMARK   10  A    between atoms: C_25  and  C_26
REMARK   11  A    between atoms: C_25  and  C_27
REMARK                            x       y       z     vdW  Elec       q    Type
REMARK                         _______ _______ _______ _____ _____    ______ ____
ROOT
ATOM      1  C   UNL     1       0.636   8.797  21.467  0.00  0.00    +0.000 C 
ATOM      2  C   UNL     1       1.221   8.849  20.074  0.00  0.00    +0.000 A 
ATOM      3  C   UNL     1       1.122   9.857  19.169  0.00  0.00    +0.000 A 
ATOM      4  C   UNL     1       1.848   9.614  17.884  0.00  0.00    +0.000 A 
ATOM      5  N   UNL     1       2.515   8.554  17.545  0.00  0.00    +0.000 NA
ATOM      6  C   UNL     1       2.578   7.561  18.484  0.00  0.00    +0.000 A 
ATOM      7  C   UNL     1       3.191   6.321  18.490  0.00  0.00    +0.000 A 
ATOM      8  C   UNL     1       2.883   5.780  19.752  0.00  0.00    +0.000 A 
ATOM      9  N   UNL     1       2.141   6.590  20.501  0.00  0.00    +0.000 NA
ATOM     10  N   UNL     1       1.946   7.692  19.727  0.00  0.00    +0.000 N 
ENDROOT
BRANCH   7  11
ATOM     11  C   UNL     1       3.965   5.748  17.401  0.00  0.00    +0.000 A 
ATOM     12  C   UNL     1       4.699   6.556  16.528  0.00  0.00    +0.000 A 
ATOM     13  C   UNL     1       5.443   5.996  15.488  0.00  0.00    +0.000 A 
ATOM     14  C   UNL     1       5.477   4.609  15.300  0.00  0.00    +0.000 A 
ATOM     15  C   UNL     1       4.748   3.798  16.178  0.00  0.00    +0.000 A 
ATOM     16  C   UNL     1       4.000   4.360  17.218  0.00  0.00    +0.000 A 
BRANCH  14  17
ATOM     17  C   UNL     1       6.292   4.028  14.161  0.00  0.00    +0.000 C 
ATOM     18  C   UNL     1       5.409   3.680  12.960  0.00  0.00    +0.000 C 
ATOM     19  C   UNL     1       7.431   4.963  13.754  0.00  0.00    +0.000 C 
ENDBRANCH  14  17
ENDBRANCH   7  11
BRANCH   3  20
ATOM     20  C   UNL     1       0.420  11.145  19.461  0.00  0.00    +0.000 C 
ATOM     21  O   UNL     1       1.064  12.174  19.612  0.00  0.00    +0.000 OA
ATOM     22  N   UNL     1      -0.959  11.128  19.530  0.00  0.00    +0.000 N 
ATOM     23  H   UNL     1      -1.442  10.241  19.620  0.00  0.00    +0.000 HD
BRANCH  22  24
ATOM     24  C   UNL     1      -1.735  12.287  20.014  0.00  0.00    +0.000 C 
ATOM     25  C   UNL     1      -3.220  12.274  19.619  0.00  0.00    +0.000 C 
BRANCH  24  26
ATOM     26  C   UNL     1      -1.696  12.397  21.551  0.00  0.00    +0.000 C 
BRANCH  26  27
ATOM     27  O   UNL     1      -2.946  12.836  22.090  0.00  0.00    +0.000 OA
BRANCH  27  28
ATOM     28  C   UNL     1      -2.822  13.737  23.123  0.00  0.00    +0.000 A 
ATOM     29  C   UNL     1      -1.515  14.062  23.487  0.00  0.00    +0.000 A 
ATOM     30  C   UNL     1      -1.272  14.955  24.536  0.00  0.00    +0.000 A 
ATOM     31  C   UNL     1      -2.337  15.540  25.218  0.00  0.00    +0.000 A 
ATOM     32  C   UNL     1      -3.644  15.240  24.848  0.00  0.00    +0.000 A 
ATOM     33  C   UNL     1      -3.886  14.345  23.802  0.00  0.00    +0.000 A 
ENDBRANCH  27  28
ENDBRANCH  26  27
ENDBRANCH  24  26
ENDBRANCH  22  24
ENDBRANCH   3  20
TORSDOF 7
ENDMDL
MODEL 5
REMARK VINA RESULT:      -8.3      1.419      1.989
REMARK  Name = 
REMARK  11 active torsions:
REMARK  status: ('A' for Active; 'I' for Inactive)
REMARK    1  A    between atoms: C_1  and  C_2
REMARK    2  A    between atoms: C_3  and  C_4
REMARK    3  A    between atoms: N_6  and  C_7
REMARK    4  A    between atoms: C_7  and  C_8
REMARK    5  A    between atoms: C_7  and  C_9
REMARK    6  A    between atoms: C_9  and  O_10
REMARK    7  A    between atoms: O_10  and  C_11
REMARK    8  A    between atoms: C_20  and  C_21
REMARK    9  A    between atoms: C_24  and  C_25
REMARK   10  A    between atoms: C_25  and  C_26
REMARK   11  A    between atoms: C_25  and  C_27
REMARK                            x       y       z     vdW  Elec       q    Type
REMARK                         _______ _______ _______ _____ _____    ______ ____
ROOT
ATOM      1  C   UNL     1       0.583   8.743  21.399  0.00  0.00    +0.000 C 
ATOM      2  C   UNL     1       1.216   8.812  20.028  0.00  0.00    +0.000 A 
ATOM      3  C   UNL     1       1.166   9.839  19.140  0.00  0.00    +0.000 A 
ATOM      4  C   UNL     1       1.931   9.608  17.876  0.00  0.00    +0.000 A 
ATOM      5  N   UNL     1       2.592   8.543  17.539  0.00  0.00    +0.000 NA
ATOM      6  C   UNL     1       2.604   7.531  18.460  0.00  0.00    +0.000 A 
ATOM      7  C   UNL     1       3.195   6.280  18.462  0.00  0.00    +0.000 A 
ATOM      8  C   UNL     1       2.834   5.720  19.701  0.00  0.00    +0.000 A 
ATOM      9  N   UNL     1       2.081   6.529  20.440  0.00  0.00    +0.000 NA
ATOM     10  N   UNL     1       1.932   7.650  19.683  0.00  0.00    +0.000 N 
ENDROOT
BRANCH   7  11
ATOM     11  C   UNL     1       3.996   5.714  17.389  0.00  0.00    +0.000 A 
ATOM     12  C   UNL     1       4.029   4.334  17.158  0.00  0.00    +0.000 A 
ATOM     13  C   UNL     1       4.798   3.800  16.122  0.00  0.00    +0.000 A 
ATOM     14  C   UNL     1       5.547   4.635  15.285  0.00  0.00    +0.000 A 
ATOM     15  C   UNL     1       5.509   6.017  15.511  0.00  0.00    +0.000 A 
ATOM     16  C   UNL     1       4.741   6.551  16.551  0.00  0.00    +0.000 A 
BRANCH  14  17
ATOM     17  C   UNL     1       6.375   4.028  14.169  0.00  0.00    +0.000 C 
ATOM     18  C   UNL     1       5.494   3.555  13.010  0.00  0.00    +0.000 C 
ATOM     19  C   UNL     1       7.452   4.998  13.681  0.00  0.00    +0.000 C 
ENDBRANCH  14  17
ENDBRANCH   7  11
BRANCH   3  20
ATOM     20  C   UNL     1       0.477  11.133  19.434  0.00  0.00    +0.000 C 
ATOM     21  O   UNL     1      -0.739  11.219  19.335  0.00  0.00    +0.000 OA
ATOM     22  N   UNL     1       1.254  12.202  19.835  0.00  0.00    +0.000 N 
ATOM     23  H   UNL     1       2.259  12.167  19.695  0.00  0.00    +0.000 HD
BRANCH  22  24
ATOM     24  C   UNL     1       0.710  13.570  19.948  0.00  0.00    +0.000 C 
ATOM     25  C   UNL     1      -0.640  13.783  19.244  0.00  0.00    +0.000 C 
BRANCH  24  26
ATOM     26  C   UNL     1       0.502  13.980  21.419  0.00  0.00    +0.000 C 
BRANCH  26  27
ATOM     27  O   UNL     1       0.133  12.868  22.239  0.00  0.00    +0.000 OA
BRANCH  27  28
ATOM     28  C   UNL     1      -1.086  13.012  22.861  0.00  0.00    +0.000 A 
ATOM     29  C   UNL     1      -1.296  14.234  23.502  0.00  0.00    +0.000 A 
ATOM     30  C   UNL     1      -2.493  14.482  24.180  0.00  0.00    +0.000 A 
ATOM     31  C   UNL     1      -3.496  13.515  24.207  0.00  0.00    +0.000 A 
ATOM     32  C   UNL     1      -3.307  12.303  23.552  0.00  0.00    +0.000 A 
ATOM     33  C   UNL     1      -2.108  12.054  22.878  0.00  0.00    +0.000 A 
ENDBRANCH  27  28
ENDBRANCH  26  27
ENDBRANCH  24  26
ENDBRANCH  22  24
ENDBRANCH   3  20
TORSDOF 7
ENDMDL
MODEL 6
REMARK VINA RESULT:      -8.3      1.682      2.150
REMARK  Name = 
REMARK  11 active torsions:
REMARK  status: ('A' for Active; 'I' for Inactive)
REMARK    1  A    between atoms: C_1  and  C_2
REMARK    2  A    between atoms: C_3  and  C_4
REMARK    3  A    between atoms: N_6  and  C_7
REMARK    4  A    between atoms: C_7  and  C_8
REMARK    5  A    between atoms: C_7  and  C_9
REMARK    6  A    between atoms: C_9  and  O_10
REMARK    7  A    between atoms: O_10  and  C_11
REMARK    8  A    between atoms: C_20  and  C_21
REMARK    9  A    between atoms: C_24  and  C_25
REMARK   10  A    between atoms: C_25  and  C_26
REMARK   11  A    between atoms: C_25  and  C_27
REMARK                            x       y       z     vdW  Elec       q    Type
REMARK                         _______ _______ _______ _____ _____    ______ ____
ROOT
ATOM      1  C   UNL     1       1.103   8.066  21.303  0.00  0.00    +0.000 C 
ATOM      2  C   UNL     1       1.607   8.211  19.884  0.00  0.00    +0.000 A 
ATOM      3  C   UNL     1       1.352   9.222  19.012  0.00  0.00    +0.000 A 
ATOM      4  C   UNL     1       2.033   9.087  17.687  0.00  0.00    +0.000 A 
ATOM      5  N   UNL     1       2.792   8.113  17.288  0.00  0.00    +0.000 NA
ATOM      6  C   UNL     1       3.010   7.114  18.196  0.00  0.00    +0.000 A 
ATOM      7  C   UNL     1       3.753   5.947  18.138  0.00  0.00    +0.000 A 
ATOM      8  C   UNL     1       3.571   5.349  19.398  0.00  0.00    +0.000 A 
ATOM      9  N   UNL     1       2.785   6.058  20.204  0.00  0.00    +0.000 NA
ATOM     10  N   UNL     1       2.432   7.149  19.472  0.00  0.00    +0.000 N 
ENDROOT
BRANCH   7  11
ATOM     11  C   UNL     1       4.526   5.485  16.998  0.00  0.00    +0.000 A 
ATOM     12  C   UNL     1       5.422   6.332  16.337  0.00  0.00    +0.000 A 
ATOM     13  C   UNL     1       6.164   5.878  15.245  0.00  0.00    +0.000 A 
ATOM     14  C   UNL     1       6.034   4.560  14.791  0.00  0.00    +0.000 A 
ATOM     15  C   UNL     1       5.143   3.709  15.457  0.00  0.00    +0.000 A 
ATOM     16  C   UNL     1       4.397   4.165  16.549  0.00  0.00    +0.000 A 
BRANCH  14  17
ATOM     17  C   UNL     1       6.851   4.093  13.602  0.00  0.00    +0.000 C 
ATOM     18  C   UNL     1       5.975   3.393  12.560  0.00  0.00    +0.000 C 
ATOM     19  C   UNL     1       7.637   5.246  12.976  0.00  0.00    +0.000 C 
ENDBRANCH  14  17
ENDBRANCH   7  11
BRANCH   3  20
ATOM     20  C   UNL     1       0.532  10.419  19.373  0.00  0.00    +0.000 C 
ATOM     21  O   UNL     1       0.920  11.191  20.239  0.00  0.00    +0.000 OA
ATOM     22  N   UNL     1      -0.648  10.625  18.686  0.00  0.00    +0.000 N 
ATOM     23  H   UNL     1      -1.046   9.866  18.142  0.00  0.00    +0.000 HD
BRANCH  22  24
ATOM     24  C   UNL     1      -1.629  11.648  19.099  0.00  0.00    +0.000 C 
ATOM     25  C   UNL     1      -1.197  13.097  18.824  0.00  0.00    +0.000 C 
BRANCH  24  26
ATOM     26  C   UNL     1      -2.984  11.457  18.389  0.00  0.00    +0.000 C 
BRANCH  26  27
ATOM     27  O   UNL     1      -3.930  12.463  18.758  0.00  0.00    +0.000 OA
BRANCH  27  28
ATOM     28  C   UNL     1      -5.093  11.964  19.299  0.00  0.00    +0.000 A 
ATOM     29  C   UNL     1      -5.719  10.957  18.562  0.00  0.00    +0.000 A 
ATOM     30  C   UNL     1      -6.915  10.390  19.010  0.00  0.00    +0.000 A 
ATOM     31  C   UNL     1      -7.487  10.816  20.208  0.00  0.00    +0.000 A 
ATOM     32  C   UNL     1      -6.860  11.802  20.962  0.00  0.00    +0.000 A 
ATOM     33  C   UNL     1      -5.665  12.371  20.512  0.00  0.00    +0.000 A 
ENDBRANCH  27  28
ENDBRANCH  26  27
ENDBRANCH  24  26
ENDBRANCH  22  24
ENDBRANCH   3  20
TORSDOF 7
ENDMDL
MODEL 7
REMARK VINA RESULT:      -8.3      2.859     10.913
REMARK  Name = 
REMARK  11 active torsions:
REMARK  status: ('A' for Active; 'I' for Inactive)
REMARK    1  A    between atoms: C_1  and  C_2
REMARK    2  A    between atoms: C_3  and  C_4
REMARK    3  A    between atoms: N_6  and  C_7
REMARK    4  A    between atoms: C_7  and  C_8
REMARK    5  A    between atoms: C_7  and  C_9
REMARK    6  A    between atoms: C_9  and  O_10
REMARK    7  A    between atoms: O_10  and  C_11
REMARK    8  A    between atoms: C_20  and  C_21
REMARK    9  A    between atoms: C_24  and  C_25
REMARK   10  A    between atoms: C_25  and  C_26
REMARK   11  A    between atoms: C_25  and  C_27
REMARK                            x       y       z     vdW  Elec       q    Type
REMARK                         _______ _______ _______ _____ _____    ______ ____
ROOT
ATOM      1  C   UNL     1       3.167   8.111  17.594  0.00  0.00    +0.000 C 
ATOM      2  C   UNL     1       2.248   8.078  18.794  0.00  0.00    +0.000 A 
ATOM      3  C   UNL     1       2.025   7.038  19.641  0.00  0.00    +0.000 A 
ATOM      4  C   UNL     1       1.079   7.338  20.759  0.00  0.00    +0.000 A 
ATOM      5  N   UNL     1       0.442   8.449  20.975  0.00  0.00    +0.000 NA
ATOM      6  C   UNL     1       0.689   9.462  20.090  0.00  0.00    +0.000 A 
ATOM      7  C   UNL     1       0.218  10.760  20.003  0.00  0.00    +0.000 A 
ATOM      8  C   UNL     1       0.854  11.293  18.867  0.00  0.00    +0.000 A 
ATOM      9  N   UNL     1       1.666  10.426  18.269  0.00  0.00    +0.000 NA
ATOM     10  N   UNL     1       1.571   9.292  19.015  0.00  0.00    +0.000 N 
ENDROOT
BRANCH   7  11
ATOM     11  C   UNL     1      -0.732  11.384  20.909  0.00  0.00    +0.000 A 
ATOM     12  C   UNL     1      -1.868  12.044  20.429  0.00  0.00    +0.000 A 
ATOM     13  C   UNL     1      -2.776  12.637  21.307  0.00  0.00    +0.000 A 
ATOM     14  C   UNL     1      -2.577  12.576  22.692  0.00  0.00    +0.000 A 
ATOM     15  C   UNL     1      -1.444  11.908  23.174  0.00  0.00    +0.000 A 
ATOM     16  C   UNL     1      -0.531  11.318  22.294  0.00  0.00    +0.000 A 
BRANCH  14  17
ATOM     17  C   UNL     1      -3.579  13.230  23.623  0.00  0.00    +0.000 C 
ATOM     18  C   UNL     1      -4.240  12.203  24.546  0.00  0.00    +0.000 C 
ATOM     19  C   UNL     1      -2.939  14.362  24.427  0.00  0.00    +0.000 C 
ENDBRANCH  14  17
ENDBRANCH   7  11
BRANCH   3  20
ATOM     20  C   UNL     1       2.734   5.728  19.522  0.00  0.00    +0.000 C 
ATOM     21  O   UNL     1       3.386   5.295  20.462  0.00  0.00    +0.000 OA
ATOM     22  N   UNL     1       2.607   5.029  18.338  0.00  0.00    +0.000 N 
ATOM     23  H   UNL     1       2.253   5.505  17.515  0.00  0.00    +0.000 HD
BRANCH  22  24
ATOM     24  C   UNL     1       3.425   3.837  18.038  0.00  0.00    +0.000 C 
ATOM     25  C   UNL     1       2.632   2.523  17.944  0.00  0.00    +0.000 C 
BRANCH  24  26
ATOM     26  C   UNL     1       4.178   3.985  16.701  0.00  0.00    +0.000 C 
BRANCH  26  27
ATOM     27  O   UNL     1       5.585   3.776  16.850  0.00  0.00    +0.000 OA
BRANCH  27  28
ATOM     28  C   UNL     1       6.277   4.899  17.243  0.00  0.00    +0.000 A 
ATOM     29  C   UNL     1       7.128   4.733  18.336  0.00  0.00    +0.000 A 
ATOM     30  C   UNL     1       7.867   5.812  18.830  0.00  0.00    +0.000 A 
ATOM     31  C   UNL     1       7.771   7.063  18.223  0.00  0.00    +0.000 A 
ATOM     32  C   UNL     1       6.943   7.234  17.119  0.00  0.00    +0.000 A 
ATOM     33  C   UNL     1       6.202   6.156  16.628  0.00  0.00    +0.000 A 
ENDBRANCH  27  28
ENDBRANCH  26  27
ENDBRANCH  24  26
ENDBRANCH  22  24
ENDBRANCH   3  20
TORSDOF 7
ENDMDL
MODEL 8
REMARK VINA RESULT:      -8.2      2.673     11.147
REMARK  Name = 
REMARK  11 active torsions:
REMARK  status: ('A' for Active; 'I' for Inactive)
REMARK    1  A    between atoms: C_1  and  C_2
REMARK    2  A    between atoms: C_3  and  C_4
REMARK    3  A    between atoms: N_6  and  C_7
REMARK    4  A    between atoms: C_7  and  C_8
REMARK    5  A    between atoms: C_7  and  C_9
REMARK    6  A    between atoms: C_9  and  O_10
REMARK    7  A    between atoms: O_10  and  C_11
REMARK    8  A    between atoms: C_20  and  C_21
REMARK    9  A    between atoms: C_24  and  C_25
REMARK   10  A    between atoms: C_25  and  C_26
REMARK   11  A    between atoms: C_25  and  C_27
REMARK                            x       y       z     vdW  Elec       q    Type
REMARK                         _______ _______ _______ _____ _____    ______ ____
ROOT
ATOM      1  C   UNL     1       3.053   7.942  17.641  0.00  0.00    +0.000 C 
ATOM      2  C   UNL     1       2.189   7.969  18.881  0.00  0.00    +0.000 A 
ATOM      3  C   UNL     1       2.024   6.982  19.800  0.00  0.00    +0.000 A 
ATOM      4  C   UNL     1       1.121   7.336  20.939  0.00  0.00    +0.000 A 
ATOM      5  N   UNL     1       0.474   8.447  21.114  0.00  0.00    +0.000 NA
ATOM      6  C   UNL     1       0.662   9.407  20.157  0.00  0.00    +0.000 A 
ATOM      7  C   UNL     1       0.163  10.689  20.012  0.00  0.00    +0.000 A 
ATOM      8  C   UNL     1       0.739  11.160  18.817  0.00  0.00    +0.000 A 
ATOM      9  N   UNL     1       1.540  10.270  18.238  0.00  0.00    +0.000 NA
ATOM     10  N   UNL     1       1.499   9.184  19.056  0.00  0.00    +0.000 N 
ENDROOT
BRANCH   7  11
ATOM     11  C   UNL     1      -0.758  11.353  20.919  0.00  0.00    +0.000 A 
ATOM     12  C   UNL     1      -1.732  12.239  20.446  0.00  0.00    +0.000 A 
ATOM     13  C   UNL     1      -2.614  12.868  21.325  0.00  0.00    +0.000 A 
ATOM     14  C   UNL     1      -2.551  12.622  22.701  0.00  0.00    +0.000 A 
ATOM     15  C   UNL     1      -1.581  11.729  23.176  0.00  0.00    +0.000 A 
ATOM     16  C   UNL     1      -0.694  11.101  22.295  0.00  0.00    +0.000 A 
BRANCH  14  17
ATOM     17  C   UNL     1      -3.521  13.321  23.634  0.00  0.00    +0.000 C 
ATOM     18  C   UNL     1      -4.580  14.106  22.856  0.00  0.00    +0.000 C 
ATOM     19  C   UNL     1      -4.170  12.335  24.607  0.00  0.00    +0.000 C 
ENDBRANCH  14  17
ENDBRANCH   7  11
BRANCH   3  20
ATOM     20  C   UNL     1       2.752   5.678  19.731  0.00  0.00    +0.000 C 
ATOM     21  O   UNL     1       3.926   5.612  20.066  0.00  0.00    +0.000 OA
ATOM     22  N   UNL     1       2.050   4.568  19.303  0.00  0.00    +0.000 N 
ATOM     23  H   UNL     1       1.161   4.693  18.830  0.00  0.00    +0.000 HD
BRANCH  22  24
ATOM     24  C   UNL     1       2.718   3.286  19.001  0.00  0.00    +0.000 C 
ATOM     25  C   UNL     1       1.766   2.088  18.854  0.00  0.00    +0.000 C 
BRANCH  24  26
ATOM     26  C   UNL     1       3.526   3.361  17.690  0.00  0.00    +0.000 C 
BRANCH  26  27
ATOM     27  O   UNL     1       4.911   3.626  17.927  0.00  0.00    +0.000 OA
BRANCH  27  28
ATOM     28  C   UNL     1       5.596   4.054  16.813  0.00  0.00    +0.000 A 
ATOM     29  C   UNL     1       4.906   3.953  15.604  0.00  0.00    +0.000 A 
ATOM     30  C   UNL     1       5.513   4.343  14.407  0.00  0.00    +0.000 A 
ATOM     31  C   UNL     1       6.810   4.853  14.413  0.00  0.00    +0.000 A 
ATOM     32  C   UNL     1       7.498   4.980  15.615  0.00  0.00    +0.000 A 
ATOM     33  C   UNL     1       6.892   4.586  16.811  0.00  0.00    +0.000 A 
ENDBRANCH  27  28
ENDBRANCH  26  27
ENDBRANCH  24  26
ENDBRANCH  22  24
ENDBRANCH   3  20
TORSDOF 7
ENDMDL
MODEL 9
REMARK VINA RESULT:      -8.2      3.224     10.788
REMARK  Name = 
REMARK  11 active torsions:
REMARK  status: ('A' for Active; 'I' for Inactive)
REMARK    1  A    between atoms: C_1  and  C_2
REMARK    2  A    between atoms: C_3  and  C_4
REMARK    3  A    between atoms: N_6  and  C_7
REMARK    4  A    between atoms: C_7  and  C_8
REMARK    5  A    between atoms: C_7  and  C_9
REMARK    6  A    between atoms: C_9  and  O_10
REMARK    7  A    between atoms: O_10  and  C_11
REMARK    8  A    between atoms: C_20  and  C_21
REMARK    9  A    between atoms: C_24  and  C_25
REMARK   10  A    between atoms: C_25  and  C_26
REMARK   11  A    between atoms: C_25  and  C_27
REMARK                            x       y       z     vdW  Elec       q    Type
REMARK                         _______ _______ _______ _____ _____    ______ ____
ROOT
ATOM      1  C   UNL     1       2.667   7.459  17.763  0.00  0.00    +0.000 C 
ATOM      2  C   UNL     1       2.035   7.744  19.107  0.00  0.00    +0.000 A 
ATOM      3  C   UNL     1       1.847   6.878  20.137  0.00  0.00    +0.000 A 
ATOM      4  C   UNL     1       1.220   7.483  21.352  0.00  0.00    +0.000 A 
ATOM      5  N   UNL     1       0.819   8.708  21.504  0.00  0.00    +0.000 NA
ATOM      6  C   UNL     1       1.018   9.540  20.436  0.00  0.00    +0.000 A 
ATOM      7  C   UNL     1       0.739  10.880  20.233  0.00  0.00    +0.000 A 
ATOM      8  C   UNL     1       1.188  11.140  18.925  0.00  0.00    +0.000 A 
ATOM      9  N   UNL     1       1.712  10.073  18.331  0.00  0.00    +0.000 NA
ATOM     10  N   UNL     1       1.611   9.079  19.254  0.00  0.00    +0.000 N 
ENDROOT
BRANCH   7  11
ATOM     11  C   UNL     1       0.112  11.774  21.192  0.00  0.00    +0.000 A 
ATOM     12  C   UNL     1      -0.830  11.306  22.113  0.00  0.00    +0.000 A 
ATOM     13  C   UNL     1      -1.424  12.173  23.033  0.00  0.00    +0.000 A 
ATOM     14  C   UNL     1      -1.084  13.530  23.059  0.00  0.00    +0.000 A 
ATOM     15  C   UNL     1      -0.135  13.999  22.141  0.00  0.00    +0.000 A 
ATOM     16  C   UNL     1       0.458  13.131  21.218  0.00  0.00    +0.000 A 
BRANCH  14  17
ATOM     17  C   UNL     1      -1.746  14.449  24.067  0.00  0.00    +0.000 C 
ATOM     18  C   UNL     1      -1.488  15.922  23.738  0.00  0.00    +0.000 C 
ATOM     19  C   UNL     1      -3.244  14.164  24.185  0.00  0.00    +0.000 C 
ENDBRANCH  14  17
ENDBRANCH   7  11
BRANCH   3  20
ATOM     20  C   UNL     1       2.309   5.457  20.098  0.00  0.00    +0.000 C 
ATOM     21  O   UNL     1       2.558   4.863  21.138  0.00  0.00    +0.000 OA
ATOM     22  N   UNL     1       2.420   4.847  18.864  0.00  0.00    +0.000 N 
ATOM     23  H   UNL     1       2.422   5.418  18.025  0.00  0.00    +0.000 HD
BRANCH  22  24
ATOM     24  C   UNL     1       3.059   3.527  18.695  0.00  0.00    +0.000 C 
ATOM     25  C   UNL     1       2.263   2.535  17.832  0.00  0.00    +0.000 C 
BRANCH  24  26
ATOM     26  C   UNL     1       4.451   3.648  18.044  0.00  0.00    +0.000 C 
BRANCH  26  27
ATOM     27  O   UNL     1       5.454   4.033  18.988  0.00  0.00    +0.000 OA
BRANCH  27  28
ATOM     28  C   UNL     1       6.202   5.120  18.597  0.00  0.00    +0.000 A 
ATOM     29  C   UNL     1       5.752   5.781  17.453  0.00  0.00    +0.000 A 
ATOM     30  C   UNL     1       6.445   6.890  16.956  0.00  0.00    +0.000 A 
ATOM     31  C   UNL     1       7.585   7.353  17.611  0.00  0.00    +0.000 A 
ATOM     32  C   UNL     1       8.028   6.716  18.764  0.00  0.00    +0.000 A 
ATOM     33  C   UNL     1       7.337   5.606  19.258  0.00  0.00    +0.000 A 
ENDBRANCH  27  28
ENDBRANCH  26  27
ENDBRANCH  24  26
ENDBRANCH  22  24
ENDBRANCH   3  20
TORSDOF 7
ENDMDL
