MODEL 1
REMARK VINA RESULT:      -7.4      0.000      0.000
REMARK  Name = 
REMARK  12 active torsions:
REMARK  status: ('A' for Active; 'I' for Inactive)
REMARK    1  A    between atoms: C_1  and  C_2
REMARK    2  A    between atoms: C_2  and  O_3
REMARK    3  A    between atoms: O_3  and  C_4
REMARK    4  A    between atoms: C_4  and  C_6
REMARK    5  A    between atoms: C_7  and  C_8
REMARK    6  A    between atoms: C_10  and  C_11
REMARK    7  A    between atoms: C_12  and  S_13
REMARK    8  A    between atoms: S_13  and  N_16
REMARK    9  A    between atoms: N_16  and  C_17
REMARK   10  A    between atoms: C_17  and  C_18
REMARK   11  A    between atoms: N_20  and  C_21
REMARK   12  A    between atoms: C_21  and  C_22
REMARK                            x       y       z     vdW  Elec       q    Type
REMARK                         _______ _______ _______ _____ _____    ______ ____
ROOT
ATOM      1  S   UNL     1       2.894   5.703  18.580  0.00  0.00    +0.000 S 
ATOM      2  O   UNL     1       1.833   4.843  19.050  0.00  0.00    +0.000 OA
ATOM      3  O   UNL     1       3.831   6.333  19.486  0.00  0.00    +0.000 OA
ENDROOT
BRANCH   1  10
ATOM      4  C   UNL     1       4.889   5.191  16.651  0.00  0.00    +0.000 A 
ATOM      5  C   UNL     1       5.464   4.067  16.059  0.00  0.00    +0.000 A 
ATOM      6  C   UNL     1       6.483   3.901  14.981  0.00  0.00    +0.000 C 
ATOM      7  N   UNL     1       4.899   2.952  16.632  0.00  0.00    +0.000 N 
ATOM      8  C   UNL     1       3.966   3.314  17.567  0.00  0.00    +0.000 A 
ATOM      9  C   UNL     1       3.246   2.288  18.365  0.00  0.00    +0.000 C 
ATOM     10  C   UNL     1       3.909   4.700  17.578  0.00  0.00    +0.000 A 
ATOM     11  H   UNL     1       5.142   1.998  16.393  0.00  0.00    +0.000 HD
BRANCH   4  12
ATOM     12  C   UNL     1       5.184   6.584  16.329  0.00  0.00    +0.000 C 
ATOM     13  O   UNL     1       4.924   7.068  15.229  0.00  0.00    +0.000 OA
BRANCH  12  14
ATOM     14  O   UNL     1       5.868   7.212  17.324  0.00  0.00    +0.000 OA
BRANCH  14  16
ATOM     15  C   UNL     1       7.989   8.293  17.789  0.00  0.00    +0.000 C 
ATOM     16  C   UNL     1       7.286   7.015  17.381  0.00  0.00    +0.000 C 
ENDBRANCH  14  16
ENDBRANCH  12  14
ENDBRANCH   4  12
ENDBRANCH   1  10
BRANCH   1  17
ATOM     17  N   UNL     1       2.203   6.910  17.631  0.00  0.00    +0.000 NA
ATOM     18  H   UNL     1       1.180   6.784  17.627  0.00  0.00    +0.000 HD
BRANCH  17  19
ATOM     19  C   UNL     1       2.639   8.293  17.943  0.00  0.00    +0.000 C 
BRANCH  19  20
ATOM     20  C   UNL     1       1.619   9.001  18.828  0.00  0.00    +0.000 C 
ATOM     21  O   UNL     1       1.374   8.620  19.971  0.00  0.00    +0.000 OA
ATOM     22  N   UNL     1       1.049  10.115  18.258  0.00  0.00    +0.000 N 
ATOM     23  H   UNL     1       1.322  10.346  17.307  0.00  0.00    +0.000 HD
BRANCH  22  24
ATOM     24  C   UNL     1       0.047  10.915  18.924  0.00  0.00    +0.000 C 
BRANCH  24  25
ATOM     25  C   UNL     1      -1.318  10.751  18.302  0.00  0.00    +0.000 A 
ATOM     26  C   UNL     1      -1.493   9.925  17.181  0.00  0.00    +0.000 A 
ATOM     27  C   UNL     1      -2.743   9.803  16.571  0.00  0.00    +0.000 A 
ATOM     28  C   UNL     1      -3.836  10.512  17.068  0.00  0.00    +0.000 A 
ATOM     29  C   UNL     1      -3.670  11.338  18.177  0.00  0.00    +0.000 A 
ATOM     30 BR   UNL     1      -5.149  12.314  18.841  0.00  0.00    +0.000 Br
ATOM     31  C   UNL     1      -2.424  11.463  18.794  0.00  0.00    +0.000 A 
ENDBRANCH  24  25
ENDBRANCH  22  24
ENDBRANCH  19  20
ENDBRANCH  17  19
ENDBRANCH   1  17
TORSDOF 9
ENDMDL
MODEL 2
REMARK VINA RESULT:      -7.3      1.350      3.250
REMARK  Name = 
REMARK  12 active torsions:
REMARK  status: ('A' for Active; 'I' for Inactive)
REMARK    1  A    between atoms: C_1  and  C_2
REMARK    2  A    between atoms: C_2  and  O_3
REMARK    3  A    between atoms: O_3  and  C_4
REMARK    4  A    between atoms: C_4  and  C_6
REMARK    5  A    between atoms: C_7  and  C_8
REMARK    6  A    between atoms: C_10  and  C_11
REMARK    7  A    between atoms: C_12  and  S_13
REMARK    8  A    between atoms: S_13  and  N_16
REMARK    9  A    between atoms: N_16  and  C_17
REMARK   10  A    between atoms: C_17  and  C_18
REMARK   11  A    between atoms: N_20  and  C_21
REMARK   12  A    between atoms: C_21  and  C_22
REMARK                            x       y       z     vdW  Elec       q    Type
REMARK                         _______ _______ _______ _____ _____    ______ ____
ROOT
ATOM      1  S   UNL     1       4.697   6.836  17.179  0.00  0.00    +0.000 S 
ATOM      2  O   UNL     1       5.956   7.182  17.796  0.00  0.00    +0.000 OA
ATOM      3  O   UNL     1       4.404   7.153  15.798  0.00  0.00    +0.000 OA
ENDROOT
BRANCH   1  10
ATOM      4  C   UNL     1       3.512   4.344  17.766  0.00  0.00    +0.000 A 
ATOM      5  C   UNL     1       3.846   2.998  17.611  0.00  0.00    +0.000 A 
ATOM      6  C   UNL     1       3.169   1.734  18.022  0.00  0.00    +0.000 C 
ATOM      7  N   UNL     1       5.058   2.936  16.964  0.00  0.00    +0.000 N 
ATOM      8  C   UNL     1       5.529   4.196  16.706  0.00  0.00    +0.000 A 
ATOM      9  C   UNL     1       6.804   4.400  15.970  0.00  0.00    +0.000 C 
ATOM     10  C   UNL     1       4.608   5.095  17.226  0.00  0.00    +0.000 A 
ATOM     11  H   UNL     1       5.533   2.077  16.715  0.00  0.00    +0.000 HD
BRANCH   4  12
ATOM     12  C   UNL     1       2.315   4.866  18.418  0.00  0.00    +0.000 C 
ATOM     13  O   UNL     1       1.338   5.247  17.778  0.00  0.00    +0.000 OA
BRANCH  12  14
ATOM     14  O   UNL     1       2.469   4.984  19.766  0.00  0.00    +0.000 OA
BRANCH  14  16
ATOM     15  C   UNL     1       2.127   3.387  21.558  0.00  0.00    +0.000 C 
ATOM     16  C   UNL     1       1.483   4.370  20.602  0.00  0.00    +0.000 C 
ENDBRANCH  14  16
ENDBRANCH  12  14
ENDBRANCH   4  12
ENDBRANCH   1  10
BRANCH   1  17
ATOM     17  N   UNL     1       3.462   7.476  18.128  0.00  0.00    +0.000 NA
ATOM     18  H   UNL     1       3.868   7.833  19.005  0.00  0.00    +0.000 HD
BRANCH  17  19
ATOM     19  C   UNL     1       2.565   8.437  17.442  0.00  0.00    +0.000 C 
BRANCH  19  20
ATOM     20  C   UNL     1       1.639   9.126  18.437  0.00  0.00    +0.000 C 
ATOM     21  O   UNL     1       1.476   8.700  19.579  0.00  0.00    +0.000 OA
ATOM     22  N   UNL     1       1.053  10.279  17.965  0.00  0.00    +0.000 N 
ATOM     23  H   UNL     1       1.255  10.546  17.006  0.00  0.00    +0.000 HD
BRANCH  22  24
ATOM     24  C   UNL     1       0.129  11.069  18.745  0.00  0.00    +0.000 C 
BRANCH  24  25
ATOM     25  C   UNL     1      -1.301  10.866  18.310  0.00  0.00    +0.000 A 
ATOM     26  C   UNL     1      -1.606   9.991  17.255  0.00  0.00    +0.000 A 
ATOM     27  C   UNL     1      -2.921   9.832  16.815  0.00  0.00    +0.000 A 
ATOM     28  C   UNL     1      -3.952  10.550  17.420  0.00  0.00    +0.000 A 
ATOM     29  C   UNL     1      -3.659  11.423  18.464  0.00  0.00    +0.000 A 
ATOM     30 BR   UNL     1      -5.055  12.411  19.273  0.00  0.00    +0.000 Br
ATOM     31  C   UNL     1      -2.346  11.586  18.911  0.00  0.00    +0.000 A 
ENDBRANCH  24  25
ENDBRANCH  22  24
ENDBRANCH  19  20
ENDBRANCH  17  19
ENDBRANCH   1  17
TORSDOF 9
ENDMDL
MODEL 3
REMARK VINA RESULT:      -7.3      3.773      8.676
REMARK  Name = 
REMARK  12 active torsions:
REMARK  status: ('A' for Active; 'I' for Inactive)
REMARK    1  A    between atoms: C_1  and  C_2
REMARK    2  A    between atoms: C_2  and  O_3
REMARK    3  A    between atoms: O_3  and  C_4
REMARK    4  A    between atoms: C_4  and  C_6
REMARK    5  A    between atoms: C_7  and  C_8
REMARK    6  A    between atoms: C_10  and  C_11
REMARK    7  A    between atoms: C_12  and  S_13
REMARK    8  A    between atoms: S_13  and  N_16
REMARK    9  A    between atoms: N_16  and  C_17
REMARK   10  A    between atoms: C_17  and  C_18
REMARK   11  A    between atoms: N_20  and  C_21
REMARK   12  A    between atoms: C_21  and  C_22
REMARK                            x       y       z     vdW  Elec       q    Type
REMARK                         _______ _______ _______ _____ _____    ______ ____
ROOT
ATOM      1  S   UNL     1       1.074   8.723  21.267  0.00  0.00    +0.000 S 
ATOM      2  O   UNL     1       1.763   9.444  22.312  0.00  0.00    +0.000 OA
ATOM      3  O   UNL     1      -0.247   8.165  21.461  0.00  0.00    +0.000 OA
ENDROOT
BRANCH   1  10
ATOM      4  C   UNL     1       0.276  11.176  20.123  0.00  0.00    +0.000 A 
ATOM      5  C   UNL     1       0.274  11.751  18.853  0.00  0.00    +0.000 A 
ATOM      6  C   UNL     1      -0.240  13.051  18.332  0.00  0.00    +0.000 C 
ATOM      7  N   UNL     1       0.859  10.860  17.985  0.00  0.00    +0.000 N 
ATOM      8  C   UNL     1       1.229   9.719  18.646  0.00  0.00    +0.000 A 
ATOM      9  C   UNL     1       1.929   8.616  17.936  0.00  0.00    +0.000 C 
ATOM     10  C   UNL     1       0.847   9.868  19.972  0.00  0.00    +0.000 A 
ATOM     11  H   UNL     1       0.996  11.027  16.995  0.00  0.00    +0.000 HD
BRANCH   4  12
ATOM     12  C   UNL     1      -0.266  11.770  21.341  0.00  0.00    +0.000 C 
ATOM     13  O   UNL     1       0.426  12.443  22.103  0.00  0.00    +0.000 OA
BRANCH  12  14
ATOM     14  O   UNL     1      -1.554  11.392  21.573  0.00  0.00    +0.000 OA
BRANCH  14  16
ATOM     15  C   UNL     1      -2.930  12.287  23.358  0.00  0.00    +0.000 C 
ATOM     16  C   UNL     1      -2.494  12.417  21.914  0.00  0.00    +0.000 C 
ENDBRANCH  14  16
ENDBRANCH  12  14
ENDBRANCH   4  12
ENDBRANCH   1  10
BRANCH   1  17
ATOM     17  N   UNL     1       2.085   7.485  20.737  0.00  0.00    +0.000 NA
ATOM     18  H   UNL     1       3.011   7.603  21.173  0.00  0.00    +0.000 HD
BRANCH  17  19
ATOM     19  C   UNL     1       1.531   6.115  20.859  0.00  0.00    +0.000 C 
BRANCH  19  20
ATOM     20  C   UNL     1       2.125   5.190  19.803  0.00  0.00    +0.000 C 
ATOM     21  O   UNL     1       1.539   4.940  18.752  0.00  0.00    +0.000 OA
ATOM     22  N   UNL     1       3.379   4.711  20.108  0.00  0.00    +0.000 N 
ATOM     23  H   UNL     1       3.776   4.979  21.004  0.00  0.00    +0.000 HD
BRANCH  22  24
ATOM     24  C   UNL     1       4.106   3.805  19.249  0.00  0.00    +0.000 C 
BRANCH  24  25
ATOM     25  C   UNL     1       4.793   4.524  18.115  0.00  0.00    +0.000 A 
ATOM     26  C   UNL     1       4.586   4.119  16.787  0.00  0.00    +0.000 A 
ATOM     27  C   UNL     1       5.253   4.749  15.735  0.00  0.00    +0.000 A 
ATOM     28  C   UNL     1       6.143   5.790  15.995  0.00  0.00    +0.000 A 
ATOM     29  C   UNL     1       6.359   6.196  17.310  0.00  0.00    +0.000 A 
ATOM     30 BR   UNL     1       7.579   7.597  17.664  0.00  0.00    +0.000 Br
ATOM     31  C   UNL     1       5.693   5.572  18.367  0.00  0.00    +0.000 A 
ENDBRANCH  24  25
ENDBRANCH  22  24
ENDBRANCH  19  20
ENDBRANCH  17  19
ENDBRANCH   1  17
TORSDOF 9
ENDMDL
MODEL 4
REMARK VINA RESULT:      -7.3      4.180      8.963
REMARK  Name = 
REMARK  12 active torsions:
REMARK  status: ('A' for Active; 'I' for Inactive)
REMARK    1  A    between atoms: C_1  and  C_2
REMARK    2  A    between atoms: C_2  and  O_3
REMARK    3  A    between atoms: O_3  and  C_4
REMARK    4  A    between atoms: C_4  and  C_6
REMARK    5  A    between atoms: C_7  and  C_8
REMARK    6  A    between atoms: C_10  and  C_11
REMARK    7  A    between atoms: C_12  and  S_13
REMARK    8  A    between atoms: S_13  and  N_16
REMARK    9  A    between atoms: N_16  and  C_17
REMARK   10  A    between atoms: C_17  and  C_18
REMARK   11  A    between atoms: N_20  and  C_21
REMARK   12  A    between atoms: C_21  and  C_22
REMARK                            x       y       z     vdW  Elec       q    Type
REMARK                         _______ _______ _______ _____ _____    ______ ____
ROOT
ATOM      1  S   UNL     1       0.978   8.769  21.378  0.00  0.00    +0.000 S 
ATOM      2  O   UNL     1       1.687   9.485  22.412  0.00  0.00    +0.000 OA
ATOM      3  O   UNL     1      -0.374   8.288  21.565  0.00  0.00    +0.000 OA
ENDROOT
BRANCH   1  10
ATOM      4  C   UNL     1       0.275  11.201  20.133  0.00  0.00    +0.000 A 
ATOM      5  C   UNL     1       0.345  11.743  18.849  0.00  0.00    +0.000 A 
ATOM      6  C   UNL     1      -0.123  13.035  18.270  0.00  0.00    +0.000 C 
ATOM      7  N   UNL     1       0.961  10.821  18.036  0.00  0.00    +0.000 N 
ATOM      8  C   UNL     1       1.280   9.693  18.744  0.00  0.00    +0.000 A 
ATOM      9  C   UNL     1       2.000   8.563  18.099  0.00  0.00    +0.000 C 
ATOM     10  C   UNL     1       0.833   9.882  20.044  0.00  0.00    +0.000 A 
ATOM     11  H   UNL     1       1.150  10.961  17.050  0.00  0.00    +0.000 HD
BRANCH   4  12
ATOM     12  C   UNL     1      -0.320  11.834  21.306  0.00  0.00    +0.000 C 
ATOM     13  O   UNL     1       0.357  12.440  22.134  0.00  0.00    +0.000 OA
BRANCH  12  14
ATOM     14  O   UNL     1      -1.651  11.569  21.418  0.00  0.00    +0.000 OA
BRANCH  14  16
ATOM     15  C   UNL     1      -3.750  12.737  21.754  0.00  0.00    +0.000 C 
ATOM     16  C   UNL     1      -2.408  12.357  22.344  0.00  0.00    +0.000 C 
ENDBRANCH  14  16
ENDBRANCH  12  14
ENDBRANCH   4  12
ENDBRANCH   1  10
BRANCH   1  17
ATOM     17  N   UNL     1       1.930   7.463  20.905  0.00  0.00    +0.000 NA
ATOM     18  H   UNL     1       2.776   7.439  21.492  0.00  0.00    +0.000 HD
BRANCH  17  19
ATOM     19  C   UNL     1       1.223   6.162  20.810  0.00  0.00    +0.000 C 
BRANCH  19  20
ATOM     20  C   UNL     1       2.214   5.005  20.757  0.00  0.00    +0.000 C 
ATOM     21  O   UNL     1       2.254   4.141  21.631  0.00  0.00    +0.000 OA
ATOM     22  N   UNL     1       3.010   4.989  19.634  0.00  0.00    +0.000 N 
ATOM     23  H   UNL     1       2.897   5.750  18.971  0.00  0.00    +0.000 HD
BRANCH  22  24
ATOM     24  C   UNL     1       4.025   3.987  19.403  0.00  0.00    +0.000 C 
BRANCH  24  25
ATOM     25  C   UNL     1       5.154   4.508  18.548  0.00  0.00    +0.000 A 
ATOM     26  C   UNL     1       6.125   5.361  19.096  0.00  0.00    +0.000 A 
ATOM     27  C   UNL     1       7.146   5.885  18.302  0.00  0.00    +0.000 A 
ATOM     28  C   UNL     1       7.209   5.569  16.946  0.00  0.00    +0.000 A 
ATOM     29  C   UNL     1       6.248   4.727  16.392  0.00  0.00    +0.000 A 
ATOM     30 BR   UNL     1       6.323   4.312  14.548  0.00  0.00    +0.000 Br
ATOM     31  C   UNL     1       5.224   4.198  17.181  0.00  0.00    +0.000 A 
ENDBRANCH  24  25
ENDBRANCH  22  24
ENDBRANCH  19  20
ENDBRANCH  17  19
ENDBRANCH   1  17
TORSDOF 9
ENDMDL
MODEL 5
REMARK VINA RESULT:      -7.3      1.160      1.650
REMARK  Name = 
REMARK  12 active torsions:
REMARK  status: ('A' for Active; 'I' for Inactive)
REMARK    1  A    between atoms: C_1  and  C_2
REMARK    2  A    between atoms: C_2  and  O_3
REMARK    3  A    between atoms: O_3  and  C_4
REMARK    4  A    between atoms: C_4  and  C_6
REMARK    5  A    between atoms: C_7  and  C_8
REMARK    6  A    between atoms: C_10  and  C_11
REMARK    7  A    between atoms: C_12  and  S_13
REMARK    8  A    between atoms: S_13  and  N_16
REMARK    9  A    between atoms: N_16  and  C_17
REMARK   10  A    between atoms: C_17  and  C_18
REMARK   11  A    between atoms: N_20  and  C_21
REMARK   12  A    between atoms: C_21  and  C_22
REMARK                            x       y       z     vdW  Elec       q    Type
REMARK                         _______ _______ _______ _____ _____    ______ ____
ROOT
ATOM      1  S   UNL     1       3.292   5.341  18.780  0.00  0.00    +0.000 S 
ATOM      2  O   UNL     1       2.000   4.699  18.849  0.00  0.00    +0.000 OA
ATOM      3  O   UNL     1       4.195   5.374  19.911  0.00  0.00    +0.000 OA
ENDROOT
BRANCH   1  10
ATOM      4  C   UNL     1       5.050   5.073  16.589  0.00  0.00    +0.000 A 
ATOM      5  C   UNL     1       5.562   4.028  15.820  0.00  0.00    +0.000 A 
ATOM      6  C   UNL     1       6.448   3.996  14.620  0.00  0.00    +0.000 C 
ATOM      7  N   UNL     1       5.080   2.849  16.335  0.00  0.00    +0.000 N 
ATOM      8  C   UNL     1       4.260   3.092  17.405  0.00  0.00    +0.000 A 
ATOM      9  C   UNL     1       3.649   1.974  18.171  0.00  0.00    +0.000 C 
ATOM     10  C   UNL     1       4.191   4.468  17.567  0.00  0.00    +0.000 A 
ATOM     11  H   UNL     1       5.302   1.930  15.971  0.00  0.00    +0.000 HD
BRANCH   4  12
ATOM     12  C   UNL     1       5.291   6.497  16.382  0.00  0.00    +0.000 C 
ATOM     13  O   UNL     1       4.947   7.074  15.353  0.00  0.00    +0.000 OA
BRANCH  12  14
ATOM     14  O   UNL     1       6.027   7.050  17.386  0.00  0.00    +0.000 OA
BRANCH  14  16
ATOM     15  C   UNL     1       7.768   6.126  18.798  0.00  0.00    +0.000 C 
ATOM     16  C   UNL     1       7.418   6.716  17.448  0.00  0.00    +0.000 C 
ENDBRANCH  14  16
ENDBRANCH  12  14
ENDBRANCH   4  12
ENDBRANCH   1  10
BRANCH   1  17
ATOM     17  N   UNL     1       3.059   6.925  18.260  0.00  0.00    +0.000 NA
ATOM     18  H   UNL     1       2.881   6.918  17.245  0.00  0.00    +0.000 HD
BRANCH  17  19
ATOM     19  C   UNL     1       2.073   7.712  19.040  0.00  0.00    +0.000 C 
BRANCH  19  20
ATOM     20  C   UNL     1       1.837   9.077  18.403  0.00  0.00    +0.000 C 
ATOM     21  O   UNL     1       2.242   9.347  17.274  0.00  0.00    +0.000 OA
ATOM     22  N   UNL     1       1.097   9.943  19.175  0.00  0.00    +0.000 N 
ATOM     23  H   UNL     1       0.809   9.621  20.094  0.00  0.00    +0.000 HD
BRANCH  22  24
ATOM     24  C   UNL     1       0.779  11.291  18.761  0.00  0.00    +0.000 C 
BRANCH  24  25
ATOM     25  C   UNL     1      -0.674  11.627  18.986  0.00  0.00    +0.000 A 
ATOM     26  C   UNL     1      -1.093  12.191  20.202  0.00  0.00    +0.000 A 
ATOM     27  C   UNL     1      -2.442  12.462  20.437  0.00  0.00    +0.000 A 
ATOM     28  C   UNL     1      -3.394  12.169  19.462  0.00  0.00    +0.000 A 
ATOM     29  C   UNL     1      -2.988  11.606  18.254  0.00  0.00    +0.000 A 
ATOM     30 BR   UNL     1      -4.282  11.191  16.938  0.00  0.00    +0.000 Br
ATOM     31  C   UNL     1      -1.640  11.333  18.011  0.00  0.00    +0.000 A 
ENDBRANCH  24  25
ENDBRANCH  22  24
ENDBRANCH  19  20
ENDBRANCH  17  19
ENDBRANCH   1  17
TORSDOF 9
ENDMDL
MODEL 6
REMARK VINA RESULT:      -7.3      2.323      2.746
REMARK  Name = 
REMARK  12 active torsions:
REMARK  status: ('A' for Active; 'I' for Inactive)
REMARK    1  A    between atoms: C_1  and  C_2
REMARK    2  A    between atoms: C_2  and  O_3
REMARK    3  A    between atoms: O_3  and  C_4
REMARK    4  A    between atoms: C_4  and  C_6
REMARK    5  A    between atoms: C_7  and  C_8
REMARK    6  A    between atoms: C_10  and  C_11
REMARK    7  A    between atoms: C_12  and  S_13
REMARK    8  A    between atoms: S_13  and  N_16
REMARK    9  A    between atoms: N_16  and  C_17
REMARK   10  A    between atoms: C_17  and  C_18
REMARK   11  A    between atoms: N_20  and  C_21
REMARK   12  A    between atoms: C_21  and  C_22
REMARK                            x       y       z     vdW  Elec       q    Type
REMARK                         _______ _______ _______ _____ _____    ______ ____
ROOT
ATOM      1  S   UNL     1       2.877   5.472  18.523  0.00  0.00    +0.000 S 
ATOM      2  O   UNL     1       1.574   5.116  18.011  0.00  0.00    +0.000 OA
ATOM      3  O   UNL     1       3.286   5.153  19.873  0.00  0.00    +0.000 OA
ENDROOT
BRANCH   1  10
ATOM      4  C   UNL     1       5.008   5.225  16.690  0.00  0.00    +0.000 A 
ATOM      5  C   UNL     1       5.708   4.184  16.079  0.00  0.00    +0.000 A 
ATOM      6  C   UNL     1       6.793   4.158  15.056  0.00  0.00    +0.000 C 
ATOM      7  N   UNL     1       5.210   2.999  16.566  0.00  0.00    +0.000 N 
ATOM      8  C   UNL     1       4.201   3.234  17.462  0.00  0.00    +0.000 A 
ATOM      9  C   UNL     1       3.529   2.112  18.169  0.00  0.00    +0.000 C 
ATOM     10  C   UNL     1       4.025   4.608  17.534  0.00  0.00    +0.000 A 
ATOM     11  H   UNL     1       5.545   2.081  16.298  0.00  0.00    +0.000 HD
BRANCH   4  12
ATOM     12  C   UNL     1       5.201   6.652  16.450  0.00  0.00    +0.000 C 
ATOM     13  O   UNL     1       4.874   7.185  15.392  0.00  0.00    +0.000 OA
BRANCH  12  14
ATOM     14  O   UNL     1       5.874   7.262  17.464  0.00  0.00    +0.000 OA
BRANCH  14  16
ATOM     15  C   UNL     1       7.880   6.483  18.584  0.00  0.00    +0.000 C 
ATOM     16  C   UNL     1       7.305   7.250  17.411  0.00  0.00    +0.000 C 
ENDBRANCH  14  16
ENDBRANCH  12  14
ENDBRANCH   4  12
ENDBRANCH   1  10
BRANCH   1  17
ATOM     17  N   UNL     1       3.090   7.126  18.296  0.00  0.00    +0.000 NA
ATOM     18  H   UNL     1       4.014   7.287  17.869  0.00  0.00    +0.000 HD
BRANCH  17  19
ATOM     19  C   UNL     1       1.977   7.822  17.605  0.00  0.00    +0.000 C 
BRANCH  19  20
ATOM     20  C   UNL     1       1.916   9.290  18.011  0.00  0.00    +0.000 C 
ATOM     21  O   UNL     1       2.364  10.183  17.294  0.00  0.00    +0.000 OA
ATOM     22  N   UNL     1       1.276   9.524  19.206  0.00  0.00    +0.000 N 
ATOM     23  H   UNL     1       0.940   8.716  19.722  0.00  0.00    +0.000 HD
BRANCH  22  24
ATOM     24  C   UNL     1       1.129  10.843  19.776  0.00  0.00    +0.000 C 
BRANCH  24  25
ATOM     25  C   UNL     1       0.300  10.829  21.037  0.00  0.00    +0.000 A 
ATOM     26  C   UNL     1       0.356   9.734  21.912  0.00  0.00    +0.000 A 
ATOM     27  C   UNL     1      -0.442   9.691  23.057  0.00  0.00    +0.000 A 
ATOM     28  C   UNL     1      -1.313  10.741  23.341  0.00  0.00    +0.000 A 
ATOM     29  C   UNL     1      -1.379  11.831  22.476  0.00  0.00    +0.000 A 
ATOM     30 BR   UNL     1      -2.574  13.248  22.852  0.00  0.00    +0.000 Br
ATOM     31  C   UNL     1      -0.583  11.881  21.330  0.00  0.00    +0.000 A 
ENDBRANCH  24  25
ENDBRANCH  22  24
ENDBRANCH  19  20
ENDBRANCH  17  19
ENDBRANCH   1  17
TORSDOF 9
ENDMDL
MODEL 7
REMARK VINA RESULT:      -7.2      1.667      3.522
REMARK  Name = 
REMARK  12 active torsions:
REMARK  status: ('A' for Active; 'I' for Inactive)
REMARK    1  A    between atoms: C_1  and  C_2
REMARK    2  A    between atoms: C_2  and  O_3
REMARK    3  A    between atoms: O_3  and  C_4
REMARK    4  A    between atoms: C_4  and  C_6
REMARK    5  A    between atoms: C_7  and  C_8
REMARK    6  A    between atoms: C_10  and  C_11
REMARK    7  A    between atoms: C_12  and  S_13
REMARK    8  A    between atoms: S_13  and  N_16
REMARK    9  A    between atoms: N_16  and  C_17
REMARK   10  A    between atoms: C_17  and  C_18
REMARK   11  A    between atoms: N_20  and  C_21
REMARK   12  A    between atoms: C_21  and  C_22
REMARK                            x       y       z     vdW  Elec       q    Type
REMARK                         _______ _______ _______ _____ _____    ______ ____
ROOT
ATOM      1  S   UNL     1       4.331   6.886  17.198  0.00  0.00    +0.000 S 
ATOM      2  O   UNL     1       5.353   7.410  18.075  0.00  0.00    +0.000 OA
ATOM      3  O   UNL     1       4.324   7.162  15.778  0.00  0.00    +0.000 OA
ENDROOT
BRANCH   1  10
ATOM      4  C   UNL     1       3.439   4.254  17.682  0.00  0.00    +0.000 A 
ATOM      5  C   UNL     1       3.978   2.969  17.608  0.00  0.00    +0.000 A 
ATOM      6  C   UNL     1       3.435   1.623  17.955  0.00  0.00    +0.000 C 
ATOM      7  N   UNL     1       5.263   3.077  17.133  0.00  0.00    +0.000 N 
ATOM      8  C   UNL     1       5.584   4.390  16.910  0.00  0.00    +0.000 A 
ATOM      9  C   UNL     1       6.907   4.769  16.348  0.00  0.00    +0.000 C 
ATOM     10  C   UNL     1       4.483   5.151  17.277  0.00  0.00    +0.000 A 
ATOM     11  H   UNL     1       5.884   2.293  16.973  0.00  0.00    +0.000 HD
BRANCH   4  12
ATOM     12  C   UNL     1       2.103   4.604  18.152  0.00  0.00    +0.000 C 
ATOM     13  O   UNL     1       1.112   4.511  17.430  0.00  0.00    +0.000 OA
BRANCH  12  14
ATOM     14  O   UNL     1       2.118   5.142  19.403  0.00  0.00    +0.000 OA
BRANCH  14  16
ATOM     15  C   UNL     1       1.134   3.296  20.631  0.00  0.00    +0.000 C 
ATOM     16  C   UNL     1       2.305   4.248  20.507  0.00  0.00    +0.000 C 
ENDBRANCH  14  16
ENDBRANCH  12  14
ENDBRANCH   4  12
ENDBRANCH   1  10
BRANCH   1  17
ATOM     17  N   UNL     1       2.833   7.337  17.820  0.00  0.00    +0.000 NA
ATOM     18  H   UNL     1       2.774   7.028  18.801  0.00  0.00    +0.000 HD
BRANCH  17  19
ATOM     19  C   UNL     1       2.458   8.756  17.610  0.00  0.00    +0.000 C 
BRANCH  19  20
ATOM     20  C   UNL     1       1.411   9.201  18.626  0.00  0.00    +0.000 C 
ATOM     21  O   UNL     1       1.416   8.794  19.786  0.00  0.00    +0.000 OA
ATOM     22  N   UNL     1       0.510  10.123  18.146  0.00  0.00    +0.000 N 
ATOM     23  H   UNL     1       0.594  10.395  17.171  0.00  0.00    +0.000 HD
BRANCH  22  24
ATOM     24  C   UNL     1      -0.571  10.656  18.943  0.00  0.00    +0.000 C 
BRANCH  24  25
ATOM     25  C   UNL     1      -1.820  10.884  18.129  0.00  0.00    +0.000 A 
ATOM     26  C   UNL     1      -2.939  11.506  18.704  0.00  0.00    +0.000 A 
ATOM     27  C   UNL     1      -4.116  11.679  17.973  0.00  0.00    +0.000 A 
ATOM     28  C   UNL     1      -4.194  11.225  16.657  0.00  0.00    +0.000 A 
ATOM     29  C   UNL     1      -3.090  10.602  16.080  0.00  0.00    +0.000 A 
ATOM     30 BR   UNL     1      -3.202   9.971  14.300  0.00  0.00    +0.000 Br
ATOM     31  C   UNL     1      -1.909  10.428  16.804  0.00  0.00    +0.000 A 
ENDBRANCH  24  25
ENDBRANCH  22  24
ENDBRANCH  19  20
ENDBRANCH  17  19
ENDBRANCH   1  17
TORSDOF 9
ENDMDL
MODEL 8
REMARK VINA RESULT:      -7.1      2.484      2.960
REMARK  Name = 
REMARK  12 active torsions:
REMARK  status: ('A' for Active; 'I' for Inactive)
REMARK    1  A    between atoms: C_1  and  C_2
REMARK    2  A    between atoms: C_2  and  O_3
REMARK    3  A    between atoms: O_3  and  C_4
REMARK    4  A    between atoms: C_4  and  C_6
REMARK    5  A    between atoms: C_7  and  C_8
REMARK    6  A    between atoms: C_10  and  C_11
REMARK    7  A    between atoms: C_12  and  S_13
REMARK    8  A    between atoms: S_13  and  N_16
REMARK    9  A    between atoms: N_16  and  C_17
REMARK   10  A    between atoms: C_17  and  C_18
REMARK   11  A    between atoms: N_20  and  C_21
REMARK   12  A    between atoms: C_21  and  C_22
REMARK                            x       y       z     vdW  Elec       q    Type
REMARK                         _______ _______ _______ _____ _____    ______ ____
ROOT
ATOM      1  S   UNL     1       2.697   6.086  18.742  0.00  0.00    +0.000 S 
ATOM      2  O   UNL     1       1.852   5.593  17.679  0.00  0.00    +0.000 OA
ATOM      3  O   UNL     1       2.332   5.957  20.136  0.00  0.00    +0.000 OA
ENDROOT
BRANCH   1  10
ATOM      4  C   UNL     1       5.350   5.612  17.907  0.00  0.00    +0.000 A 
ATOM      5  C   UNL     1       6.298   4.601  18.062  0.00  0.00    +0.000 A 
ATOM      6  C   UNL     1       7.674   4.411  17.516  0.00  0.00    +0.000 C 
ATOM      7  N   UNL     1       5.755   3.633  18.873  0.00  0.00    +0.000 N 
ATOM      8  C   UNL     1       4.480   3.974  19.238  0.00  0.00    +0.000 A 
ATOM      9  C   UNL     1       3.690   3.111  20.157  0.00  0.00    +0.000 C 
ATOM     10  C   UNL     1       4.183   5.182  18.624  0.00  0.00    +0.000 A 
ATOM     11  H   UNL     1       6.233   2.787  19.158  0.00  0.00    +0.000 HD
BRANCH   4  12
ATOM     12  C   UNL     1       5.503   6.824  17.109  0.00  0.00    +0.000 C 
ATOM     13  O   UNL     1       5.096   6.899  15.952  0.00  0.00    +0.000 OA
BRANCH  12  14
ATOM     14  O   UNL     1       6.236   7.777  17.749  0.00  0.00    +0.000 OA
BRANCH  14  16
ATOM     15  C   UNL     1       8.249   9.079  18.112  0.00  0.00    +0.000 C 
ATOM     16  C   UNL     1       7.602   7.940  17.353  0.00  0.00    +0.000 C 
ENDBRANCH  14  16
ENDBRANCH  12  14
ENDBRANCH   4  12
ENDBRANCH   1  10
BRANCH   1  17
ATOM     17  N   UNL     1       3.016   7.712  18.441  0.00  0.00    +0.000 NA
ATOM     18  H   UNL     1       4.029   7.831  18.299  0.00  0.00    +0.000 HD
BRANCH  17  19
ATOM     19  C   UNL     1       2.181   8.338  17.387  0.00  0.00    +0.000 C 
BRANCH  19  20
ATOM     20  C   UNL     1       1.265   9.404  17.978  0.00  0.00    +0.000 C 
ATOM     21  O   UNL     1       0.069   9.461  17.700  0.00  0.00    +0.000 OA
ATOM     22  N   UNL     1       1.879  10.248  18.874  0.00  0.00    +0.000 N 
ATOM     23  H   UNL     1       2.873  10.115  19.035  0.00  0.00    +0.000 HD
BRANCH  22  24
ATOM     24  C   UNL     1       1.191  11.336  19.531  0.00  0.00    +0.000 C 
BRANCH  24  25
ATOM     25  C   UNL     1       0.557  10.907  20.831  0.00  0.00    +0.000 A 
ATOM     26  C   UNL     1       1.003   9.751  21.491  0.00  0.00    +0.000 A 
ATOM     27  C   UNL     1       0.392   9.320  22.670  0.00  0.00    +0.000 A 
ATOM     28  C   UNL     1      -0.680  10.036  23.203  0.00  0.00    +0.000 A 
ATOM     29  C   UNL     1      -1.132  11.181  22.553  0.00  0.00    +0.000 A 
ATOM     30 BR   UNL     1      -2.596  12.142  23.267  0.00  0.00    +0.000 Br
ATOM     31  C   UNL     1      -0.524  11.619  21.374  0.00  0.00    +0.000 A 
ENDBRANCH  24  25
ENDBRANCH  22  24
ENDBRANCH  19  20
ENDBRANCH  17  19
ENDBRANCH   1  17
TORSDOF 9
ENDMDL
MODEL 9
REMARK VINA RESULT:      -7.1      1.623      2.190
REMARK  Name = 
REMARK  12 active torsions:
REMARK  status: ('A' for Active; 'I' for Inactive)
REMARK    1  A    between atoms: C_1  and  C_2
REMARK    2  A    between atoms: C_2  and  O_3
REMARK    3  A    between atoms: O_3  and  C_4
REMARK    4  A    between atoms: C_4  and  C_6
REMARK    5  A    between atoms: C_7  and  C_8
REMARK    6  A    between atoms: C_10  and  C_11
REMARK    7  A    between atoms: C_12  and  S_13
REMARK    8  A    between atoms: S_13  and  N_16
REMARK    9  A    between atoms: N_16  and  C_17
REMARK   10  A    between atoms: C_17  and  C_18
REMARK   11  A    between atoms: N_20  and  C_21
REMARK   12  A    between atoms: C_21  and  C_22
REMARK                            x       y       z     vdW  Elec       q    Type
REMARK                         _______ _______ _______ _____ _____    ______ ____
ROOT
ATOM      1  S   UNL     1       1.920   4.985  20.517  0.00  0.00    +0.000 S 
ATOM      2  O   UNL     1       0.482   4.931  20.399  0.00  0.00    +0.000 OA
ATOM      3  O   UNL     1       2.620   4.418  21.650  0.00  0.00    +0.000 OA
ENDROOT
BRANCH   1  10
ATOM      4  C   UNL     1       3.793   4.339  18.508  0.00  0.00    +0.000 A 
ATOM      5  C   UNL     1       3.898   3.401  17.481  0.00  0.00    +0.000 A 
ATOM      6  C   UNL     1       4.915   3.181  16.412  0.00  0.00    +0.000 C 
ATOM      7  N   UNL     1       2.793   2.585  17.540  0.00  0.00    +0.000 N 
ATOM      8  C   UNL     1       1.966   2.970  18.562  0.00  0.00    +0.000 A 
ATOM      9  C   UNL     1       0.723   2.214  18.865  0.00  0.00    +0.000 C 
ATOM     10  C   UNL     1       2.541   4.082  19.161  0.00  0.00    +0.000 A 
ATOM     11  H   UNL     1       2.619   1.809  16.913  0.00  0.00    +0.000 HD
BRANCH   4  12
ATOM     12  C   UNL     1       4.741   5.410  18.799  0.00  0.00    +0.000 C 
ATOM     13  O   UNL     1       5.597   5.302  19.675  0.00  0.00    +0.000 OA
BRANCH  12  14
ATOM     14  O   UNL     1       4.481   6.541  18.087  0.00  0.00    +0.000 OA
BRANCH  14  16
ATOM     15  C   UNL     1       5.175   6.557  15.763  0.00  0.00    +0.000 C 
ATOM     16  C   UNL     1       5.488   6.998  17.178  0.00  0.00    +0.000 C 
ENDBRANCH  14  16
ENDBRANCH  12  14
ENDBRANCH   4  12
ENDBRANCH   1  10
BRANCH   1  17
ATOM     17  N   UNL     1       2.393   6.594  20.370  0.00  0.00    +0.000 NA
ATOM     18  H   UNL     1       2.724   6.756  19.408  0.00  0.00    +0.000 HD
BRANCH  17  19
ATOM     19  C   UNL     1       1.405   7.593  20.845  0.00  0.00    +0.000 C 
BRANCH  19  20
ATOM     20  C   UNL     1       1.264   8.738  19.850  0.00  0.00    +0.000 C 
ATOM     21  O   UNL     1       1.908   8.774  18.802  0.00  0.00    +0.000 OA
ATOM     22  N   UNL     1       0.329   9.685  20.201  0.00  0.00    +0.000 N 
ATOM     23  H   UNL     1      -0.150   9.561  21.088  0.00  0.00    +0.000 HD
BRANCH  22  24
ATOM     24  C   UNL     1       0.058  10.858  19.402  0.00  0.00    +0.000 C 
BRANCH  24  25
ATOM     25  C   UNL     1      -1.238  10.740  18.639  0.00  0.00    +0.000 A 
ATOM     26  C   UNL     1      -1.308   9.963  17.473  0.00  0.00    +0.000 A 
ATOM     27  C   UNL     1      -2.491   9.886  16.735  0.00  0.00    +0.000 A 
ATOM     28  C   UNL     1      -3.621  10.590  17.149  0.00  0.00    +0.000 A 
ATOM     29  C   UNL     1      -3.560  11.367  18.303  0.00  0.00    +0.000 A 
ATOM     30 BR   UNL     1      -5.087  12.336  18.857  0.00  0.00    +0.000 Br
ATOM     31  C   UNL     1      -2.381  11.448  19.048  0.00  0.00    +0.000 A 
ENDBRANCH  24  25
ENDBRANCH  22  24
ENDBRANCH  19  20
ENDBRANCH  17  19
ENDBRANCH   1  17
TORSDOF 9
ENDMDL
