MODEL 1
REMARK VINA RESULT:      -7.7      0.000      0.000
REMARK  Name = 
REMARK  5 active torsions:
REMARK  status: ('A' for Active; 'I' for Inactive)
REMARK    1  A    between atoms: C_1  and  C_2
REMARK    2  A    between atoms: C_5  and  C_6
REMARK    3  A    between atoms: C_8  and  C_9
REMARK    4  A    between atoms: C_9  and  N_11
REMARK    5  A    between atoms: C_15  and  C_16
REMARK                            x       y       z     vdW  Elec       q    Type
REMARK                         _______ _______ _______ _____ _____    ______ ____
ROOT
ATOM      1  C   UNL     1       3.320   6.042  18.278  0.00  0.00    +0.000 A 
ATOM      2  N   UNL     1       4.525   6.040  17.744  0.00  0.00    +0.000 NA
ATOM      3  C   UNL     1       4.871   4.710  17.506  0.00  0.00    +0.000 A 
ATOM      4  C   UNL     1       3.836   3.888  17.942  0.00  0.00    +0.000 A 
ATOM      5  C   UNL     1       3.628   2.421  17.985  0.00  0.00    +0.000 C 
ATOM      6  N   UNL     1       2.883   4.749  18.431  0.00  0.00    +0.000 N 
ATOM      7  H   UNL     1       2.009   4.481  18.860  0.00  0.00    +0.000 HD
ENDROOT
BRANCH   1  12
ATOM      8  C   UNL     1       0.318  10.730  19.880  0.00  0.00    +0.000 C 
ATOM      9  C   UNL     1       1.076   9.501  19.472  0.00  0.00    +0.000 A 
ATOM     10  C   UNL     1       1.311   8.465  20.382  0.00  0.00    +0.000 A 
ATOM     11  C   UNL     1       2.038   7.333  19.997  0.00  0.00    +0.000 A 
ATOM     12  C   UNL     1       2.545   7.212  18.696  0.00  0.00    +0.000 A 
ATOM     13  C   UNL     1       2.294   8.245  17.784  0.00  0.00    +0.000 A 
ATOM     14  C   UNL     1       1.569   9.379  18.169  0.00  0.00    +0.000 A 
ENDBRANCH   1  12
BRANCH   3  15
ATOM     15  C   UNL     1       6.136   4.295  16.866  0.00  0.00    +0.000 C 
ATOM     16  O   UNL     1       7.224   4.489  17.408  0.00  0.00    +0.000 OA
BRANCH  15  17
ATOM     17  N   UNL     1       5.937   3.703  15.641  0.00  0.00    +0.000 NA
ATOM     18  C   UNL     1       6.532   4.180  14.599  0.00  0.00    +0.000 C 
ATOM     19  N   UNL     1       7.385   5.222  14.532  0.00  0.00    +0.000 N 
ATOM     20  N   UNL     1       6.328   3.649  13.375  0.00  0.00    +0.000 N 
ATOM     21  H   UNL     1       7.681   5.628  15.417  0.00  0.00    +0.000 HD
ATOM     22  H   UNL     1       7.951   5.419  13.723  0.00  0.00    +0.000 HD
ATOM     23  H   UNL     1       5.705   2.856  13.290  0.00  0.00    +0.000 HD
ATOM     24  H   UNL     1       6.825   3.961  12.559  0.00  0.00    +0.000 HD
ENDBRANCH  15  17
ENDBRANCH   3  15
TORSDOF 3
ENDMDL
MODEL 2
REMARK VINA RESULT:      -7.7      0.076      1.106
REMARK  Name = 
REMARK  5 active torsions:
REMARK  status: ('A' for Active; 'I' for Inactive)
REMARK    1  A    between atoms: C_1  and  C_2
REMARK    2  A    between atoms: C_5  and  C_6
REMARK    3  A    between atoms: C_8  and  C_9
REMARK    4  A    between atoms: C_9  and  N_11
REMARK    5  A    between atoms: C_15  and  C_16
REMARK                            x       y       z     vdW  Elec       q    Type
REMARK                         _______ _______ _______ _____ _____    ______ ____
ROOT
ATOM      1  C   UNL     1       3.306   6.074  18.249  0.00  0.00    +0.000 A 
ATOM      2  N   UNL     1       4.518   6.074  17.732  0.00  0.00    +0.000 NA
ATOM      3  C   UNL     1       4.860   4.745  17.480  0.00  0.00    +0.000 A 
ATOM      4  C   UNL     1       3.816   3.922  17.891  0.00  0.00    +0.000 A 
ATOM      5  C   UNL     1       3.599   2.456  17.910  0.00  0.00    +0.000 C 
ATOM      6  N   UNL     1       2.860   4.781  18.379  0.00  0.00    +0.000 N 
ATOM      7  H   UNL     1       1.979   4.512  18.792  0.00  0.00    +0.000 HD
ENDROOT
BRANCH   1  12
ATOM      8  C   UNL     1       0.182  10.635  19.983  0.00  0.00    +0.000 C 
ATOM      9  C   UNL     1       1.010   9.469  19.526  0.00  0.00    +0.000 A 
ATOM     10  C   UNL     1       1.450   9.374  18.201  0.00  0.00    +0.000 A 
ATOM     11  C   UNL     1       2.203   8.271  17.781  0.00  0.00    +0.000 A 
ATOM     12  C   UNL     1       2.531   7.242  18.673  0.00  0.00    +0.000 A 
ATOM     13  C   UNL     1       2.101   7.349  20.002  0.00  0.00    +0.000 A 
ATOM     14  C   UNL     1       1.345   8.450  20.423  0.00  0.00    +0.000 A 
ENDBRANCH   1  12
BRANCH   3  15
ATOM     15  C   UNL     1       6.132   4.332  16.852  0.00  0.00    +0.000 C 
ATOM     16  O   UNL     1       7.217   4.552  17.392  0.00  0.00    +0.000 OA
BRANCH  15  17
ATOM     17  N   UNL     1       5.943   3.712  15.639  0.00  0.00    +0.000 NA
ATOM     18  C   UNL     1       6.543   4.168  14.590  0.00  0.00    +0.000 C 
ATOM     19  N   UNL     1       7.391   5.212  14.505  0.00  0.00    +0.000 N 
ATOM     20  N   UNL     1       6.349   3.609  13.377  0.00  0.00    +0.000 N 
ATOM     21  H   UNL     1       7.681   5.639  15.383  0.00  0.00    +0.000 HD
ATOM     22  H   UNL     1       7.962   5.394  13.695  0.00  0.00    +0.000 HD
ATOM     23  H   UNL     1       5.730   2.811  13.306  0.00  0.00    +0.000 HD
ATOM     24  H   UNL     1       6.850   3.905  12.557  0.00  0.00    +0.000 HD
ENDBRANCH  15  17
ENDBRANCH   3  15
TORSDOF 3
ENDMDL
MODEL 3
REMARK VINA RESULT:      -7.6      0.981      1.113
REMARK  Name = 
REMARK  5 active torsions:
REMARK  status: ('A' for Active; 'I' for Inactive)
REMARK    1  A    between atoms: C_1  and  C_2
REMARK    2  A    between atoms: C_5  and  C_6
REMARK    3  A    between atoms: C_8  and  C_9
REMARK    4  A    between atoms: C_9  and  N_11
REMARK    5  A    between atoms: C_15  and  C_16
REMARK                            x       y       z     vdW  Elec       q    Type
REMARK                         _______ _______ _______ _____ _____    ______ ____
ROOT
ATOM      1  C   UNL     1       2.981   6.438  18.447  0.00  0.00    +0.000 A 
ATOM      2  N   UNL     1       4.293   6.313  18.433  0.00  0.00    +0.000 NA
ATOM      3  C   UNL     1       4.581   5.012  18.019  0.00  0.00    +0.000 A 
ATOM      4  C   UNL     1       3.387   4.331  17.803  0.00  0.00    +0.000 A 
ATOM      5  C   UNL     1       3.044   2.949  17.391  0.00  0.00    +0.000 C 
ATOM      6  N   UNL     1       2.402   5.245  18.090  0.00  0.00    +0.000 N 
ATOM      7  H   UNL     1       1.407   5.069  18.069  0.00  0.00    +0.000 HD
ENDROOT
BRANCH   1  12
ATOM      8  C   UNL     1       0.011  11.209  19.853  0.00  0.00    +0.000 C 
ATOM      9  C   UNL     1       0.761   9.959  19.498  0.00  0.00    +0.000 A 
ATOM     10  C   UNL     1       1.051   8.994  20.467  0.00  0.00    +0.000 A 
ATOM     11  C   UNL     1       1.771   7.841  20.130  0.00  0.00    +0.000 A 
ATOM     12  C   UNL     1       2.215   7.629  18.817  0.00  0.00    +0.000 A 
ATOM     13  C   UNL     1       1.909   8.592  17.847  0.00  0.00    +0.000 A 
ATOM     14  C   UNL     1       1.192   9.746  18.184  0.00  0.00    +0.000 A 
ENDBRANCH   1  12
BRANCH   3  15
ATOM     15  C   UNL     1       5.953   4.498  17.829  0.00  0.00    +0.000 C 
ATOM     16  O   UNL     1       6.680   4.237  18.789  0.00  0.00    +0.000 OA
BRANCH  15  17
ATOM     17  N   UNL     1       6.289   4.370  16.502  0.00  0.00    +0.000 NA
ATOM     18  C   UNL     1       7.001   5.286  15.934  0.00  0.00    +0.000 C 
ATOM     19  N   UNL     1       7.510   6.405  16.485  0.00  0.00    +0.000 N 
ATOM     20  N   UNL     1       7.315   5.213  14.623  0.00  0.00    +0.000 N 
ATOM     21  H   UNL     1       7.413   6.503  17.495  0.00  0.00    +0.000 HD
ATOM     22  H   UNL     1       8.207   6.975  16.033  0.00  0.00    +0.000 HD
ATOM     23  H   UNL     1       6.991   4.414  14.093  0.00  0.00    +0.000 HD
ATOM     24  H   UNL     1       7.918   5.878  14.173  0.00  0.00    +0.000 HD
ENDBRANCH  15  17
ENDBRANCH   3  15
TORSDOF 3
ENDMDL
MODEL 4
REMARK VINA RESULT:      -7.6      1.958      2.411
REMARK  Name = 
REMARK  5 active torsions:
REMARK  status: ('A' for Active; 'I' for Inactive)
REMARK    1  A    between atoms: C_1  and  C_2
REMARK    2  A    between atoms: C_5  and  C_6
REMARK    3  A    between atoms: C_8  and  C_9
REMARK    4  A    between atoms: C_9  and  N_11
REMARK    5  A    between atoms: C_15  and  C_16
REMARK                            x       y       z     vdW  Elec       q    Type
REMARK                         _______ _______ _______ _____ _____    ______ ____
ROOT
ATOM      1  C   UNL     1       3.122   6.428  18.368  0.00  0.00    +0.000 A 
ATOM      2  N   UNL     1       4.431   6.382  18.224  0.00  0.00    +0.000 NA
ATOM      3  C   UNL     1       4.763   5.076  17.864  0.00  0.00    +0.000 A 
ATOM      4  C   UNL     1       3.602   4.310  17.818  0.00  0.00    +0.000 A 
ATOM      5  C   UNL     1       3.312   2.885  17.532  0.00  0.00    +0.000 C 
ATOM      6  N   UNL     1       2.591   5.181  18.149  0.00  0.00    +0.000 N 
ATOM      7  H   UNL     1       1.614   4.944  18.244  0.00  0.00    +0.000 HD
ENDROOT
BRANCH   1  12
ATOM      8  C   UNL     1       0.004  11.100  19.787  0.00  0.00    +0.000 C 
ATOM      9  C   UNL     1       0.793   9.875  19.428  0.00  0.00    +0.000 A 
ATOM     10  C   UNL     1       1.101   8.909  20.392  0.00  0.00    +0.000 A 
ATOM     11  C   UNL     1       1.856   7.781  20.051  0.00  0.00    +0.000 A 
ATOM     12  C   UNL     1       2.319   7.594  18.742  0.00  0.00    +0.000 A 
ATOM     13  C   UNL     1       1.996   8.557  17.777  0.00  0.00    +0.000 A 
ATOM     14  C   UNL     1       1.243   9.687  18.117  0.00  0.00    +0.000 A 
ENDBRANCH   1  12
BRANCH   3  15
ATOM     15  C   UNL     1       6.140   4.634  17.564  0.00  0.00    +0.000 C 
ATOM     16  O   UNL     1       6.501   4.393  16.412  0.00  0.00    +0.000 OA
BRANCH  15  17
ATOM     17  N   UNL     1       6.917   4.526  18.694  0.00  0.00    +0.000 NA
ATOM     18  C   UNL     1       7.673   5.512  19.043  0.00  0.00    +0.000 C 
ATOM     19  N   UNL     1       7.809   6.710  18.441  0.00  0.00    +0.000 N 
ATOM     20  N   UNL     1       8.478   5.426  20.124  0.00  0.00    +0.000 N 
ATOM     21  H   UNL     1       7.171   6.912  17.673  0.00  0.00    +0.000 HD
ATOM     22  H   UNL     1       8.273   7.494  18.871  0.00  0.00    +0.000 HD
ATOM     23  H   UNL     1       8.468   4.572  20.666  0.00  0.00    +0.000 HD
ATOM     24  H   UNL     1       9.029   6.200  20.452  0.00  0.00    +0.000 HD
ENDBRANCH  15  17
ENDBRANCH   3  15
TORSDOF 3
ENDMDL
MODEL 5
REMARK VINA RESULT:      -7.5      1.965      2.639
REMARK  Name = 
REMARK  5 active torsions:
REMARK  status: ('A' for Active; 'I' for Inactive)
REMARK    1  A    between atoms: C_1  and  C_2
REMARK    2  A    between atoms: C_5  and  C_6
REMARK    3  A    between atoms: C_8  and  C_9
REMARK    4  A    between atoms: C_9  and  N_11
REMARK    5  A    between atoms: C_15  and  C_16
REMARK                            x       y       z     vdW  Elec       q    Type
REMARK                         _______ _______ _______ _____ _____    ______ ____
ROOT
ATOM      1  C   UNL     1       3.025   6.460  18.359  0.00  0.00    +0.000 A 
ATOM      2  N   UNL     1       4.335   6.372  18.251  0.00  0.00    +0.000 NA
ATOM      3  C   UNL     1       4.632   5.066  17.857  0.00  0.00    +0.000 A 
ATOM      4  C   UNL     1       3.447   4.345  17.753  0.00  0.00    +0.000 A 
ATOM      5  C   UNL     1       3.117   2.941  17.411  0.00  0.00    +0.000 C 
ATOM      6  N   UNL     1       2.457   5.240  18.084  0.00  0.00    +0.000 N 
ATOM      7  H   UNL     1       1.470   5.035  18.143  0.00  0.00    +0.000 HD
ENDROOT
BRANCH   1  12
ATOM      8  C   UNL     1      -0.091  11.075  19.957  0.00  0.00    +0.000 C 
ATOM      9  C   UNL     1       0.735   9.895  19.534  0.00  0.00    +0.000 A 
ATOM     10  C   UNL     1       1.159   9.751  18.210  0.00  0.00    +0.000 A 
ATOM     11  C   UNL     1       1.910   8.635  17.822  0.00  0.00    +0.000 A 
ATOM     12  C   UNL     1       2.252   7.641  18.748  0.00  0.00    +0.000 A 
ATOM     13  C   UNL     1       1.837   7.797  20.077  0.00  0.00    +0.000 A 
ATOM     14  C   UNL     1       1.084   8.911  20.466  0.00  0.00    +0.000 A 
ENDBRANCH   1  12
BRANCH   3  15
ATOM     15  C   UNL     1       6.001   4.586  17.582  0.00  0.00    +0.000 C 
ATOM     16  O   UNL     1       6.357   4.275  16.445  0.00  0.00    +0.000 OA
BRANCH  15  17
ATOM     17  N   UNL     1       6.777   4.527  18.716  0.00  0.00    +0.000 NA
ATOM     18  C   UNL     1       7.563   5.511  19.001  0.00  0.00    +0.000 C 
ATOM     19  N   UNL     1       7.734   6.663  18.323  0.00  0.00    +0.000 N 
ATOM     20  N   UNL     1       8.367   5.470  20.085  0.00  0.00    +0.000 N 
ATOM     21  H   UNL     1       7.099   6.834  17.545  0.00  0.00    +0.000 HD
ATOM     22  H   UNL     1       8.222   7.459  18.702  0.00  0.00    +0.000 HD
ATOM     23  H   UNL     1       8.333   4.653  20.681  0.00  0.00    +0.000 HD
ATOM     24  H   UNL     1       8.942   6.247  20.363  0.00  0.00    +0.000 HD
ENDBRANCH  15  17
ENDBRANCH   3  15
TORSDOF 3
ENDMDL
MODEL 6
REMARK VINA RESULT:      -7.5      2.094      2.927
REMARK  Name = 
REMARK  5 active torsions:
REMARK  status: ('A' for Active; 'I' for Inactive)
REMARK    1  A    between atoms: C_1  and  C_2
REMARK    2  A    between atoms: C_5  and  C_6
REMARK    3  A    between atoms: C_8  and  C_9
REMARK    4  A    between atoms: C_9  and  N_11
REMARK    5  A    between atoms: C_15  and  C_16
REMARK                            x       y       z     vdW  Elec       q    Type
REMARK                         _______ _______ _______ _____ _____    ______ ____
ROOT
ATOM      1  C   UNL     1       2.371   6.531  19.760  0.00  0.00    +0.000 A 
ATOM      2  N   UNL     1       3.332   5.891  19.124  0.00  0.00    +0.000 NA
ATOM      3  C   UNL     1       3.425   4.617  19.685  0.00  0.00    +0.000 A 
ATOM      4  C   UNL     1       2.495   4.508  20.715  0.00  0.00    +0.000 A 
ATOM      5  C   UNL     1       2.139   3.439  21.678  0.00  0.00    +0.000 C 
ATOM      6  N   UNL     1       1.857   5.725  20.746  0.00  0.00    +0.000 N 
ATOM      7  H   UNL     1       1.141   6.000  21.403  0.00  0.00    +0.000 HD
ENDROOT
BRANCH   1  12
ATOM      8  C   UNL     1       0.481  11.930  18.846  0.00  0.00    +0.000 C 
ATOM      9  C   UNL     1       0.994  10.539  19.076  0.00  0.00    +0.000 A 
ATOM     10  C   UNL     1       1.657   9.839  18.063  0.00  0.00    +0.000 A 
ATOM     11  C   UNL     1       2.112   8.533  18.282  0.00  0.00    +0.000 A 
ATOM     12  C   UNL     1       1.915   7.900  19.516  0.00  0.00    +0.000 A 
ATOM     13  C   UNL     1       1.264   8.611  20.533  0.00  0.00    +0.000 A 
ATOM     14  C   UNL     1       0.806   9.915  20.315  0.00  0.00    +0.000 A 
ENDBRANCH   1  12
BRANCH   3  15
ATOM     15  C   UNL     1       4.360   3.578  19.208  0.00  0.00    +0.000 C 
ATOM     16  O   UNL     1       3.966   2.455  18.893  0.00  0.00    +0.000 OA
BRANCH  15  17
ATOM     17  N   UNL     1       5.663   4.017  19.176  0.00  0.00    +0.000 NA
ATOM     18  C   UNL     1       6.272   4.121  18.043  0.00  0.00    +0.000 C 
ATOM     19  N   UNL     1       5.788   3.867  16.811  0.00  0.00    +0.000 N 
ATOM     20  N   UNL     1       7.564   4.510  17.978  0.00  0.00    +0.000 N 
ATOM     21  H   UNL     1       4.792   3.664  16.744  0.00  0.00    +0.000 HD
ATOM     22  H   UNL     1       6.258   4.147  15.965  0.00  0.00    +0.000 HD
ATOM     23  H   UNL     1       8.045   4.732  18.841  0.00  0.00    +0.000 HD
ATOM     24  H   UNL     1       8.042   4.658  17.107  0.00  0.00    +0.000 HD
ENDBRANCH  15  17
ENDBRANCH   3  15
TORSDOF 3
ENDMDL
MODEL 7
REMARK VINA RESULT:      -7.5      2.095      2.737
REMARK  Name = 
REMARK  5 active torsions:
REMARK  status: ('A' for Active; 'I' for Inactive)
REMARK    1  A    between atoms: C_1  and  C_2
REMARK    2  A    between atoms: C_5  and  C_6
REMARK    3  A    between atoms: C_8  and  C_9
REMARK    4  A    between atoms: C_9  and  N_11
REMARK    5  A    between atoms: C_15  and  C_16
REMARK                            x       y       z     vdW  Elec       q    Type
REMARK                         _______ _______ _______ _____ _____    ______ ____
ROOT
ATOM      1  C   UNL     1       2.357   6.516  19.779  0.00  0.00    +0.000 A 
ATOM      2  N   UNL     1       3.316   5.885  19.130  0.00  0.00    +0.000 NA
ATOM      3  C   UNL     1       3.416   4.607  19.680  0.00  0.00    +0.000 A 
ATOM      4  C   UNL     1       2.495   4.486  20.716  0.00  0.00    +0.000 A 
ATOM      5  C   UNL     1       2.150   3.409  21.674  0.00  0.00    +0.000 C 
ATOM      6  N   UNL     1       1.853   5.701  20.762  0.00  0.00    +0.000 N 
ATOM      7  H   UNL     1       1.142   5.969  21.427  0.00  0.00    +0.000 HD
ENDROOT
BRANCH   1  12
ATOM      8  C   UNL     1       0.613  11.957  18.818  0.00  0.00    +0.000 C 
ATOM      9  C   UNL     1       1.041  10.541  19.074  0.00  0.00    +0.000 A 
ATOM     10  C   UNL     1       0.824   9.937  20.316  0.00  0.00    +0.000 A 
ATOM     11  C   UNL     1       1.247   8.623  20.550  0.00  0.00    +0.000 A 
ATOM     12  C   UNL     1       1.895   7.887  19.549  0.00  0.00    +0.000 A 
ATOM     13  C   UNL     1       2.096   8.491  18.302  0.00  0.00    +0.000 A 
ATOM     14  C   UNL     1       1.677   9.806  18.067  0.00  0.00    +0.000 A 
ENDBRANCH   1  12
BRANCH   3  15
ATOM     15  C   UNL     1       4.351   3.575  19.187  0.00  0.00    +0.000 C 
ATOM     16  O   UNL     1       3.956   2.459  18.850  0.00  0.00    +0.000 OA
BRANCH  15  17
ATOM     17  N   UNL     1       5.655   4.011  19.169  0.00  0.00    +0.000 NA
ATOM     18  C   UNL     1       6.273   4.124  18.041  0.00  0.00    +0.000 C 
ATOM     19  N   UNL     1       5.797   3.881  16.803  0.00  0.00    +0.000 N 
ATOM     20  N   UNL     1       7.565   4.510  17.988  0.00  0.00    +0.000 N 
ATOM     21  H   UNL     1       4.801   3.680  16.727  0.00  0.00    +0.000 HD
ATOM     22  H   UNL     1       6.273   4.168  15.963  0.00  0.00    +0.000 HD
ATOM     23  H   UNL     1       8.041   4.725  18.856  0.00  0.00    +0.000 HD
ATOM     24  H   UNL     1       8.050   4.665  17.121  0.00  0.00    +0.000 HD
ENDBRANCH  15  17
ENDBRANCH   3  15
TORSDOF 3
ENDMDL
MODEL 8
REMARK VINA RESULT:      -7.5      2.704      3.324
REMARK  Name = 
REMARK  5 active torsions:
REMARK  status: ('A' for Active; 'I' for Inactive)
REMARK    1  A    between atoms: C_1  and  C_2
REMARK    2  A    between atoms: C_5  and  C_6
REMARK    3  A    between atoms: C_8  and  C_9
REMARK    4  A    between atoms: C_9  and  N_11
REMARK    5  A    between atoms: C_15  and  C_16
REMARK                            x       y       z     vdW  Elec       q    Type
REMARK                         _______ _______ _______ _____ _____    ______ ____
ROOT
ATOM      1  C   UNL     1       2.308   6.853  19.784  0.00  0.00    +0.000 A 
ATOM      2  N   UNL     1       3.365   6.344  19.182  0.00  0.00    +0.000 NA
ATOM      3  C   UNL     1       3.546   5.055  19.684  0.00  0.00    +0.000 A 
ATOM      4  C   UNL     1       2.570   4.801  20.642  0.00  0.00    +0.000 A 
ATOM      5  C   UNL     1       2.262   3.651  21.525  0.00  0.00    +0.000 C 
ATOM      6  N   UNL     1       1.815   5.948  20.691  0.00  0.00    +0.000 N 
ATOM      7  H   UNL     1       1.036   6.118  21.312  0.00  0.00    +0.000 HD
ENDROOT
BRANCH   1  12
ATOM      8  C   UNL     1       0.126  12.149  18.916  0.00  0.00    +0.000 C 
ATOM      9  C   UNL     1       0.668  10.769  19.148  0.00  0.00    +0.000 A 
ATOM     10  C   UNL     1       0.533  10.142  20.391  0.00  0.00    +0.000 A 
ATOM     11  C   UNL     1       1.062   8.863  20.602  0.00  0.00    +0.000 A 
ATOM     12  C   UNL     1       1.736   8.185  19.578  0.00  0.00    +0.000 A 
ATOM     13  C   UNL     1       1.856   8.811  18.331  0.00  0.00    +0.000 A 
ATOM     14  C   UNL     1       1.330  10.091  18.118  0.00  0.00    +0.000 A 
ENDBRANCH   1  12
BRANCH   3  15
ATOM     15  C   UNL     1       4.606   4.138  19.219  0.00  0.00    +0.000 C 
ATOM     16  O   UNL     1       5.799   4.392  19.393  0.00  0.00    +0.000 OA
BRANCH  15  17
ATOM     17  N   UNL     1       4.100   3.025  18.588  0.00  0.00    +0.000 NA
ATOM     18  C   UNL     1       4.363   1.852  19.059  0.00  0.00    +0.000 C 
ATOM     19  N   UNL     1       5.085   1.536  20.152  0.00  0.00    +0.000 N 
ATOM     20  N   UNL     1       3.916   0.737  18.442  0.00  0.00    +0.000 N 
ATOM     21  H   UNL     1       5.383   2.311  20.743  0.00  0.00    +0.000 HD
ATOM     22  H   UNL     1       5.092   0.616  20.561  0.00  0.00    +0.000 HD
ATOM     23  H   UNL     1       3.356   0.839  17.605  0.00  0.00    +0.000 HD
ATOM     24  H   UNL     1       4.053  -0.184  18.821  0.00  0.00    +0.000 HD
ENDBRANCH  15  17
ENDBRANCH   3  15
TORSDOF 3
ENDMDL
MODEL 9
REMARK VINA RESULT:      -7.5      2.699      3.482
REMARK  Name = 
REMARK  5 active torsions:
REMARK  status: ('A' for Active; 'I' for Inactive)
REMARK    1  A    between atoms: C_1  and  C_2
REMARK    2  A    between atoms: C_5  and  C_6
REMARK    3  A    between atoms: C_8  and  C_9
REMARK    4  A    between atoms: C_9  and  N_11
REMARK    5  A    between atoms: C_15  and  C_16
REMARK                            x       y       z     vdW  Elec       q    Type
REMARK                         _______ _______ _______ _____ _____    ______ ____
ROOT
ATOM      1  C   UNL     1       2.312   6.859  19.767  0.00  0.00    +0.000 A 
ATOM      2  N   UNL     1       3.368   6.347  19.168  0.00  0.00    +0.000 NA
ATOM      3  C   UNL     1       3.549   5.060  19.675  0.00  0.00    +0.000 A 
ATOM      4  C   UNL     1       2.573   4.811  20.635  0.00  0.00    +0.000 A 
ATOM      5  C   UNL     1       2.264   3.665  21.524  0.00  0.00    +0.000 C 
ATOM      6  N   UNL     1       1.819   5.959  20.680  0.00  0.00    +0.000 N 
ATOM      7  H   UNL     1       1.041   6.132  21.300  0.00  0.00    +0.000 HD
ENDROOT
BRANCH   1  12
ATOM      8  C   UNL     1      -0.029  12.101  18.987  0.00  0.00    +0.000 C 
ATOM      9  C   UNL     1       0.600  10.752  19.181  0.00  0.00    +0.000 A 
ATOM     10  C   UNL     1       1.272  10.114  18.134  0.00  0.00    +0.000 A 
ATOM     11  C   UNL     1       1.836   8.846  18.321  0.00  0.00    +0.000 A 
ATOM     12  C   UNL     1       1.741   8.191  19.556  0.00  0.00    +0.000 A 
ATOM     13  C   UNL     1       1.080   8.841  20.606  0.00  0.00    +0.000 A 
ATOM     14  C   UNL     1       0.513  10.107  20.420  0.00  0.00    +0.000 A 
ENDBRANCH   1  12
BRANCH   3  15
ATOM     15  C   UNL     1       4.608   4.140  19.213  0.00  0.00    +0.000 C 
ATOM     16  O   UNL     1       5.801   4.392  19.390  0.00  0.00    +0.000 OA
BRANCH  15  17
ATOM     17  N   UNL     1       4.101   3.027  18.583  0.00  0.00    +0.000 NA
ATOM     18  C   UNL     1       4.361   1.854  19.055  0.00  0.00    +0.000 C 
ATOM     19  N   UNL     1       5.083   1.538  20.149  0.00  0.00    +0.000 N 
ATOM     20  N   UNL     1       3.914   0.739  18.439  0.00  0.00    +0.000 N 
ATOM     21  H   UNL     1       5.381   2.313  20.739  0.00  0.00    +0.000 HD
ATOM     22  H   UNL     1       5.088   0.619  20.559  0.00  0.00    +0.000 HD
ATOM     23  H   UNL     1       3.355   0.842  17.602  0.00  0.00    +0.000 HD
ATOM     24  H   UNL     1       4.049  -0.181  18.819  0.00  0.00    +0.000 HD
ENDBRANCH  15  17
ENDBRANCH   3  15
TORSDOF 3
ENDMDL
