MODEL 1
REMARK VINA RESULT:      -8.8      0.000      0.000
REMARK  Name = 
REMARK  12 active torsions:
REMARK  status: ('A' for Active; 'I' for Inactive)
REMARK    1  A    between atoms: C_1  and  C_2
REMARK    2  A    between atoms: C_5  and  C_6
REMARK    3  A    between atoms: N_8  and  C_9
REMARK    4  A    between atoms: C_12  and  C_13
REMARK    5  A    between atoms: C_14  and  C_15
REMARK    6  A    between atoms: C_15  and  O_17
REMARK    7  A    between atoms: C_19  and  N_20
REMARK    8  A    between atoms: C_21  and  C_23
REMARK    9  A    between atoms: C_26  and  C_27
REMARK   10  A    between atoms: C_27  and  C_28
REMARK   11  A    between atoms: C_27  and  C_29
REMARK   12  A    between atoms: C_27  and  C_30
REMARK                            x       y       z     vdW  Elec       q    Type
REMARK                         _______ _______ _______ _____ _____    ______ ____
ROOT
ATOM      1  C   UNL     1       1.391   2.496  22.151  0.00  0.00    +0.000 C 
ATOM      2  C   UNL     1       2.133   3.117  21.004  0.00  0.00    +0.000 A 
ATOM      3  C   UNL     1       2.945   2.339  20.176  0.00  0.00    +0.000 A 
ATOM      4  C   UNL     1       3.595   2.925  19.094  0.00  0.00    +0.000 A 
ATOM      5  C   UNL     1       3.449   4.296  18.812  0.00  0.00    +0.000 A 
ATOM      6  C   UNL     1       2.662   5.093  19.649  0.00  0.00    +0.000 A 
ATOM      7  C   UNL     1       2.012   4.492  20.744  0.00  0.00    +0.000 A 
ENDROOT
BRANCH   5   8
ATOM      8  C   UNL     1       4.194   4.791  17.625  0.00  0.00    +0.000 C 
ATOM      9  O   UNL     1       3.935   5.929  17.252  0.00  0.00    +0.000 OA
ATOM     10  N   UNL     1       5.060   3.905  16.991  0.00  0.00    +0.000 N 
ATOM     11  H   UNL     1       5.055   2.942  17.315  0.00  0.00    +0.000 HD
BRANCH  10  12
ATOM     12  C   UNL     1       5.769   4.177  15.790  0.00  0.00    +0.000 A 
ATOM     13  C   UNL     1       6.860   5.041  15.735  0.00  0.00    +0.000 A 
ATOM     14  C   UNL     1       7.486   5.347  14.524  0.00  0.00    +0.000 A 
ATOM     15  C   UNL     1       7.059   4.779  13.317  0.00  0.00    +0.000 A 
ATOM     16  C   UNL     1       7.810   5.172  12.074  0.00  0.00    +0.000 C 
ATOM     17  C   UNL     1       5.981   3.871  13.363  0.00  0.00    +0.000 A 
ATOM     18  C   UNL     1       5.355   3.569  14.599  0.00  0.00    +0.000 A 
BRANCH  17  19
ATOM     19  C   UNL     1       5.469   3.113  12.186  0.00  0.00    +0.000 C 
ATOM     20  O   UNL     1       4.482   3.473  11.565  0.00  0.00    +0.000 OA
BRANCH  19  21
ATOM     21  O   UNL     1       6.203   2.045  11.819  0.00  0.00    +0.000 OA
ATOM     22  H   UNL     1       6.778   2.189  11.048  0.00  0.00    +0.000 HD
ENDBRANCH  19  21
ENDBRANCH  17  19
ENDBRANCH  10  12
ENDBRANCH   5   8
BRANCH   6  23
ATOM     23  N   UNL     1       2.449   6.466  19.374  0.00  0.00    +0.000 N 
ATOM     24  C   UNL     1       1.656   7.266  20.183  0.00  0.00    +0.000 C 
ATOM     25  O   UNL     1       1.125   6.872  21.217  0.00  0.00    +0.000 OA
ATOM     26  H   UNL     1       3.018   6.884  18.651  0.00  0.00    +0.000 HD
BRANCH  24  27
ATOM     27  C   UNL     1       1.493   8.699  19.801  0.00  0.00    +0.000 A 
ATOM     28  C   UNL     1       1.031   9.568  20.794  0.00  0.00    +0.000 A 
ATOM     29  C   UNL     1       0.861  10.930  20.536  0.00  0.00    +0.000 A 
ATOM     30  C   UNL     1       1.147  11.472  19.277  0.00  0.00    +0.000 A 
ATOM     31  C   UNL     1       1.632  10.590  18.290  0.00  0.00    +0.000 A 
ATOM     32  C   UNL     1       1.807   9.219  18.544  0.00  0.00    +0.000 A 
BRANCH  30  33
ATOM     33  C   UNL     1       0.959  12.971  18.972  0.00  0.00    +0.000 C 
ATOM     34  C   UNL     1       2.098  13.571  18.116  0.00  0.00    +0.000 C 
ATOM     35  C   UNL     1      -0.358  13.191  18.200  0.00  0.00    +0.000 C 
ATOM     36  C   UNL     1       0.909  13.777  20.288  0.00  0.00    +0.000 C 
ENDBRANCH  30  33
ENDBRANCH  24  27
ENDBRANCH   6  23
TORSDOF 7
ENDMDL
MODEL 2
REMARK VINA RESULT:      -8.7      4.422      6.702
REMARK  Name = 
REMARK  12 active torsions:
REMARK  status: ('A' for Active; 'I' for Inactive)
REMARK    1  A    between atoms: C_1  and  C_2
REMARK    2  A    between atoms: C_5  and  C_6
REMARK    3  A    between atoms: N_8  and  C_9
REMARK    4  A    between atoms: C_12  and  C_13
REMARK    5  A    between atoms: C_14  and  C_15
REMARK    6  A    between atoms: C_15  and  O_17
REMARK    7  A    between atoms: C_19  and  N_20
REMARK    8  A    between atoms: C_21  and  C_23
REMARK    9  A    between atoms: C_26  and  C_27
REMARK   10  A    between atoms: C_27  and  C_28
REMARK   11  A    between atoms: C_27  and  C_29
REMARK   12  A    between atoms: C_27  and  C_30
REMARK                            x       y       z     vdW  Elec       q    Type
REMARK                         _______ _______ _______ _____ _____    ______ ____
ROOT
ATOM      1  C   UNL     1       5.218   3.581  13.633  0.00  0.00    +0.000 C 
ATOM      2  C   UNL     1       5.789   4.491  14.681  0.00  0.00    +0.000 A 
ATOM      3  C   UNL     1       7.165   4.530  14.917  0.00  0.00    +0.000 A 
ATOM      4  C   UNL     1       7.681   5.408  15.866  0.00  0.00    +0.000 A 
ATOM      5  C   UNL     1       6.839   6.266  16.597  0.00  0.00    +0.000 A 
ATOM      6  C   UNL     1       5.456   6.218  16.392  0.00  0.00    +0.000 A 
ATOM      7  C   UNL     1       4.944   5.324  15.433  0.00  0.00    +0.000 A 
ENDROOT
BRANCH   5   8
ATOM      8  C   UNL     1       7.520   7.155  17.574  0.00  0.00    +0.000 C 
ATOM      9  O   UNL     1       7.690   6.703  18.700  0.00  0.00    +0.000 OA
ATOM     10  N   UNL     1       7.838   8.446  17.161  0.00  0.00    +0.000 N 
ATOM     11  H   UNL     1       7.494   8.736  16.250  0.00  0.00    +0.000 HD
BRANCH  10  12
ATOM     12  C   UNL     1       8.393   9.454  17.993  0.00  0.00    +0.000 A 
ATOM     13  C   UNL     1       8.930   9.187  19.251  0.00  0.00    +0.000 A 
ATOM     14  C   UNL     1       9.397  10.213  20.075  0.00  0.00    +0.000 A 
ATOM     15  C   UNL     1       9.370  11.552  19.663  0.00  0.00    +0.000 A 
ATOM     16  C   UNL     1       9.907  12.574  20.627  0.00  0.00    +0.000 C 
ATOM     17  C   UNL     1       8.868  11.833  18.376  0.00  0.00    +0.000 A 
ATOM     18  C   UNL     1       8.397  10.782  17.549  0.00  0.00    +0.000 A 
BRANCH  17  19
ATOM     19  C   UNL     1       8.857  13.188  17.755  0.00  0.00    +0.000 C 
ATOM     20  O   UNL     1       7.956  13.986  17.960  0.00  0.00    +0.000 OA
BRANCH  19  21
ATOM     21  O   UNL     1       9.934  13.492  17.007  0.00  0.00    +0.000 OA
ATOM     22  H   UNL     1       9.746  14.027  16.216  0.00  0.00    +0.000 HD
ENDBRANCH  19  21
ENDBRANCH  17  19
ENDBRANCH  10  12
ENDBRANCH   5   8
BRANCH   6  23
ATOM     23  N   UNL     1       4.578   7.097  17.071  0.00  0.00    +0.000 N 
ATOM     24  C   UNL     1       3.453   6.643  17.742  0.00  0.00    +0.000 C 
ATOM     25  O   UNL     1       3.158   5.457  17.848  0.00  0.00    +0.000 OA
ATOM     26  H   UNL     1       4.881   8.056  17.180  0.00  0.00    +0.000 HD
BRANCH  24  27
ATOM     27  C   UNL     1       2.591   7.655  18.421  0.00  0.00    +0.000 A 
ATOM     28  C   UNL     1       2.243   7.395  19.750  0.00  0.00    +0.000 A 
ATOM     29  C   UNL     1       1.452   8.291  20.474  0.00  0.00    +0.000 A 
ATOM     30  C   UNL     1       0.982   9.476  19.895  0.00  0.00    +0.000 A 
ATOM     31  C   UNL     1       1.356   9.736  18.561  0.00  0.00    +0.000 A 
ATOM     32  C   UNL     1       2.153   8.841  17.829  0.00  0.00    +0.000 A 
BRANCH  30  33
ATOM     33  C   UNL     1       0.102  10.472  20.676  0.00  0.00    +0.000 C 
ATOM     34  C   UNL     1       0.820  11.804  20.997  0.00  0.00    +0.000 C 
ATOM     35  C   UNL     1      -1.159  10.817  19.858  0.00  0.00    +0.000 C 
ATOM     36  C   UNL     1      -0.330   9.854  22.024  0.00  0.00    +0.000 C 
ENDBRANCH  30  33
ENDBRANCH  24  27
ENDBRANCH   6  23
TORSDOF 7
ENDMDL
MODEL 3
REMARK VINA RESULT:      -8.6      4.469      6.734
REMARK  Name = 
REMARK  12 active torsions:
REMARK  status: ('A' for Active; 'I' for Inactive)
REMARK    1  A    between atoms: C_1  and  C_2
REMARK    2  A    between atoms: C_5  and  C_6
REMARK    3  A    between atoms: N_8  and  C_9
REMARK    4  A    between atoms: C_12  and  C_13
REMARK    5  A    between atoms: C_14  and  C_15
REMARK    6  A    between atoms: C_15  and  O_17
REMARK    7  A    between atoms: C_19  and  N_20
REMARK    8  A    between atoms: C_21  and  C_23
REMARK    9  A    between atoms: C_26  and  C_27
REMARK   10  A    between atoms: C_27  and  C_28
REMARK   11  A    between atoms: C_27  and  C_29
REMARK   12  A    between atoms: C_27  and  C_30
REMARK                            x       y       z     vdW  Elec       q    Type
REMARK                         _______ _______ _______ _____ _____    ______ ____
ROOT
ATOM      1  C   UNL     1       5.128   3.653  13.575  0.00  0.00    +0.000 C 
ATOM      2  C   UNL     1       5.722   4.535  14.634  0.00  0.00    +0.000 A 
ATOM      3  C   UNL     1       7.106   4.601  14.813  0.00  0.00    +0.000 A 
ATOM      4  C   UNL     1       7.641   5.455  15.773  0.00  0.00    +0.000 A 
ATOM      5  C   UNL     1       6.810   6.262  16.573  0.00  0.00    +0.000 A 
ATOM      6  C   UNL     1       5.422   6.185  16.425  0.00  0.00    +0.000 A 
ATOM      7  C   UNL     1       4.890   5.316  15.454  0.00  0.00    +0.000 A 
ENDROOT
BRANCH   5   8
ATOM      8  C   UNL     1       7.511   7.129  17.556  0.00  0.00    +0.000 C 
ATOM      9  O   UNL     1       7.668   6.667  18.679  0.00  0.00    +0.000 OA
ATOM     10  N   UNL     1       7.860   8.414  17.149  0.00  0.00    +0.000 N 
ATOM     11  H   UNL     1       7.525   8.717  16.239  0.00  0.00    +0.000 HD
BRANCH  10  12
ATOM     12  C   UNL     1       8.439   9.405  17.987  0.00  0.00    +0.000 A 
ATOM     13  C   UNL     1       8.831   9.151  19.299  0.00  0.00    +0.000 A 
ATOM     14  C   UNL     1       9.325  10.167  20.120  0.00  0.00    +0.000 A 
ATOM     15  C   UNL     1       9.470  11.480  19.652  0.00  0.00    +0.000 A 
ATOM     16  C   UNL     1      10.019  12.493  20.618  0.00  0.00    +0.000 C 
ATOM     17  C   UNL     1       9.115  11.742  18.313  0.00  0.00    +0.000 A 
ATOM     18  C   UNL     1       8.616  10.702  17.490  0.00  0.00    +0.000 A 
BRANCH  17  19
ATOM     19  C   UNL     1       9.297  13.059  17.637  0.00  0.00    +0.000 C 
ATOM     20  O   UNL     1      10.404  13.523  17.414  0.00  0.00    +0.000 OA
BRANCH  19  21
ATOM     21  O   UNL     1       8.165  13.668  17.238  0.00  0.00    +0.000 OA
ATOM     22  H   UNL     1       8.291  14.546  16.837  0.00  0.00    +0.000 HD
ENDBRANCH  19  21
ENDBRANCH  17  19
ENDBRANCH  10  12
ENDBRANCH   5   8
BRANCH   6  23
ATOM     23  N   UNL     1       4.552   7.014  17.175  0.00  0.00    +0.000 N 
ATOM     24  C   UNL     1       3.450   6.510  17.846  0.00  0.00    +0.000 C 
ATOM     25  O   UNL     1       3.168   5.316  17.891  0.00  0.00    +0.000 OA
ATOM     26  H   UNL     1       4.849   7.968  17.332  0.00  0.00    +0.000 HD
BRANCH  24  27
ATOM     27  C   UNL     1       2.595   7.471  18.604  0.00  0.00    +0.000 A 
ATOM     28  C   UNL     1       2.183   8.620  17.923  0.00  0.00    +0.000 A 
ATOM     29  C   UNL     1       1.368   9.570  18.543  0.00  0.00    +0.000 A 
ATOM     30  C   UNL     1       0.938   9.405  19.866  0.00  0.00    +0.000 A 
ATOM     31  C   UNL     1       1.344   8.233  20.536  0.00  0.00    +0.000 A 
ATOM     32  C   UNL     1       2.161   7.273  19.916  0.00  0.00    +0.000 A 
BRANCH  30  33
ATOM     33  C   UNL     1       0.046  10.447  20.569  0.00  0.00    +0.000 C 
ATOM     34  C   UNL     1       0.719  11.832  20.716  0.00  0.00    +0.000 C 
ATOM     35  C   UNL     1      -1.256  10.654  19.768  0.00  0.00    +0.000 C 
ATOM     36  C   UNL     1      -0.313   9.965  21.991  0.00  0.00    +0.000 C 
ENDBRANCH  30  33
ENDBRANCH  24  27
ENDBRANCH   6  23
TORSDOF 7
ENDMDL
MODEL 4
REMARK VINA RESULT:      -8.6      4.361      8.163
REMARK  Name = 
REMARK  12 active torsions:
REMARK  status: ('A' for Active; 'I' for Inactive)
REMARK    1  A    between atoms: C_1  and  C_2
REMARK    2  A    between atoms: C_5  and  C_6
REMARK    3  A    between atoms: N_8  and  C_9
REMARK    4  A    between atoms: C_12  and  C_13
REMARK    5  A    between atoms: C_14  and  C_15
REMARK    6  A    between atoms: C_15  and  O_17
REMARK    7  A    between atoms: C_19  and  N_20
REMARK    8  A    between atoms: C_21  and  C_23
REMARK    9  A    between atoms: C_26  and  C_27
REMARK   10  A    between atoms: C_27  and  C_28
REMARK   11  A    between atoms: C_27  and  C_29
REMARK   12  A    between atoms: C_27  and  C_30
REMARK                            x       y       z     vdW  Elec       q    Type
REMARK                         _______ _______ _______ _____ _____    ______ ____
ROOT
ATOM      1  C   UNL     1       6.353   3.546  13.702  0.00  0.00    +0.000 C 
ATOM      2  C   UNL     1       5.756   4.322  14.839  0.00  0.00    +0.000 A 
ATOM      3  C   UNL     1       4.660   3.821  15.546  0.00  0.00    +0.000 A 
ATOM      4  C   UNL     1       4.145   4.536  16.623  0.00  0.00    +0.000 A 
ATOM      5  C   UNL     1       4.710   5.762  17.020  0.00  0.00    +0.000 A 
ATOM      6  C   UNL     1       5.790   6.289  16.304  0.00  0.00    +0.000 A 
ATOM      7  C   UNL     1       6.301   5.560  15.214  0.00  0.00    +0.000 A 
ENDROOT
BRANCH   5   8
ATOM      8  C   UNL     1       4.065   6.418  18.188  0.00  0.00    +0.000 C 
ATOM      9  O   UNL     1       4.428   6.042  19.296  0.00  0.00    +0.000 OA
ATOM     10  N   UNL     1       3.056   7.342  17.932  0.00  0.00    +0.000 N 
ATOM     11  H   UNL     1       2.751   7.437  16.968  0.00  0.00    +0.000 HD
BRANCH  10  12
ATOM     12  C   UNL     1       2.268   7.983  18.926  0.00  0.00    +0.000 A 
ATOM     13  C   UNL     1       1.999   7.407  20.166  0.00  0.00    +0.000 A 
ATOM     14  C   UNL     1       1.156   8.030  21.089  0.00  0.00    +0.000 A 
ATOM     15  C   UNL     1       0.566   9.271  20.819  0.00  0.00    +0.000 A 
ATOM     16  C   UNL     1      -0.317   9.855  21.888  0.00  0.00    +0.000 C 
ATOM     17  C   UNL     1       0.862   9.885  19.584  0.00  0.00    +0.000 A 
ATOM     18  C   UNL     1       1.719   9.242  18.656  0.00  0.00    +0.000 A 
BRANCH  17  19
ATOM     19  C   UNL     1       0.390  11.242  19.185  0.00  0.00    +0.000 C 
ATOM     20  O   UNL     1       0.813  12.255  19.718  0.00  0.00    +0.000 OA
BRANCH  19  21
ATOM     21  O   UNL     1      -0.483  11.275  18.160  0.00  0.00    +0.000 OA
ATOM     22  H   UNL     1      -1.239  10.669  18.247  0.00  0.00    +0.000 HD
ENDBRANCH  19  21
ENDBRANCH  17  19
ENDBRANCH  10  12
ENDBRANCH   5   8
BRANCH   6  23
ATOM     23  N   UNL     1       6.420   7.495  16.700  0.00  0.00    +0.000 N 
ATOM     24  C   UNL     1       7.416   7.525  17.663  0.00  0.00    +0.000 C 
ATOM     25  O   UNL     1       7.867   6.521  18.206  0.00  0.00    +0.000 OA
ATOM     26  H   UNL     1       6.225   8.318  16.146  0.00  0.00    +0.000 HD
BRANCH  24  27
ATOM     27  C   UNL     1       8.010   8.849  18.010  0.00  0.00    +0.000 A 
ATOM     28  C   UNL     1       8.911   8.875  19.079  0.00  0.00    +0.000 A 
ATOM     29  C   UNL     1       9.530  10.065  19.469  0.00  0.00    +0.000 A 
ATOM     30  C   UNL     1       9.271  11.270  18.804  0.00  0.00    +0.000 A 
ATOM     31  C   UNL     1       8.377  11.227  17.715  0.00  0.00    +0.000 A 
ATOM     32  C   UNL     1       7.753  10.034  17.317  0.00  0.00    +0.000 A 
BRANCH  30  33
ATOM     33  C   UNL     1       9.939  12.594  19.225  0.00  0.00    +0.000 C 
ATOM     34  C   UNL     1      11.484  12.521  19.249  0.00  0.00    +0.000 C 
ATOM     35  C   UNL     1       9.549  13.718  18.243  0.00  0.00    +0.000 C 
ATOM     36  C   UNL     1       9.483  12.990  20.646  0.00  0.00    +0.000 C 
ENDBRANCH  30  33
ENDBRANCH  24  27
ENDBRANCH   6  23
TORSDOF 7
ENDMDL
MODEL 5
REMARK VINA RESULT:      -8.6      4.599     11.683
REMARK  Name = 
REMARK  12 active torsions:
REMARK  status: ('A' for Active; 'I' for Inactive)
REMARK    1  A    between atoms: C_1  and  C_2
REMARK    2  A    between atoms: C_5  and  C_6
REMARK    3  A    between atoms: N_8  and  C_9
REMARK    4  A    between atoms: C_12  and  C_13
REMARK    5  A    between atoms: C_14  and  C_15
REMARK    6  A    between atoms: C_15  and  O_17
REMARK    7  A    between atoms: C_19  and  N_20
REMARK    8  A    between atoms: C_21  and  C_23
REMARK    9  A    between atoms: C_26  and  C_27
REMARK   10  A    between atoms: C_27  and  C_28
REMARK   11  A    between atoms: C_27  and  C_29
REMARK   12  A    between atoms: C_27  and  C_30
REMARK                            x       y       z     vdW  Elec       q    Type
REMARK                         _______ _______ _______ _____ _____    ______ ____
ROOT
ATOM      1  C   UNL     1       3.597  15.065  17.952  0.00  0.00    +0.000 C 
ATOM      2  C   UNL     1       2.378  14.346  18.450  0.00  0.00    +0.000 A 
ATOM      3  C   UNL     1       1.152  15.008  18.552  0.00  0.00    +0.000 A 
ATOM      4  C   UNL     1       0.023  14.315  18.979  0.00  0.00    +0.000 A 
ATOM      5  C   UNL     1       0.090  12.949  19.311  0.00  0.00    +0.000 A 
ATOM      6  C   UNL     1       1.317  12.280  19.241  0.00  0.00    +0.000 A 
ATOM      7  C   UNL     1       2.453  12.991  18.812  0.00  0.00    +0.000 A 
ENDROOT
BRANCH   5   8
ATOM      8  C   UNL     1      -1.189  12.331  19.748  0.00  0.00    +0.000 C 
ATOM      9  O   UNL     1      -1.136  11.161  20.109  0.00  0.00    +0.000 OA
ATOM     10  N   UNL     1      -2.346  13.096  19.638  0.00  0.00    +0.000 N 
ATOM     11  H   UNL     1      -2.263  13.995  19.172  0.00  0.00    +0.000 HD
BRANCH  10  12
ATOM     12  C   UNL     1      -3.660  12.630  19.912  0.00  0.00    +0.000 A 
ATOM     13  C   UNL     1      -4.407  11.891  18.996  0.00  0.00    +0.000 A 
ATOM     14  C   UNL     1      -5.724  11.514  19.267  0.00  0.00    +0.000 A 
ATOM     15  C   UNL     1      -6.343  11.842  20.480  0.00  0.00    +0.000 A 
ATOM     16  C   UNL     1      -7.762  11.379  20.670  0.00  0.00    +0.000 C 
ATOM     17  C   UNL     1      -5.586  12.554  21.433  0.00  0.00    +0.000 A 
ATOM     18  C   UNL     1      -4.250  12.930  21.146  0.00  0.00    +0.000 A 
BRANCH  17  19
ATOM     19  C   UNL     1      -6.065  12.897  22.803  0.00  0.00    +0.000 C 
ATOM     20  O   UNL     1      -6.918  13.749  22.994  0.00  0.00    +0.000 OA
BRANCH  19  21
ATOM     21  O   UNL     1      -5.541  12.162  23.802  0.00  0.00    +0.000 OA
ATOM     22  H   UNL     1      -5.461  12.626  24.653  0.00  0.00    +0.000 HD
ENDBRANCH  19  21
ENDBRANCH  17  19
ENDBRANCH  10  12
ENDBRANCH   5   8
BRANCH   6  23
ATOM     23  N   UNL     1       1.419  10.895  19.520  0.00  0.00    +0.000 N 
ATOM     24  C   UNL     1       1.833   9.980  18.565  0.00  0.00    +0.000 C 
ATOM     25  O   UNL     1       2.192  10.293  17.434  0.00  0.00    +0.000 OA
ATOM     26  H   UNL     1       1.325  10.613  20.486  0.00  0.00    +0.000 HD
BRANCH  24  27
ATOM     27  C   UNL     1       1.901   8.543  18.961  0.00  0.00    +0.000 A 
ATOM     28  C   UNL     1       2.311   7.637  17.977  0.00  0.00    +0.000 A 
ATOM     29  C   UNL     1       2.420   6.272  18.257  0.00  0.00    +0.000 A 
ATOM     30  C   UNL     1       2.124   5.766  19.529  0.00  0.00    +0.000 A 
ATOM     31  C   UNL     1       1.732   6.692  20.517  0.00  0.00    +0.000 A 
ATOM     32  C   UNL     1       1.622   8.065  20.243  0.00  0.00    +0.000 A 
BRANCH  30  33
ATOM     33  C   UNL     1       2.232   4.263  19.853  0.00  0.00    +0.000 C 
ATOM     34  C   UNL     1       1.865   3.924  21.317  0.00  0.00    +0.000 C 
ATOM     35  C   UNL     1       1.280   3.457  18.945  0.00  0.00    +0.000 C 
ATOM     36  C   UNL     1       3.678   3.773  19.624  0.00  0.00    +0.000 C 
ENDBRANCH  30  33
ENDBRANCH  24  27
ENDBRANCH   6  23
TORSDOF 7
ENDMDL
MODEL 6
REMARK VINA RESULT:      -8.2      4.644      6.760
REMARK  Name = 
REMARK  12 active torsions:
REMARK  status: ('A' for Active; 'I' for Inactive)
REMARK    1  A    between atoms: C_1  and  C_2
REMARK    2  A    between atoms: C_5  and  C_6
REMARK    3  A    between atoms: N_8  and  C_9
REMARK    4  A    between atoms: C_12  and  C_13
REMARK    5  A    between atoms: C_14  and  C_15
REMARK    6  A    between atoms: C_15  and  O_17
REMARK    7  A    between atoms: C_19  and  N_20
REMARK    8  A    between atoms: C_21  and  C_23
REMARK    9  A    between atoms: C_26  and  C_27
REMARK   10  A    between atoms: C_27  and  C_28
REMARK   11  A    between atoms: C_27  and  C_29
REMARK   12  A    between atoms: C_27  and  C_30
REMARK                            x       y       z     vdW  Elec       q    Type
REMARK                         _______ _______ _______ _____ _____    ______ ____
ROOT
ATOM      1  C   UNL     1       5.174   3.678  13.765  0.00  0.00    +0.000 C 
ATOM      2  C   UNL     1       5.779   4.563  14.816  0.00  0.00    +0.000 A 
ATOM      3  C   UNL     1       7.162   4.601  15.005  0.00  0.00    +0.000 A 
ATOM      4  C   UNL     1       7.708   5.457  15.957  0.00  0.00    +0.000 A 
ATOM      5  C   UNL     1       6.890   6.294  16.738  0.00  0.00    +0.000 A 
ATOM      6  C   UNL     1       5.501   6.246  16.579  0.00  0.00    +0.000 A 
ATOM      7  C   UNL     1       4.958   5.374  15.617  0.00  0.00    +0.000 A 
ENDROOT
BRANCH   5   8
ATOM      8  C   UNL     1       7.602   7.161  17.714  0.00  0.00    +0.000 C 
ATOM      9  O   UNL     1       7.712   6.725  18.853  0.00  0.00    +0.000 OA
ATOM     10  N   UNL     1       8.013   8.417  17.280  0.00  0.00    +0.000 N 
ATOM     11  H   UNL     1       7.713   8.707  16.354  0.00  0.00    +0.000 HD
BRANCH  10  12
ATOM     12  C   UNL     1       8.612   9.408  18.104  0.00  0.00    +0.000 A 
ATOM     13  C   UNL     1       8.739   9.268  19.484  0.00  0.00    +0.000 A 
ATOM     14  C   UNL     1       9.262  10.294  20.275  0.00  0.00    +0.000 A 
ATOM     15  C   UNL     1       9.703  11.498  19.711  0.00  0.00    +0.000 A 
ATOM     16  C   UNL     1      10.257  12.531  20.654  0.00  0.00    +0.000 C 
ATOM     17  C   UNL     1       9.619  11.638  18.310  0.00  0.00    +0.000 A 
ATOM     18  C   UNL     1       9.086  10.588  17.520  0.00  0.00    +0.000 A 
BRANCH  17  19
ATOM     19  C   UNL     1      10.130  12.814  17.550  0.00  0.00    +0.000 C 
ATOM     20  O   UNL     1       9.556  13.891  17.563  0.00  0.00    +0.000 OA
BRANCH  19  21
ATOM     21  O   UNL     1      11.296  12.624  16.903  0.00  0.00    +0.000 OA
ATOM     22  H   UNL     1      11.720  11.764  17.066  0.00  0.00    +0.000 HD
ENDBRANCH  19  21
ENDBRANCH  17  19
ENDBRANCH  10  12
ENDBRANCH   5   8
BRANCH   6  23
ATOM     23  N   UNL     1       4.644   7.105  17.310  0.00  0.00    +0.000 N 
ATOM     24  C   UNL     1       3.412   6.686  17.787  0.00  0.00    +0.000 C 
ATOM     25  O   UNL     1       2.990   5.540  17.666  0.00  0.00    +0.000 OA
ATOM     26  H   UNL     1       5.027   7.993  17.605  0.00  0.00    +0.000 HD
BRANCH  24  27
ATOM     27  C   UNL     1       2.584   7.673  18.542  0.00  0.00    +0.000 A 
ATOM     28  C   UNL     1       2.193   8.824  17.852  0.00  0.00    +0.000 A 
ATOM     29  C   UNL     1       1.403   9.798  18.469  0.00  0.00    +0.000 A 
ATOM     30  C   UNL     1       0.980   9.656  19.796  0.00  0.00    +0.000 A 
ATOM     31  C   UNL     1       1.364   8.481  20.474  0.00  0.00    +0.000 A 
ATOM     32  C   UNL     1       2.155   7.497  19.859  0.00  0.00    +0.000 A 
BRANCH  30  33
ATOM     33  C   UNL     1       0.115  10.723  20.495  0.00  0.00    +0.000 C 
ATOM     34  C   UNL     1      -0.402  10.281  21.884  0.00  0.00    +0.000 C 
ATOM     35  C   UNL     1       0.935  12.014  20.702  0.00  0.00    +0.000 C 
ATOM     36  C   UNL     1      -1.123  11.050  19.634  0.00  0.00    +0.000 C 
ENDBRANCH  30  33
ENDBRANCH  24  27
ENDBRANCH   6  23
TORSDOF 7
ENDMDL
MODEL 7
REMARK VINA RESULT:      -8.0      4.558     11.416
REMARK  Name = 
REMARK  12 active torsions:
REMARK  status: ('A' for Active; 'I' for Inactive)
REMARK    1  A    between atoms: C_1  and  C_2
REMARK    2  A    between atoms: C_5  and  C_6
REMARK    3  A    between atoms: N_8  and  C_9
REMARK    4  A    between atoms: C_12  and  C_13
REMARK    5  A    between atoms: C_14  and  C_15
REMARK    6  A    between atoms: C_15  and  O_17
REMARK    7  A    between atoms: C_19  and  N_20
REMARK    8  A    between atoms: C_21  and  C_23
REMARK    9  A    between atoms: C_26  and  C_27
REMARK   10  A    between atoms: C_27  and  C_28
REMARK   11  A    between atoms: C_27  and  C_29
REMARK   12  A    between atoms: C_27  and  C_30
REMARK                            x       y       z     vdW  Elec       q    Type
REMARK                         _______ _______ _______ _____ _____    ______ ____
ROOT
ATOM      1  C   UNL     1       3.646  15.102  17.915  0.00  0.00    +0.000 C 
ATOM      2  C   UNL     1       2.433  14.357  18.389  0.00  0.00    +0.000 A 
ATOM      3  C   UNL     1       1.211  15.014  18.551  0.00  0.00    +0.000 A 
ATOM      4  C   UNL     1       0.087  14.299  18.955  0.00  0.00    +0.000 A 
ATOM      5  C   UNL     1       0.155  12.915  19.203  0.00  0.00    +0.000 A 
ATOM      6  C   UNL     1       1.379  12.249  19.072  0.00  0.00    +0.000 A 
ATOM      7  C   UNL     1       2.510  12.982  18.668  0.00  0.00    +0.000 A 
ENDROOT
BRANCH   5   8
ATOM      8  C   UNL     1      -1.118  12.274  19.623  0.00  0.00    +0.000 C 
ATOM      9  O   UNL     1      -1.022  11.284  20.338  0.00  0.00    +0.000 OA
ATOM     10  N   UNL     1      -2.303  12.797  19.113  0.00  0.00    +0.000 N 
ATOM     11  H   UNL     1      -2.221  13.521  18.405  0.00  0.00    +0.000 HD
BRANCH  10  12
ATOM     12  C   UNL     1      -3.595  12.247  19.327  0.00  0.00    +0.000 A 
ATOM     13  C   UNL     1      -4.170  11.310  18.471  0.00  0.00    +0.000 A 
ATOM     14  C   UNL     1      -5.473  10.848  18.667  0.00  0.00    +0.000 A 
ATOM     15  C   UNL     1      -6.248  11.286  19.749  0.00  0.00    +0.000 A 
ATOM     16  C   UNL     1      -7.635  10.716  19.870  0.00  0.00    +0.000 C 
ATOM     17  C   UNL     1      -5.665  12.203  20.647  0.00  0.00    +0.000 A 
ATOM     18  C   UNL     1      -4.341  12.664  20.436  0.00  0.00    +0.000 A 
BRANCH  17  19
ATOM     19  C   UNL     1      -6.320  12.693  21.894  0.00  0.00    +0.000 C 
ATOM     20  O   UNL     1      -7.351  13.346  21.867  0.00  0.00    +0.000 OA
BRANCH  19  21
ATOM     21  O   UNL     1      -5.735  12.314  23.045  0.00  0.00    +0.000 OA
ATOM     22  H   UNL     1      -4.993  11.692  22.942  0.00  0.00    +0.000 HD
ENDBRANCH  19  21
ENDBRANCH  17  19
ENDBRANCH  10  12
ENDBRANCH   5   8
BRANCH   6  23
ATOM     23  N   UNL     1       1.481  10.850  19.265  0.00  0.00    +0.000 N 
ATOM     24  C   UNL     1       1.994  10.007  18.292  0.00  0.00    +0.000 C 
ATOM     25  O   UNL     1       2.444  10.400  17.221  0.00  0.00    +0.000 OA
ATOM     26  H   UNL     1       1.309  10.501  20.198  0.00  0.00    +0.000 HD
BRANCH  24  27
ATOM     27  C   UNL     1       2.053   8.547  18.595  0.00  0.00    +0.000 A 
ATOM     28  C   UNL     1       1.836   8.170  19.924  0.00  0.00    +0.000 A 
ATOM     29  C   UNL     1       1.857   6.825  20.302  0.00  0.00    +0.000 A 
ATOM     30  C   UNL     1       2.095   5.811  19.367  0.00  0.00    +0.000 A 
ATOM     31  C   UNL     1       2.292   6.202  18.027  0.00  0.00    +0.000 A 
ATOM     32  C   UNL     1       2.271   7.552  17.639  0.00  0.00    +0.000 A 
BRANCH  30  33
ATOM     33  C   UNL     1       2.129   4.323  19.767  0.00  0.00    +0.000 C 
ATOM     34  C   UNL     1       1.175   3.440  18.929  0.00  0.00    +0.000 C 
ATOM     35  C   UNL     1       3.553   3.759  19.585  0.00  0.00    +0.000 C 
ATOM     36  C   UNL     1       1.712   4.162  21.245  0.00  0.00    +0.000 C 
ENDBRANCH  30  33
ENDBRANCH  24  27
ENDBRANCH   6  23
TORSDOF 7
ENDMDL
MODEL 8
REMARK VINA RESULT:      -7.8      4.507     10.202
REMARK  Name = 
REMARK  12 active torsions:
REMARK  status: ('A' for Active; 'I' for Inactive)
REMARK    1  A    between atoms: C_1  and  C_2
REMARK    2  A    between atoms: C_5  and  C_6
REMARK    3  A    between atoms: N_8  and  C_9
REMARK    4  A    between atoms: C_12  and  C_13
REMARK    5  A    between atoms: C_14  and  C_15
REMARK    6  A    between atoms: C_15  and  O_17
REMARK    7  A    between atoms: C_19  and  N_20
REMARK    8  A    between atoms: C_21  and  C_23
REMARK    9  A    between atoms: C_26  and  C_27
REMARK   10  A    between atoms: C_27  and  C_28
REMARK   11  A    between atoms: C_27  and  C_29
REMARK   12  A    between atoms: C_27  and  C_30
REMARK                            x       y       z     vdW  Elec       q    Type
REMARK                         _______ _______ _______ _____ _____    ______ ____
ROOT
ATOM      1  C   UNL     1      -4.458  12.155  19.729  0.00  0.00    +0.000 C 
ATOM      2  C   UNL     1      -2.983  12.430  19.704  0.00  0.00    +0.000 A 
ATOM      3  C   UNL     1      -2.482  13.667  20.114  0.00  0.00    +0.000 A 
ATOM      4  C   UNL     1      -1.108  13.890  20.122  0.00  0.00    +0.000 A 
ATOM      5  C   UNL     1      -0.206  12.887  19.724  0.00  0.00    +0.000 A 
ATOM      6  C   UNL     1      -0.695  11.653  19.284  0.00  0.00    +0.000 A 
ATOM      7  C   UNL     1      -2.086  11.438  19.276  0.00  0.00    +0.000 A 
ENDROOT
BRANCH   5   8
ATOM      8  C   UNL     1       1.233  13.256  19.784  0.00  0.00    +0.000 C 
ATOM      9  O   UNL     1       1.886  12.764  20.696  0.00  0.00    +0.000 OA
ATOM     10  N   UNL     1       1.700  14.183  18.857  0.00  0.00    +0.000 N 
ATOM     11  H   UNL     1       1.009  14.628  18.260  0.00  0.00    +0.000 HD
BRANCH  10  12
ATOM     12  C   UNL     1       3.015  14.723  18.837  0.00  0.00    +0.000 A 
ATOM     13  C   UNL     1       4.010  14.259  17.979  0.00  0.00    +0.000 A 
ATOM     14  C   UNL     1       5.313  14.759  18.039  0.00  0.00    +0.000 A 
ATOM     15  C   UNL     1       5.668  15.766  18.946  0.00  0.00    +0.000 A 
ATOM     16  C   UNL     1       7.096  16.237  18.919  0.00  0.00    +0.000 C 
ATOM     17  C   UNL     1       4.661  16.274  19.792  0.00  0.00    +0.000 A 
ATOM     18  C   UNL     1       3.342  15.758  19.721  0.00  0.00    +0.000 A 
BRANCH  17  19
ATOM     19  C   UNL     1       4.853  17.406  20.743  0.00  0.00    +0.000 C 
ATOM     20  O   UNL     1       4.849  17.241  21.953  0.00  0.00    +0.000 OA
BRANCH  19  21
ATOM     21  O   UNL     1       5.092  18.604  20.179  0.00  0.00    +0.000 OA
ATOM     22  H   UNL     1       4.995  19.366  20.777  0.00  0.00    +0.000 HD
ENDBRANCH  19  21
ENDBRANCH  17  19
ENDBRANCH  10  12
ENDBRANCH   5   8
BRANCH   6  23
ATOM     23  N   UNL     1       0.180  10.599  18.920  0.00  0.00    +0.000 N 
ATOM     24  C   UNL     1       0.636   9.669  19.841  0.00  0.00    +0.000 C 
ATOM     25  O   UNL     1       0.284   9.647  21.016  0.00  0.00    +0.000 OA
ATOM     26  H   UNL     1       0.342  10.457  17.933  0.00  0.00    +0.000 HD
BRANCH  24  27
ATOM     27  C   UNL     1       1.559   8.602  19.355  0.00  0.00    +0.000 A 
ATOM     28  C   UNL     1       2.138   8.795  18.097  0.00  0.00    +0.000 A 
ATOM     29  C   UNL     1       3.028   7.859  17.564  0.00  0.00    +0.000 A 
ATOM     30  C   UNL     1       3.368   6.697  18.268  0.00  0.00    +0.000 A 
ATOM     31  C   UNL     1       2.793   6.524  19.543  0.00  0.00    +0.000 A 
ATOM     32  C   UNL     1       1.900   7.462  20.086  0.00  0.00    +0.000 A 
BRANCH  30  33
ATOM     33  C   UNL     1       4.341   5.650  17.692  0.00  0.00    +0.000 C 
ATOM     34  C   UNL     1       5.468   5.253  18.675  0.00  0.00    +0.000 C 
ATOM     35  C   UNL     1       3.575   4.360  17.330  0.00  0.00    +0.000 C 
ATOM     36  C   UNL     1       5.022   6.201  16.421  0.00  0.00    +0.000 C 
ENDBRANCH  30  33
ENDBRANCH  24  27
ENDBRANCH   6  23
TORSDOF 7
ENDMDL
MODEL 9
REMARK VINA RESULT:      -7.8      4.761     11.389
REMARK  Name = 
REMARK  12 active torsions:
REMARK  status: ('A' for Active; 'I' for Inactive)
REMARK    1  A    between atoms: C_1  and  C_2
REMARK    2  A    between atoms: C_5  and  C_6
REMARK    3  A    between atoms: N_8  and  C_9
REMARK    4  A    between atoms: C_12  and  C_13
REMARK    5  A    between atoms: C_14  and  C_15
REMARK    6  A    between atoms: C_15  and  O_17
REMARK    7  A    between atoms: C_19  and  N_20
REMARK    8  A    between atoms: C_21  and  C_23
REMARK    9  A    between atoms: C_26  and  C_27
REMARK   10  A    between atoms: C_27  and  C_28
REMARK   11  A    between atoms: C_27  and  C_29
REMARK   12  A    between atoms: C_27  and  C_30
REMARK                            x       y       z     vdW  Elec       q    Type
REMARK                         _______ _______ _______ _____ _____    ______ ____
ROOT
ATOM      1  C   UNL     1       3.898  15.173  18.134  0.00  0.00    +0.000 C 
ATOM      2  C   UNL     1       2.642  14.373  18.315  0.00  0.00    +0.000 A 
ATOM      3  C   UNL     1       1.394  15.000  18.338  0.00  0.00    +0.000 A 
ATOM      4  C   UNL     1       0.237  14.238  18.468  0.00  0.00    +0.000 A 
ATOM      5  C   UNL     1       0.297  12.836  18.574  0.00  0.00    +0.000 A 
ATOM      6  C   UNL     1       1.542  12.196  18.582  0.00  0.00    +0.000 A 
ATOM      7  C   UNL     1       2.706  12.976  18.455  0.00  0.00    +0.000 A 
ENDROOT
BRANCH   5   8
ATOM      8  C   UNL     1      -1.012  12.144  18.703  0.00  0.00    +0.000 C 
ATOM      9  O   UNL     1      -1.109  11.050  18.160  0.00  0.00    +0.000 OA
ATOM     10  N   UNL     1      -2.038  12.821  19.356  0.00  0.00    +0.000 N 
ATOM     11  H   UNL     1      -1.861  13.787  19.616  0.00  0.00    +0.000 HD
BRANCH  10  12
ATOM     12  C   UNL     1      -3.374  12.354  19.477  0.00  0.00    +0.000 A 
ATOM     13  C   UNL     1      -3.967  11.507  18.544  0.00  0.00    +0.000 A 
ATOM     14  C   UNL     1      -5.307  11.129  18.652  0.00  0.00    +0.000 A 
ATOM     15  C   UNL     1      -6.106  11.566  19.718  0.00  0.00    +0.000 A 
ATOM     16  C   UNL     1      -7.533  11.091  19.741  0.00  0.00    +0.000 C 
ATOM     17  C   UNL     1      -5.508  12.391  20.692  0.00  0.00    +0.000 A 
ATOM     18  C   UNL     1      -4.146  12.767  20.570  0.00  0.00    +0.000 A 
BRANCH  17  19
ATOM     19  C   UNL     1      -6.192  12.862  21.930  0.00  0.00    +0.000 C 
ATOM     20  O   UNL     1      -6.979  13.795  21.919  0.00  0.00    +0.000 OA
BRANCH  19  21
ATOM     21  O   UNL     1      -5.930  12.151  23.044  0.00  0.00    +0.000 OA
ATOM     22  H   UNL     1      -4.989  11.955  23.193  0.00  0.00    +0.000 HD
ENDBRANCH  19  21
ENDBRANCH  17  19
ENDBRANCH  10  12
ENDBRANCH   5   8
BRANCH   6  23
ATOM     23  N   UNL     1       1.645  10.785  18.639  0.00  0.00    +0.000 N 
ATOM     24  C   UNL     1       1.533  10.085  19.830  0.00  0.00    +0.000 C 
ATOM     25  O   UNL     1       1.284  10.614  20.909  0.00  0.00    +0.000 OA
ATOM     26  H   UNL     1       1.653  10.288  17.758  0.00  0.00    +0.000 HD
BRANCH  24  27
ATOM     27  C   UNL     1       1.663   8.599  19.780  0.00  0.00    +0.000 A 
ATOM     28  C   UNL     1       2.205   8.053  18.613  0.00  0.00    +0.000 A 
ATOM     29  C   UNL     1       2.381   6.673  18.479  0.00  0.00    +0.000 A 
ATOM     30  C   UNL     1       2.020   5.792  19.506  0.00  0.00    +0.000 A 
ATOM     31  C   UNL     1       1.492   6.356  20.685  0.00  0.00    +0.000 A 
ATOM     32  C   UNL     1       1.316   7.743  20.827  0.00  0.00    +0.000 A 
BRANCH  30  33
ATOM     33  C   UNL     1       2.199   4.267  19.372  0.00  0.00    +0.000 C 
ATOM     34  C   UNL     1       3.511   3.864  18.660  0.00  0.00    +0.000 C 
ATOM     35  C   UNL     1       2.217   3.613  20.769  0.00  0.00    +0.000 C 
ATOM     36  C   UNL     1       1.036   3.666  18.554  0.00  0.00    +0.000 C 
ENDBRANCH  30  33
ENDBRANCH  24  27
ENDBRANCH   6  23
TORSDOF 7
ENDMDL
