MODEL 1
REMARK VINA RESULT:      -9.4      0.000      0.000
REMARK  Name = 
REMARK  2 active torsions:
REMARK  status: ('A' for Active; 'I' for Inactive)
REMARK    1  A    between atoms: C_1  and  C_2
REMARK    2  A    between atoms: C_3  and  C_4
REMARK                            x       y       z     vdW  Elec       q    Type
REMARK                         _______ _______ _______ _____ _____    ______ ____
ROOT
ATOM      1  C   UNL     1       0.727   8.302  21.061  0.00  0.00    +0.000 C 
ATOM      2  C   UNL     1       1.338   8.657  19.749  0.00  0.00    +0.000 A 
ATOM      3  C   UNL     1       1.292   9.834  19.009  0.00  0.00    +0.000 A 
ATOM      4  C   UNL     1       2.005   9.505  17.834  0.00  0.00    +0.000 A 
ATOM      5  N   UNL     1       2.575   8.304  17.868  0.00  0.00    +0.000 NA
ATOM      6  N   UNL     1       2.134   7.768  19.041  0.00  0.00    +0.000 N 
ATOM      7  C   UNL     1       2.514   6.451  19.364  0.00  0.00    +0.000 A 
ATOM      8  N   UNL     1       2.078   5.819  20.405  0.00  0.00    +0.000 NA
ATOM      9  C   UNL     1       2.557   4.554  20.541  0.00  0.00    +0.000 A 
ATOM     10  C   UNL     1       3.434   3.957  19.735  0.00  0.00    +0.000 A 
ATOM     11  C   UNL     1       3.948   4.690  18.578  0.00  0.00    +0.000 A 
ATOM     12  O   UNL     1       4.775   4.220  17.812  0.00  0.00    +0.000 OA
ATOM     13  N   UNL     1       3.414   5.943  18.451  0.00  0.00    +0.000 N 
ATOM     14  C   UNL     1       3.769   2.579  20.153  0.00  0.00    +0.000 C 
ATOM     15  C   UNL     1       2.747   2.318  21.272  0.00  0.00    +0.000 C 
ATOM     16  C   UNL     1       2.129   3.668  21.656  0.00  0.00    +0.000 C 
ATOM     17  H   UNL     1       3.705   6.529  17.676  0.00  0.00    +0.000 HD
ENDROOT
BRANCH   3  18
ATOM     18  C   UNL     1       0.598  11.068  19.387  0.00  0.00    +0.000 C 
ATOM     19  O   UNL     1       1.149  11.900  20.101  0.00  0.00    +0.000 OA
ATOM     20  N   UNL     1      -0.694  11.282  18.891  0.00  0.00    +0.000 N 
ATOM     21  C   UNL     1      -1.373  10.401  17.933  0.00  0.00    +0.000 C 
ATOM     22  C   UNL     1      -2.603  10.996  17.256  0.00  0.00    +0.000 C 
ATOM     23  C   UNL     1      -3.506  11.542  18.324  0.00  0.00    +0.000 A 
ATOM     24  C   UNL     1      -4.884  11.324  18.309  0.00  0.00    +0.000 A 
ATOM     25  C   UNL     1      -5.669  11.820  19.347  0.00  0.00    +0.000 A 
ATOM     26  C   UNL     1      -5.082  12.541  20.390  0.00  0.00    +0.000 A 
ATOM     27  C   UNL     1      -3.705  12.770  20.401  0.00  0.00    +0.000 A 
ATOM     28  C   UNL     1      -2.907  12.263  19.374  0.00  0.00    +0.000 A 
ATOM     29  C   UNL     1      -1.411  12.477  19.344  0.00  0.00    +0.000 C 
ENDBRANCH   3  18
TORSDOF 1
ENDMDL
MODEL 2
REMARK VINA RESULT:      -9.3      1.387      2.674
REMARK  Name = 
REMARK  2 active torsions:
REMARK  status: ('A' for Active; 'I' for Inactive)
REMARK    1  A    between atoms: C_1  and  C_2
REMARK    2  A    between atoms: C_3  and  C_4
REMARK                            x       y       z     vdW  Elec       q    Type
REMARK                         _______ _______ _______ _____ _____    ______ ____
ROOT
ATOM      1  C   UNL     1       1.957   9.789  17.922  0.00  0.00    +0.000 C 
ATOM      2  C   UNL     1       1.539   9.125  19.189  0.00  0.00    +0.000 A 
ATOM      3  C   UNL     1       0.688   9.549  20.205  0.00  0.00    +0.000 A 
ATOM      4  C   UNL     1       0.769   8.504  21.151  0.00  0.00    +0.000 A 
ATOM      5  N   UNL     1       1.471   7.454  20.737  0.00  0.00    +0.000 NA
ATOM      6  N   UNL     1       1.974   7.854  19.535  0.00  0.00    +0.000 N 
ATOM      7  C   UNL     1       2.830   6.979  18.838  0.00  0.00    +0.000 A 
ATOM      8  N   UNL     1       3.430   7.296  17.737  0.00  0.00    +0.000 NA
ATOM      9  C   UNL     1       4.219   6.316  17.220  0.00  0.00    +0.000 A 
ATOM     10  C   UNL     1       4.383   5.094  17.724  0.00  0.00    +0.000 A 
ATOM     11  C   UNL     1       3.674   4.732  18.951  0.00  0.00    +0.000 A 
ATOM     12  O   UNL     1       3.751   3.622  19.455  0.00  0.00    +0.000 OA
ATOM     13  N   UNL     1       2.923   5.753  19.463  0.00  0.00    +0.000 N 
ATOM     14  C   UNL     1       5.298   4.251  16.927  0.00  0.00    +0.000 C 
ATOM     15  C   UNL     1       5.882   5.259  15.923  0.00  0.00    +0.000 C 
ATOM     16  C   UNL     1       5.017   6.523  15.982  0.00  0.00    +0.000 C 
ATOM     17  H   UNL     1       2.396   5.601  20.318  0.00  0.00    +0.000 HD
ENDROOT
BRANCH   3  18
ATOM     18  C   UNL     1      -0.040  10.820  20.250  0.00  0.00    +0.000 C 
ATOM     19  O   UNL     1       0.322  11.720  21.003  0.00  0.00    +0.000 OA
ATOM     20  N   UNL     1      -1.138  10.988  19.397  0.00  0.00    +0.000 N 
ATOM     21  C   UNL     1      -1.557  10.015  18.382  0.00  0.00    +0.000 C 
ATOM     22  C   UNL     1      -2.533  10.542  17.335  0.00  0.00    +0.000 C 
ATOM     23  C   UNL     1      -3.675  11.203  18.050  0.00  0.00    +0.000 A 
ATOM     24  C   UNL     1      -5.003  10.992  17.677  0.00  0.00    +0.000 A 
ATOM     25  C   UNL     1      -6.025  11.600  18.402  0.00  0.00    +0.000 A 
ATOM     26  C   UNL     1      -5.723  12.423  19.489  0.00  0.00    +0.000 A 
ATOM     27  C   UNL     1      -4.394  12.644  19.858  0.00  0.00    +0.000 A 
ATOM     28  C   UNL     1      -3.363  12.027  19.148  0.00  0.00    +0.000 A 
ATOM     29  C   UNL     1      -1.910  12.229  19.512  0.00  0.00    +0.000 C 
ENDBRANCH   3  18
TORSDOF 1
ENDMDL
MODEL 3
REMARK VINA RESULT:      -8.5      1.978      9.037
REMARK  Name = 
REMARK  2 active torsions:
REMARK  status: ('A' for Active; 'I' for Inactive)
REMARK    1  A    between atoms: C_1  and  C_2
REMARK    2  A    between atoms: C_3  and  C_4
REMARK                            x       y       z     vdW  Elec       q    Type
REMARK                         _______ _______ _______ _____ _____    ______ ____
ROOT
ATOM      1  C   UNL     1      -1.646   9.812  17.474  0.00  0.00    +0.000 C 
ATOM      2  C   UNL     1      -0.923  10.563  18.538  0.00  0.00    +0.000 A 
ATOM      3  C   UNL     1       0.403  10.509  18.953  0.00  0.00    +0.000 A 
ATOM      4  C   UNL     1       0.438  11.407  20.043  0.00  0.00    +0.000 A 
ATOM      5  N   UNL     1      -0.695  12.080  20.224  0.00  0.00    +0.000 NA
ATOM      6  N   UNL     1      -1.546  11.532  19.311  0.00  0.00    +0.000 N 
ATOM      7  C   UNL     1      -2.879  11.987  19.275  0.00  0.00    +0.000 A 
ATOM      8  N   UNL     1      -3.787  11.473  18.512  0.00  0.00    +0.000 NA
ATOM      9  C   UNL     1      -5.014  12.048  18.626  0.00  0.00    +0.000 A 
ATOM     10  C   UNL     1      -5.326  13.082  19.405  0.00  0.00    +0.000 A 
ATOM     11  C   UNL     1      -4.286  13.680  20.241  0.00  0.00    +0.000 A 
ATOM     12  O   UNL     1      -4.489  14.647  20.959  0.00  0.00    +0.000 OA
ATOM     13  N   UNL     1      -3.076  13.051  20.130  0.00  0.00    +0.000 N 
ATOM     14  C   UNL     1      -6.744  13.485  19.301  0.00  0.00    +0.000 C 
ATOM     15  C   UNL     1      -7.349  12.347  18.464  0.00  0.00    +0.000 C 
ATOM     16  C   UNL     1      -6.186  11.554  17.855  0.00  0.00    +0.000 C 
ATOM     17  H   UNL     1      -2.289  13.390  20.675  0.00  0.00    +0.000 HD
ENDROOT
BRANCH   3  18
ATOM     18  C   UNL     1       1.452   9.653  18.392  0.00  0.00    +0.000 C 
ATOM     19  O   UNL     1       2.079  10.006  17.398  0.00  0.00    +0.000 OA
ATOM     20  N   UNL     1       1.735   8.441  19.033  0.00  0.00    +0.000 N 
ATOM     21  C   UNL     1       1.123   8.005  20.293  0.00  0.00    +0.000 C 
ATOM     22  C   UNL     1       1.824   6.848  20.996  0.00  0.00    +0.000 C 
ATOM     23  C   UNL     1       2.013   5.741  19.998  0.00  0.00    +0.000 A 
ATOM     24  C   UNL     1       1.744   4.409  20.312  0.00  0.00    +0.000 A 
ATOM     25  C   UNL     1       1.899   3.428  19.336  0.00  0.00    +0.000 A 
ATOM     26  C   UNL     1       2.330   3.775  18.053  0.00  0.00    +0.000 A 
ATOM     27  C   UNL     1       2.610   5.106  17.740  0.00  0.00    +0.000 A 
ATOM     28  C   UNL     1       2.443   6.099  18.707  0.00  0.00    +0.000 A 
ATOM     29  C   UNL     1       2.725   7.555  18.415  0.00  0.00    +0.000 C 
ENDBRANCH   3  18
TORSDOF 1
ENDMDL
MODEL 4
REMARK VINA RESULT:      -8.5      2.610      3.823
REMARK  Name = 
REMARK  2 active torsions:
REMARK  status: ('A' for Active; 'I' for Inactive)
REMARK    1  A    between atoms: C_1  and  C_2
REMARK    2  A    between atoms: C_3  and  C_4
REMARK                            x       y       z     vdW  Elec       q    Type
REMARK                         _______ _______ _______ _____ _____    ______ ____
ROOT
ATOM      1  C   UNL     1       0.672   8.725  21.036  0.00  0.00    +0.000 C 
ATOM      2  C   UNL     1       1.160   9.161  19.698  0.00  0.00    +0.000 A 
ATOM      3  C   UNL     1       1.012  10.367  19.020  0.00  0.00    +0.000 A 
ATOM      4  C   UNL     1       1.638  10.120  17.779  0.00  0.00    +0.000 A 
ATOM      5  N   UNL     1       2.253   8.943  17.710  0.00  0.00    +0.000 NA
ATOM      6  N   UNL     1       1.929   8.339  18.887  0.00  0.00    +0.000 N 
ATOM      7  C   UNL     1       2.382   7.025  19.117  0.00  0.00    +0.000 A 
ATOM      8  N   UNL     1       2.056   6.330  20.158  0.00  0.00    +0.000 NA
ATOM      9  C   UNL     1       2.591   5.081  20.195  0.00  0.00    +0.000 A 
ATOM     10  C   UNL     1       3.421   4.556  19.295  0.00  0.00    +0.000 A 
ATOM     11  C   UNL     1       3.812   5.360  18.137  0.00  0.00    +0.000 A 
ATOM     12  O   UNL     1       4.591   4.958  17.286  0.00  0.00    +0.000 OA
ATOM     13  N   UNL     1       3.224   6.595  18.113  0.00  0.00    +0.000 N 
ATOM     14  C   UNL     1       3.839   3.176  19.620  0.00  0.00    +0.000 C 
ATOM     15  C   UNL     1       2.922   2.825  20.802  0.00  0.00    +0.000 C 
ATOM     16  C   UNL     1       2.288   4.130  21.298  0.00  0.00    +0.000 C 
ATOM     17  H   UNL     1       3.429   7.226  17.345  0.00  0.00    +0.000 HD
ENDROOT
BRANCH   3  18
ATOM     18  C   UNL     1       0.305  11.554  19.510  0.00  0.00    +0.000 C 
ATOM     19  O   UNL     1      -0.820  11.457  19.990  0.00  0.00    +0.000 OA
ATOM     20  N   UNL     1       0.956  12.792  19.439  0.00  0.00    +0.000 N 
ATOM     21  C   UNL     1       2.344  12.976  18.999  0.00  0.00    +0.000 C 
ATOM     22  C   UNL     1       2.964  14.327  19.337  0.00  0.00    +0.000 C 
ATOM     23  C   UNL     1       2.029  15.402  18.864  0.00  0.00    +0.000 A 
ATOM     24  C   UNL     1       2.485  16.530  18.180  0.00  0.00    +0.000 A 
ATOM     25  C   UNL     1       1.568  17.477  17.728  0.00  0.00    +0.000 A 
ATOM     26  C   UNL     1       0.203  17.303  17.967  0.00  0.00    +0.000 A 
ATOM     27  C   UNL     1      -0.254  16.181  18.660  0.00  0.00    +0.000 A 
ATOM     28  C   UNL     1       0.655  15.218  19.104  0.00  0.00    +0.000 A 
ATOM     29  C   UNL     1       0.209  13.983  19.852  0.00  0.00    +0.000 C 
ENDBRANCH   3  18
TORSDOF 1
ENDMDL
MODEL 5
REMARK VINA RESULT:      -8.3      3.140      4.992
REMARK  Name = 
REMARK  2 active torsions:
REMARK  status: ('A' for Active; 'I' for Inactive)
REMARK    1  A    between atoms: C_1  and  C_2
REMARK    2  A    between atoms: C_3  and  C_4
REMARK                            x       y       z     vdW  Elec       q    Type
REMARK                         _______ _______ _______ _____ _____    ______ ____
ROOT
ATOM      1  C   UNL     1       1.869   9.608  17.860  0.00  0.00    +0.000 C 
ATOM      2  C   UNL     1       1.354   9.556  19.257  0.00  0.00    +0.000 A 
ATOM      3  C   UNL     1       0.667  10.500  20.013  0.00  0.00    +0.000 A 
ATOM      4  C   UNL     1       0.533   9.872  21.271  0.00  0.00    +0.000 A 
ATOM      5  N   UNL     1       0.951   8.610  21.291  0.00  0.00    +0.000 NA
ATOM      6  N   UNL     1       1.488   8.427  20.052  0.00  0.00    +0.000 N 
ATOM      7  C   UNL     1       2.086   7.187  19.754  0.00  0.00    +0.000 A 
ATOM      8  N   UNL     1       2.702   6.942  18.644  0.00  0.00    +0.000 NA
ATOM      9  C   UNL     1       3.217   5.686  18.548  0.00  0.00    +0.000 A 
ATOM     10  C   UNL     1       3.105   4.721  19.459  0.00  0.00    +0.000 A 
ATOM     11  C   UNL     1       2.378   4.996  20.698  0.00  0.00    +0.000 A 
ATOM     12  O   UNL     1       2.209   4.153  21.566  0.00  0.00    +0.000 OA
ATOM     13  N   UNL     1       1.909   6.278  20.777  0.00  0.00    +0.000 N 
ATOM     14  C   UNL     1       3.765   3.460  19.060  0.00  0.00    +0.000 C 
ATOM     15  C   UNL     1       4.533   3.878  17.795  0.00  0.00    +0.000 C 
ATOM     16  C   UNL     1       3.994   5.246  17.359  0.00  0.00    +0.000 C 
ATOM     17  H   UNL     1       1.395   6.568  21.602  0.00  0.00    +0.000 HD
ENDROOT
BRANCH   3  18
ATOM     18  C   UNL     1       0.262  11.837  19.569  0.00  0.00    +0.000 C 
ATOM     19  O   UNL     1      -0.801  12.003  18.979  0.00  0.00    +0.000 OA
ATOM     20  N   UNL     1       1.107  12.916  19.857  0.00  0.00    +0.000 N 
ATOM     21  C   UNL     1       2.329  12.823  20.664  0.00  0.00    +0.000 C 
ATOM     22  C   UNL     1       2.893  14.152  21.154  0.00  0.00    +0.000 C 
ATOM     23  C   UNL     1       3.014  15.072  19.974  0.00  0.00    +0.000 A 
ATOM     24  C   UNL     1       4.149  15.854  19.759  0.00  0.00    +0.000 A 
ATOM     25  C   UNL     1       4.225  16.660  18.625  0.00  0.00    +0.000 A 
ATOM     26  C   UNL     1       3.166  16.692  17.714  0.00  0.00    +0.000 A 
ATOM     27  C   UNL     1       2.025  15.918  17.932  0.00  0.00    +0.000 A 
ATOM     28  C   UNL     1       1.946  15.096  19.058  0.00  0.00    +0.000 A 
ATOM     29  C   UNL     1       0.735  14.234  19.334  0.00  0.00    +0.000 C 
ENDBRANCH   3  18
TORSDOF 1
ENDMDL
MODEL 6
REMARK VINA RESULT:      -8.3      2.196      3.178
REMARK  Name = 
REMARK  2 active torsions:
REMARK  status: ('A' for Active; 'I' for Inactive)
REMARK    1  A    between atoms: C_1  and  C_2
REMARK    2  A    between atoms: C_3  and  C_4
REMARK                            x       y       z     vdW  Elec       q    Type
REMARK                         _______ _______ _______ _____ _____    ______ ____
ROOT
ATOM      1  C   UNL     1      -0.117   9.230  22.495  0.00  0.00    +0.000 C 
ATOM      2  C   UNL     1       0.159  10.153  21.359  0.00  0.00    +0.000 A 
ATOM      3  C   UNL     1      -0.168  11.492  21.171  0.00  0.00    +0.000 A 
ATOM      4  C   UNL     1       0.310  11.761  19.869  0.00  0.00    +0.000 A 
ATOM      5  N   UNL     1       0.999  10.760  19.330  0.00  0.00    +0.000 NA
ATOM      6  N   UNL     1       0.877   9.755  20.241  0.00  0.00    +0.000 N 
ATOM      7  C   UNL     1       1.455   8.505  19.946  0.00  0.00    +0.000 A 
ATOM      8  N   UNL     1       1.320   7.462  20.699  0.00  0.00    +0.000 NA
ATOM      9  C   UNL     1       1.951   6.347  20.240  0.00  0.00    +0.000 A 
ATOM     10  C   UNL     1       2.694   6.265  19.139  0.00  0.00    +0.000 A 
ATOM     11  C   UNL     1       2.870   7.457  18.310  0.00  0.00    +0.000 A 
ATOM     12  O   UNL     1       3.561   7.466  17.302  0.00  0.00    +0.000 OA
ATOM     13  N   UNL     1       2.191   8.547  18.780  0.00  0.00    +0.000 N 
ATOM     14  C   UNL     1       3.256   4.916  18.912  0.00  0.00    +0.000 C 
ATOM     15  C   UNL     1       2.529   4.075  19.974  0.00  0.00    +0.000 C 
ATOM     16  C   UNL     1       1.866   5.047  20.957  0.00  0.00    +0.000 C 
ATOM     17  H   UNL     1       2.246   9.423  18.271  0.00  0.00    +0.000 HD
ENDROOT
BRANCH   3  18
ATOM     18  C   UNL     1      -0.894  12.347  22.114  0.00  0.00    +0.000 C 
ATOM     19  O   UNL     1      -0.330  12.805  23.103  0.00  0.00    +0.000 OA
ATOM     20  N   UNL     1      -2.234  12.647  21.842  0.00  0.00    +0.000 N 
ATOM     21  C   UNL     1      -2.945  12.247  20.622  0.00  0.00    +0.000 C 
ATOM     22  C   UNL     1      -4.261  12.972  20.363  0.00  0.00    +0.000 C 
ATOM     23  C   UNL     1      -5.096  12.884  21.608  0.00  0.00    +0.000 A 
ATOM     24  C   UNL     1      -6.455  12.573  21.566  0.00  0.00    +0.000 A 
ATOM     25  C   UNL     1      -7.173  12.466  22.755  0.00  0.00    +0.000 A 
ATOM     26  C   UNL     1      -6.537  12.677  23.981  0.00  0.00    +0.000 A 
ATOM     27  C   UNL     1      -5.180  12.999  24.025  0.00  0.00    +0.000 A 
ATOM     28  C   UNL     1      -4.448  13.094  22.839  0.00  0.00    +0.000 A 
ATOM     29  C   UNL     1      -2.975  13.432  22.835  0.00  0.00    +0.000 C 
ENDBRANCH   3  18
TORSDOF 1
ENDMDL
MODEL 7
REMARK VINA RESULT:      -8.3      2.673      4.515
REMARK  Name = 
REMARK  2 active torsions:
REMARK  status: ('A' for Active; 'I' for Inactive)
REMARK    1  A    between atoms: C_1  and  C_2
REMARK    2  A    between atoms: C_3  and  C_4
REMARK                            x       y       z     vdW  Elec       q    Type
REMARK                         _______ _______ _______ _____ _____    ______ ____
ROOT
ATOM      1  C   UNL     1       1.648   9.978  17.830  0.00  0.00    +0.000 C 
ATOM      2  C   UNL     1       1.255   9.452  19.167  0.00  0.00    +0.000 A 
ATOM      3  C   UNL     1       0.381   9.955  20.126  0.00  0.00    +0.000 A 
ATOM      4  C   UNL     1       0.504   9.034  21.190  0.00  0.00    +0.000 A 
ATOM      5  N   UNL     1       1.254   7.975  20.903  0.00  0.00    +0.000 NA
ATOM      6  N   UNL     1       1.744   8.251  19.662  0.00  0.00    +0.000 N 
ATOM      7  C   UNL     1       2.641   7.339  19.073  0.00  0.00    +0.000 A 
ATOM      8  N   UNL     1       3.231   7.549  17.942  0.00  0.00    +0.000 NA
ATOM      9  C   UNL     1       4.065   6.551  17.544  0.00  0.00    +0.000 A 
ATOM     10  C   UNL     1       4.281   5.406  18.190  0.00  0.00    +0.000 A 
ATOM     11  C   UNL     1       3.584   5.161  19.452  0.00  0.00    +0.000 A 
ATOM     12  O   UNL     1       3.707   4.123  20.084  0.00  0.00    +0.000 OA
ATOM     13  N   UNL     1       2.785   6.201  19.839  0.00  0.00    +0.000 N 
ATOM     14  C   UNL     1       5.236   4.516  17.498  0.00  0.00    +0.000 C 
ATOM     15  C   UNL     1       5.780   5.422  16.381  0.00  0.00    +0.000 C 
ATOM     16  C   UNL     1       4.859   6.645  16.290  0.00  0.00    +0.000 C 
ATOM     17  H   UNL     1       2.262   6.129  20.706  0.00  0.00    +0.000 HD
ENDROOT
BRANCH   3  18
ATOM     18  C   UNL     1      -0.403  11.189  20.020  0.00  0.00    +0.000 C 
ATOM     19  O   UNL     1      -1.603  11.146  19.769  0.00  0.00    +0.000 OA
ATOM     20  N   UNL     1       0.247  12.410  20.239  0.00  0.00    +0.000 N 
ATOM     21  C   UNL     1       1.645  12.542  20.667  0.00  0.00    +0.000 C 
ATOM     22  C   UNL     1       2.041  13.918  21.192  0.00  0.00    +0.000 C 
ATOM     23  C   UNL     1       1.617  14.944  20.181  0.00  0.00    +0.000 A 
ATOM     24  C   UNL     1       2.452  15.994  19.797  0.00  0.00    +0.000 A 
ATOM     25  C   UNL     1       2.021  16.894  18.825  0.00  0.00    +0.000 A 
ATOM     26  C   UNL     1       0.759  16.752  18.245  0.00  0.00    +0.000 A 
ATOM     27  C   UNL     1      -0.083  15.708  18.635  0.00  0.00    +0.000 A 
ATOM     28  C   UNL     1       0.345  14.791  19.597  0.00  0.00    +0.000 A 
ATOM     29  C   UNL     1      -0.525  13.640  20.047  0.00  0.00    +0.000 C 
ENDBRANCH   3  18
TORSDOF 1
ENDMDL
MODEL 8
REMARK VINA RESULT:      -7.8      1.829      2.874
REMARK  Name = 
REMARK  2 active torsions:
REMARK  status: ('A' for Active; 'I' for Inactive)
REMARK    1  A    between atoms: C_1  and  C_2
REMARK    2  A    between atoms: C_3  and  C_4
REMARK                            x       y       z     vdW  Elec       q    Type
REMARK                         _______ _______ _______ _____ _____    ______ ____
ROOT
ATOM      1  C   UNL     1       2.208   8.508  17.593  0.00  0.00    +0.000 C 
ATOM      2  C   UNL     1       1.834   8.684  19.024  0.00  0.00    +0.000 A 
ATOM      3  C   UNL     1       1.421   9.811  19.728  0.00  0.00    +0.000 A 
ATOM      4  C   UNL     1       1.295   9.337  21.053  0.00  0.00    +0.000 A 
ATOM      5  N   UNL     1       1.461   8.023  21.173  0.00  0.00    +0.000 NA
ATOM      6  N   UNL     1       1.827   7.626  19.921  0.00  0.00    +0.000 N 
ATOM      7  C   UNL     1       2.141   6.270  19.710  0.00  0.00    +0.000 A 
ATOM      8  N   UNL     1       2.585   5.808  18.586  0.00  0.00    +0.000 NA
ATOM      9  C   UNL     1       2.835   4.471  18.583  0.00  0.00    +0.000 A 
ATOM     10  C   UNL     1       2.631   3.633  19.598  0.00  0.00    +0.000 A 
ATOM     11  C   UNL     1       2.098   4.157  20.855  0.00  0.00    +0.000 A 
ATOM     12  O   UNL     1       1.857   3.445  21.818  0.00  0.00    +0.000 OA
ATOM     13  N   UNL     1       1.896   5.509  20.834  0.00  0.00    +0.000 N 
ATOM     14  C   UNL     1       2.991   2.235  19.282  0.00  0.00    +0.000 C 
ATOM     15  C   UNL     1       3.696   2.376  17.923  0.00  0.00    +0.000 C 
ATOM     16  C   UNL     1       3.390   3.780  17.389  0.00  0.00    +0.000 C 
ATOM     17  H   UNL     1       1.532   5.969  21.663  0.00  0.00    +0.000 HD
ENDROOT
BRANCH   3  18
ATOM     18  C   UNL     1       1.240  11.158  19.178  0.00  0.00    +0.000 C 
ATOM     19  O   UNL     1       2.149  11.707  18.563  0.00  0.00    +0.000 OA
ATOM     20  N   UNL     1       0.000  11.784  19.350  0.00  0.00    +0.000 N 
ATOM     21  C   UNL     1      -1.174  11.149  19.959  0.00  0.00    +0.000 C 
ATOM     22  C   UNL     1      -2.501  11.864  19.723  0.00  0.00    +0.000 C 
ATOM     23  C   UNL     1      -2.327  13.307  20.100  0.00  0.00    +0.000 A 
ATOM     24  C   UNL     1      -3.279  13.994  20.854  0.00  0.00    +0.000 A 
ATOM     25  C   UNL     1      -3.048  15.321  21.209  0.00  0.00    +0.000 A 
ATOM     26  C   UNL     1      -1.876  15.963  20.803  0.00  0.00    +0.000 A 
ATOM     27  C   UNL     1      -0.927  15.281  20.039  0.00  0.00    +0.000 A 
ATOM     28  C   UNL     1      -1.142  13.946  19.691  0.00  0.00    +0.000 A 
ATOM     29  C   UNL     1      -0.142  13.162  18.872  0.00  0.00    +0.000 C 
ENDBRANCH   3  18
TORSDOF 1
ENDMDL
MODEL 9
REMARK VINA RESULT:      -7.6      2.699      3.947
REMARK  Name = 
REMARK  2 active torsions:
REMARK  status: ('A' for Active; 'I' for Inactive)
REMARK    1  A    between atoms: C_1  and  C_2
REMARK    2  A    between atoms: C_3  and  C_4
REMARK                            x       y       z     vdW  Elec       q    Type
REMARK                         _______ _______ _______ _____ _____    ______ ____
ROOT
ATOM      1  C   UNL     1       1.789   9.057  18.095  0.00  0.00    +0.000 C 
ATOM      2  C   UNL     1       1.481   8.999  19.552  0.00  0.00    +0.000 A 
ATOM      3  C   UNL     1       0.968   9.961  20.415  0.00  0.00    +0.000 A 
ATOM      4  C   UNL     1       0.983   9.311  21.669  0.00  0.00    +0.000 A 
ATOM      5  N   UNL     1       1.325   8.027  21.607  0.00  0.00    +0.000 NA
ATOM      6  N   UNL     1       1.664   7.845  20.300  0.00  0.00    +0.000 N 
ATOM      7  C   UNL     1       2.138   6.581  19.897  0.00  0.00    +0.000 A 
ATOM      8  N   UNL     1       2.570   6.330  18.704  0.00  0.00    +0.000 NA
ATOM      9  C   UNL     1       2.991   5.051  18.513  0.00  0.00    +0.000 A 
ATOM     10  C   UNL     1       2.957   4.071  19.414  0.00  0.00    +0.000 A 
ATOM     11  C   UNL     1       2.436   4.355  20.751  0.00  0.00    +0.000 A 
ATOM     12  O   UNL     1       2.346   3.501  21.621  0.00  0.00    +0.000 OA
ATOM     13  N   UNL     1       2.059   5.659  20.919  0.00  0.00    +0.000 N 
ATOM     14  C   UNL     1       3.476   2.786  18.901  0.00  0.00    +0.000 C 
ATOM     15  C   UNL     1       4.074   3.191  17.544  0.00  0.00    +0.000 C 
ATOM     16  C   UNL     1       3.558   4.597  17.215  0.00  0.00    +0.000 C 
ATOM     17  H   UNL     1       1.689   5.957  21.816  0.00  0.00    +0.000 HD
ENDROOT
BRANCH   3  18
ATOM     18  C   UNL     1       0.582  11.329  20.057  0.00  0.00    +0.000 C 
ATOM     19  O   UNL     1       0.885  11.796  18.964  0.00  0.00    +0.000 OA
ATOM     20  N   UNL     1      -0.159  12.074  20.983  0.00  0.00    +0.000 N 
ATOM     21  C   UNL     1      -0.668  11.549  22.255  0.00  0.00    +0.000 C 
ATOM     22  C   UNL     1      -1.740  12.397  22.931  0.00  0.00    +0.000 C 
ATOM     23  C   UNL     1      -1.234  13.808  23.016  0.00  0.00    +0.000 A 
ATOM     24  C   UNL     1      -1.366  14.573  24.175  0.00  0.00    +0.000 A 
ATOM     25  C   UNL     1      -0.843  15.864  24.211  0.00  0.00    +0.000 A 
ATOM     26  C   UNL     1      -0.198  16.392  23.090  0.00  0.00    +0.000 A 
ATOM     27  C   UNL     1      -0.074  15.632  21.925  0.00  0.00    +0.000 A 
ATOM     28  C   UNL     1      -0.582  14.332  21.884  0.00  0.00    +0.000 A 
ATOM     29  C   UNL     1      -0.466  13.468  20.650  0.00  0.00    +0.000 C 
ENDBRANCH   3  18
TORSDOF 1
ENDMDL
