MODEL 1
REMARK VINA RESULT:      -7.9      0.000      0.000
REMARK  Name = 
REMARK  3 active torsions:
REMARK  status: ('A' for Active; 'I' for Inactive)
REMARK    1  A    between atoms: C_1  and  C_2
REMARK    2  A    between atoms: C_2  and  C_3
REMARK    3  A    between atoms: C_12  and  C_13
REMARK                            x       y       z     vdW  Elec       q    Type
REMARK                         _______ _______ _______ _____ _____    ______ ____
ROOT
ATOM      1  C   UNL     1       6.669   4.512  13.906  0.00  0.00    +0.000 C 
ATOM      2  O   UNL     1       7.524   5.318  14.257  0.00  0.00    +0.000 OA
ATOM      3  N   UNL     1       5.431   4.351  14.495  0.00  0.00    +0.000 N 
ATOM      4  C   UNL     1       5.016   5.070  15.619  0.00  0.00    +0.000 A 
ATOM      5  C   UNL     1       5.272   6.434  15.745  0.00  0.00    +0.000 A 
ATOM      6  C   UNL     1       4.865   7.109  16.892  0.00  0.00    +0.000 A 
ATOM      7  C   UNL     1       4.270   6.320  17.871  0.00  0.00    +0.000 A 
ATOM      8  N   UNL     1       3.820   6.625  19.128  0.00  0.00    +0.000 N 
ATOM      9  C   UNL     1       3.368   5.490  19.747  0.00  0.00    +0.000 A 
ATOM     10  C   UNL     1       3.484   4.421  18.872  0.00  0.00    +0.000 A 
ATOM     11  C   UNL     1       4.040   4.961  17.675  0.00  0.00    +0.000 A 
ATOM     12  N   UNL     1       4.354   4.323  16.520  0.00  0.00    +0.000 NA
ATOM     13  H   UNL     1       5.002   3.437  14.442  0.00  0.00    +0.000 HD
ATOM     14  H   UNL     1       3.858   7.543  19.550  0.00  0.00    +0.000 HD
ENDROOT
BRANCH  10  15
ATOM     15  C   UNL     1       3.129   2.967  19.094  0.00  0.00    +0.000 C 
ATOM     16  C   UNL     1       1.685   2.623  18.712  0.00  0.00    +0.000 C 
ATOM     17  C   UNL     1       0.681   3.072  19.772  0.00  0.00    +0.000 C 
ATOM     18  N   UNL     1       0.997   2.557  21.107  0.00  0.00    +0.000 NA
ATOM     19  C   UNL     1       2.359   2.891  21.527  0.00  0.00    +0.000 C 
ATOM     20  C   UNL     1       3.419   2.462  20.514  0.00  0.00    +0.000 C 
ATOM     21  H   UNL     1       0.884   1.548  21.108  0.00  0.00    +0.000 HD
ENDBRANCH  10  15
BRANCH   1  23
ATOM     22  C   UNL     1       5.560   3.196  12.064  0.00  0.00    +0.000 C 
ATOM     23  C   UNL     1       6.869   3.563  12.739  0.00  0.00    +0.000 C 
ENDBRANCH   1  23
TORSDOF 2
ENDMDL
MODEL 2
REMARK VINA RESULT:      -7.5      1.263      1.599
REMARK  Name = 
REMARK  3 active torsions:
REMARK  status: ('A' for Active; 'I' for Inactive)
REMARK    1  A    between atoms: C_1  and  C_2
REMARK    2  A    between atoms: C_2  and  C_3
REMARK    3  A    between atoms: C_12  and  C_13
REMARK                            x       y       z     vdW  Elec       q    Type
REMARK                         _______ _______ _______ _____ _____    ______ ____
ROOT
ATOM      1  C   UNL     1       6.565   5.203  15.323  0.00  0.00    +0.000 C 
ATOM      2  O   UNL     1       7.267   6.033  15.892  0.00  0.00    +0.000 OA
ATOM      3  N   UNL     1       5.230   4.971  15.583  0.00  0.00    +0.000 N 
ATOM      4  C   UNL     1       4.516   5.635  16.584  0.00  0.00    +0.000 A 
ATOM      5  C   UNL     1       4.665   7.003  16.798  0.00  0.00    +0.000 A 
ATOM      6  C   UNL     1       3.956   7.622  17.822  0.00  0.00    +0.000 A 
ATOM      7  C   UNL     1       3.177   6.777  18.607  0.00  0.00    +0.000 A 
ATOM      8  N   UNL     1       2.416   7.022  19.719  0.00  0.00    +0.000 N 
ATOM      9  C   UNL     1       1.882   5.849  20.182  0.00  0.00    +0.000 A 
ATOM     10  C   UNL     1       2.262   4.815  19.341  0.00  0.00    +0.000 A 
ATOM     11  C   UNL     1       3.069   5.416  18.330  0.00  0.00    +0.000 A 
ATOM     12  N   UNL     1       3.690   4.831  17.277  0.00  0.00    +0.000 NA
ATOM     13  H   UNL     1       4.873   4.041  15.406  0.00  0.00    +0.000 HD
ATOM     14  H   UNL     1       2.304   7.926  20.157  0.00  0.00    +0.000 HD
ENDROOT
BRANCH  10  15
ATOM     15  C   UNL     1       1.936   3.340  19.437  0.00  0.00    +0.000 C 
ATOM     16  C   UNL     1       1.079   2.982  20.657  0.00  0.00    +0.000 C 
ATOM     17  C   UNL     1       1.896   2.927  21.946  0.00  0.00    +0.000 C 
ATOM     18  N   UNL     1       3.052   2.031  21.847  0.00  0.00    +0.000 NA
ATOM     19  C   UNL     1       3.917   2.358  20.713  0.00  0.00    +0.000 C 
ATOM     20  C   UNL     1       3.164   2.422  19.385  0.00  0.00    +0.000 C 
ATOM     21  H   UNL     1       2.722   1.075  21.752  0.00  0.00    +0.000 HD
ENDBRANCH  10  15
BRANCH   1  23
ATOM     22  C   UNL     1       5.983   3.751  13.346  0.00  0.00    +0.000 C 
ATOM     23  C   UNL     1       7.094   4.302  14.222  0.00  0.00    +0.000 C 
ENDBRANCH   1  23
TORSDOF 2
ENDMDL
MODEL 3
REMARK VINA RESULT:      -7.4      3.941      6.602
REMARK  Name = 
REMARK  3 active torsions:
REMARK  status: ('A' for Active; 'I' for Inactive)
REMARK    1  A    between atoms: C_1  and  C_2
REMARK    2  A    between atoms: C_2  and  C_3
REMARK    3  A    between atoms: C_12  and  C_13
REMARK                            x       y       z     vdW  Elec       q    Type
REMARK                         _______ _______ _______ _____ _____    ______ ____
ROOT
ATOM      1  C   UNL     1      -0.154   9.713  20.851  0.00  0.00    +0.000 C 
ATOM      2  O   UNL     1      -0.581  10.076  19.760  0.00  0.00    +0.000 OA
ATOM      3  N   UNL     1       0.939   8.895  21.051  0.00  0.00    +0.000 N 
ATOM      4  C   UNL     1       1.676   8.329  20.007  0.00  0.00    +0.000 A 
ATOM      5  C   UNL     1       2.011   9.063  18.872  0.00  0.00    +0.000 A 
ATOM      6  C   UNL     1       2.723   8.456  17.843  0.00  0.00    +0.000 A 
ATOM      7  C   UNL     1       2.995   7.103  18.020  0.00  0.00    +0.000 A 
ATOM      8  N   UNL     1       3.601   6.187  17.203  0.00  0.00    +0.000 N 
ATOM      9  C   UNL     1       3.580   4.952  17.794  0.00  0.00    +0.000 A 
ATOM     10  C   UNL     1       2.986   5.058  19.042  0.00  0.00    +0.000 A 
ATOM     11  C   UNL     1       2.635   6.432  19.187  0.00  0.00    +0.000 A 
ATOM     12  N   UNL     1       2.022   7.048  20.227  0.00  0.00    +0.000 NA
ATOM     13  H   UNL     1       0.950   8.323  21.885  0.00  0.00    +0.000 HD
ATOM     14  H   UNL     1       3.968   6.386  16.281  0.00  0.00    +0.000 HD
ENDROOT
BRANCH  10  15
ATOM     15  C   UNL     1       2.723   3.974  20.065  0.00  0.00    +0.000 C 
ATOM     16  C   UNL     1       3.621   2.743  19.897  0.00  0.00    +0.000 C 
ATOM     17  C   UNL     1       3.157   1.836  18.759  0.00  0.00    +0.000 C 
ATOM     18  N   UNL     1       1.753   1.437  18.888  0.00  0.00    +0.000 NA
ATOM     19  C   UNL     1       0.854   2.585  19.018  0.00  0.00    +0.000 C 
ATOM     20  C   UNL     1       1.256   3.534  20.147  0.00  0.00    +0.000 C 
ATOM     21  H   UNL     1       1.652   0.839  19.703  0.00  0.00    +0.000 HD
ENDBRANCH  10  15
BRANCH   1  23
ATOM     22  C   UNL     1      -0.091   9.534  23.365  0.00  0.00    +0.000 C 
ATOM     23  C   UNL     1      -0.792  10.136  22.161  0.00  0.00    +0.000 C 
ENDBRANCH   1  23
TORSDOF 2
ENDMDL
MODEL 4
REMARK VINA RESULT:      -7.4      3.671      6.980
REMARK  Name = 
REMARK  3 active torsions:
REMARK  status: ('A' for Active; 'I' for Inactive)
REMARK    1  A    between atoms: C_1  and  C_2
REMARK    2  A    between atoms: C_2  and  C_3
REMARK    3  A    between atoms: C_12  and  C_13
REMARK                            x       y       z     vdW  Elec       q    Type
REMARK                         _______ _______ _______ _____ _____    ______ ____
ROOT
ATOM      1  C   UNL     1       1.097   9.152  21.041  0.00  0.00    +0.000 C 
ATOM      2  O   UNL     1       1.119   8.689  22.177  0.00  0.00    +0.000 OA
ATOM      3  N   UNL     1       1.476   8.482  19.896  0.00  0.00    +0.000 N 
ATOM      4  C   UNL     1       1.989   7.182  19.901  0.00  0.00    +0.000 A 
ATOM      5  C   UNL     1       1.439   6.186  20.705  0.00  0.00    +0.000 A 
ATOM      6  C   UNL     1       1.995   4.911  20.701  0.00  0.00    +0.000 A 
ATOM      7  C   UNL     1       3.130   4.755  19.911  0.00  0.00    +0.000 A 
ATOM      8  N   UNL     1       3.961   3.683  19.723  0.00  0.00    +0.000 N 
ATOM      9  C   UNL     1       4.991   4.035  18.892  0.00  0.00    +0.000 A 
ATOM     10  C   UNL     1       4.819   5.351  18.490  0.00  0.00    +0.000 A 
ATOM     11  C   UNL     1       3.622   5.795  19.126  0.00  0.00    +0.000 A 
ATOM     12  N   UNL     1       3.025   7.010  19.061  0.00  0.00    +0.000 NA
ATOM     13  H   UNL     1       1.830   9.033  19.125  0.00  0.00    +0.000 HD
ATOM     14  H   UNL     1       3.854   2.782  20.168  0.00  0.00    +0.000 HD
ENDROOT
BRANCH  10  15
ATOM     15  C   UNL     1       5.693   6.192  17.585  0.00  0.00    +0.000 C 
ATOM     16  C   UNL     1       5.287   6.127  16.108  0.00  0.00    +0.000 C 
ATOM     17  C   UNL     1       5.755   4.840  15.432  0.00  0.00    +0.000 C 
ATOM     18  N   UNL     1       7.196   4.613  15.581  0.00  0.00    +0.000 NA
ATOM     19  C   UNL     1       7.623   4.633  16.981  0.00  0.00    +0.000 C 
ATOM     20  C   UNL     1       7.193   5.901  17.719  0.00  0.00    +0.000 C 
ATOM     21  H   UNL     1       7.699   5.330  15.067  0.00  0.00    +0.000 HD
ENDBRANCH  10  15
BRANCH   1  23
ATOM     22  C   UNL     1      -0.107  10.661  19.419  0.00  0.00    +0.000 C 
ATOM     23  C   UNL     1       0.631  10.565  20.743  0.00  0.00    +0.000 C 
ENDBRANCH   1  23
TORSDOF 2
ENDMDL
MODEL 5
REMARK VINA RESULT:      -7.3      1.560      1.682
REMARK  Name = 
REMARK  3 active torsions:
REMARK  status: ('A' for Active; 'I' for Inactive)
REMARK    1  A    between atoms: C_1  and  C_2
REMARK    2  A    between atoms: C_2  and  C_3
REMARK    3  A    between atoms: C_12  and  C_13
REMARK                            x       y       z     vdW  Elec       q    Type
REMARK                         _______ _______ _______ _____ _____    ______ ____
ROOT
ATOM      1  C   UNL     1       6.067   3.493  12.692  0.00  0.00    +0.000 C 
ATOM      2  O   UNL     1       7.275   3.687  12.778  0.00  0.00    +0.000 OA
ATOM      3  N   UNL     1       5.132   3.833  13.648  0.00  0.00    +0.000 N 
ATOM      4  C   UNL     1       5.465   4.406  14.878  0.00  0.00    +0.000 A 
ATOM      5  C   UNL     1       6.424   5.412  14.976  0.00  0.00    +0.000 A 
ATOM      6  C   UNL     1       6.746   5.938  16.223  0.00  0.00    +0.000 A 
ATOM      7  C   UNL     1       6.100   5.351  17.306  0.00  0.00    +0.000 A 
ATOM      8  N   UNL     1       6.219   5.562  18.653  0.00  0.00    +0.000 N 
ATOM      9  C   UNL     1       5.413   4.687  19.333  0.00  0.00    +0.000 A 
ATOM     10  C   UNL     1       4.717   3.910  18.420  0.00  0.00    +0.000 A 
ATOM     11  C   UNL     1       5.144   4.352  17.133  0.00  0.00    +0.000 A 
ATOM     12  N   UNL     1       4.766   3.904  15.911  0.00  0.00    +0.000 NA
ATOM     13  H   UNL     1       4.288   3.278  13.697  0.00  0.00    +0.000 HD
ATOM     14  H   UNL     1       6.843   6.232  19.082  0.00  0.00    +0.000 HD
ENDROOT
BRANCH  10  15
ATOM     15  C   UNL     1       3.720   2.802  18.678  0.00  0.00    +0.000 C 
ATOM     16  C   UNL     1       2.429   2.937  17.861  0.00  0.00    +0.000 C 
ATOM     17  C   UNL     1       1.480   3.983  18.440  0.00  0.00    +0.000 C 
ATOM     18  N   UNL     1       1.172   3.747  19.854  0.00  0.00    +0.000 NA
ATOM     19  C   UNL     1       2.376   3.645  20.679  0.00  0.00    +0.000 C 
ATOM     20  C   UNL     1       3.371   2.607  20.160  0.00  0.00    +0.000 C 
ATOM     21  H   UNL     1       0.635   2.889  19.937  0.00  0.00    +0.000 HD
ENDBRANCH  10  15
BRANCH   1  23
ATOM     22  C   UNL     1       3.995   3.293  11.270  0.00  0.00    +0.000 C 
ATOM     23  C   UNL     1       5.428   2.838  11.481  0.00  0.00    +0.000 C 
ENDBRANCH   1  23
TORSDOF 2
ENDMDL
MODEL 6
REMARK VINA RESULT:      -7.3      2.646      4.202
REMARK  Name = 
REMARK  3 active torsions:
REMARK  status: ('A' for Active; 'I' for Inactive)
REMARK    1  A    between atoms: C_1  and  C_2
REMARK    2  A    between atoms: C_2  and  C_3
REMARK    3  A    between atoms: C_12  and  C_13
REMARK                            x       y       z     vdW  Elec       q    Type
REMARK                         _______ _______ _______ _____ _____    ______ ____
ROOT
ATOM      1  C   UNL     1       8.078   7.925  18.065  0.00  0.00    +0.000 C 
ATOM      2  O   UNL     1       7.805   8.176  16.895  0.00  0.00    +0.000 OA
ATOM      3  N   UNL     1       7.744   6.764  18.732  0.00  0.00    +0.000 N 
ATOM      4  C   UNL     1       6.994   5.735  18.157  0.00  0.00    +0.000 A 
ATOM      5  C   UNL     1       7.221   5.314  16.848  0.00  0.00    +0.000 A 
ATOM      6  C   UNL     1       6.435   4.304  16.303  0.00  0.00    +0.000 A 
ATOM      7  C   UNL     1       5.417   3.829  17.123  0.00  0.00    +0.000 A 
ATOM      8  N   UNL     1       4.430   2.907  16.898  0.00  0.00    +0.000 N 
ATOM      9  C   UNL     1       3.617   2.820  17.996  0.00  0.00    +0.000 A 
ATOM     10  C   UNL     1       4.096   3.669  18.982  0.00  0.00    +0.000 A 
ATOM     11  C   UNL     1       5.252   4.292  18.426  0.00  0.00    +0.000 A 
ATOM     12  N   UNL     1       6.076   5.211  18.987  0.00  0.00    +0.000 NA
ATOM     13  H   UNL     1       7.618   6.820  19.734  0.00  0.00    +0.000 HD
ATOM     14  H   UNL     1       4.296   2.401  16.033  0.00  0.00    +0.000 HD
ENDROOT
BRANCH  10  15
ATOM     15  C   UNL     1       3.539   3.933  20.364  0.00  0.00    +0.000 C 
ATOM     16  C   UNL     1       2.963   2.683  21.040  0.00  0.00    +0.000 C 
ATOM     17  C   UNL     1       1.579   2.319  20.507  0.00  0.00    +0.000 C 
ATOM     18  N   UNL     1       0.629   3.433  20.588  0.00  0.00    +0.000 NA
ATOM     19  C   UNL     1       1.125   4.640  19.925  0.00  0.00    +0.000 C 
ATOM     20  C   UNL     1       2.507   5.067  20.417  0.00  0.00    +0.000 C 
ATOM     21  H   UNL     1       0.444   3.639  21.565  0.00  0.00    +0.000 HD
ENDBRANCH  10  15
BRANCH   1  23
ATOM     22  C   UNL     1       8.984  10.263  18.323  0.00  0.00    +0.000 C 
ATOM     23  C   UNL     1       8.847   8.888  18.950  0.00  0.00    +0.000 C 
ENDBRANCH   1  23
TORSDOF 2
ENDMDL
MODEL 7
REMARK VINA RESULT:      -7.3      1.599      2.386
REMARK  Name = 
REMARK  3 active torsions:
REMARK  status: ('A' for Active; 'I' for Inactive)
REMARK    1  A    between atoms: C_1  and  C_2
REMARK    2  A    between atoms: C_2  and  C_3
REMARK    3  A    between atoms: C_12  and  C_13
REMARK                            x       y       z     vdW  Elec       q    Type
REMARK                         _______ _______ _______ _____ _____    ______ ____
ROOT
ATOM      1  C   UNL     1       6.251   5.298  15.845  0.00  0.00    +0.000 C 
ATOM      2  O   UNL     1       6.833   6.263  16.330  0.00  0.00    +0.000 OA
ATOM      3  N   UNL     1       4.969   4.896  16.159  0.00  0.00    +0.000 N 
ATOM      4  C   UNL     1       4.183   5.525  17.128  0.00  0.00    +0.000 A 
ATOM      5  C   UNL     1       4.133   6.913  17.235  0.00  0.00    +0.000 A 
ATOM      6  C   UNL     1       3.358   7.501  18.230  0.00  0.00    +0.000 A 
ATOM      7  C   UNL     1       2.726   6.615  19.098  0.00  0.00    +0.000 A 
ATOM      8  N   UNL     1       1.957   6.832  20.209  0.00  0.00    +0.000 N 
ATOM      9  C   UNL     1       1.608   5.634  20.774  0.00  0.00    +0.000 A 
ATOM     10  C   UNL     1       2.122   4.604  20.001  0.00  0.00    +0.000 A 
ATOM     11  C   UNL     1       2.814   5.236  18.926  0.00  0.00    +0.000 A 
ATOM     12  N   UNL     1       3.495   4.667  17.902  0.00  0.00    +0.000 NA
ATOM     13  H   UNL     1       4.749   3.914  16.062  0.00  0.00    +0.000 HD
ATOM     14  H   UNL     1       1.720   7.742  20.582  0.00  0.00    +0.000 HD
ENDROOT
BRANCH  10  15
ATOM     15  C   UNL     1       2.017   3.110  20.216  0.00  0.00    +0.000 C 
ATOM     16  C   UNL     1       3.305   2.477  20.755  0.00  0.00    +0.000 C 
ATOM     17  C   UNL     1       4.360   2.287  19.668  0.00  0.00    +0.000 C 
ATOM     18  N   UNL     1       3.857   1.531  18.516  0.00  0.00    +0.000 NA
ATOM     19  C   UNL     1       2.644   2.120  17.947  0.00  0.00    +0.000 C 
ATOM     20  C   UNL     1       1.539   2.332  18.982  0.00  0.00    +0.000 C 
ATOM     21  H   UNL     1       3.662   0.577  18.806  0.00  0.00    +0.000 HD
ENDBRANCH  10  15
BRANCH   1  23
ATOM     22  C   UNL     1       5.890   3.943  13.750  0.00  0.00    +0.000 C 
ATOM     23  C   UNL     1       6.887   4.401  14.799  0.00  0.00    +0.000 C 
ENDBRANCH   1  23
TORSDOF 2
ENDMDL
MODEL 8
REMARK VINA RESULT:      -7.3      1.746      2.225
REMARK  Name = 
REMARK  3 active torsions:
REMARK  status: ('A' for Active; 'I' for Inactive)
REMARK    1  A    between atoms: C_1  and  C_2
REMARK    2  A    between atoms: C_2  and  C_3
REMARK    3  A    between atoms: C_12  and  C_13
REMARK                            x       y       z     vdW  Elec       q    Type
REMARK                         _______ _______ _______ _____ _____    ______ ____
ROOT
ATOM      1  C   UNL     1       5.754   3.532  12.545  0.00  0.00    +0.000 C 
ATOM      2  O   UNL     1       6.715   2.795  12.741  0.00  0.00    +0.000 OA
ATOM      3  N   UNL     1       5.167   4.350  13.489  0.00  0.00    +0.000 N 
ATOM      4  C   UNL     1       5.576   4.398  14.824  0.00  0.00    +0.000 A 
ATOM      5  C   UNL     1       6.925   4.402  15.172  0.00  0.00    +0.000 A 
ATOM      6  C   UNL     1       7.292   4.424  16.513  0.00  0.00    +0.000 A 
ATOM      7  C   UNL     1       6.239   4.380  17.422  0.00  0.00    +0.000 A 
ATOM      8  N   UNL     1       6.227   4.319  18.790  0.00  0.00    +0.000 N 
ATOM      9  C   UNL     1       4.936   4.227  19.239  0.00  0.00    +0.000 A 
ATOM     10  C   UNL     1       4.076   4.267  18.153  0.00  0.00    +0.000 A 
ATOM     11  C   UNL     1       4.911   4.385  17.003  0.00  0.00    +0.000 A 
ATOM     12  N   UNL     1       4.555   4.455  15.697  0.00  0.00    +0.000 NA
ATOM     13  H   UNL     1       4.185   4.563  13.379  0.00  0.00    +0.000 HD
ATOM     14  H   UNL     1       7.051   4.299  19.377  0.00  0.00    +0.000 HD
ENDROOT
BRANCH  10  15
ATOM     15  C   UNL     1       2.565   4.188  18.133  0.00  0.00    +0.000 C 
ATOM     16  C   UNL     1       1.900   4.870  19.335  0.00  0.00    +0.000 C 
ATOM     17  C   UNL     1       1.969   4.016  20.599  0.00  0.00    +0.000 C 
ATOM     18  N   UNL     1       1.424   2.669  20.404  0.00  0.00    +0.000 NA
ATOM     19  C   UNL     1       2.054   1.968  19.285  0.00  0.00    +0.000 C 
ATOM     20  C   UNL     1       2.015   2.764  17.981  0.00  0.00    +0.000 C 
ATOM     21  H   UNL     1       0.424   2.738  20.236  0.00  0.00    +0.000 HD
ENDBRANCH  10  15
BRANCH   1  23
ATOM     22  C   UNL     1       3.671   3.058  11.206  0.00  0.00    +0.000 C 
ATOM     23  C   UNL     1       5.071   3.644  11.194  0.00  0.00    +0.000 C 
ENDBRANCH   1  23
TORSDOF 2
ENDMDL
MODEL 9
REMARK VINA RESULT:      -7.0      1.887      2.556
REMARK  Name = 
REMARK  3 active torsions:
REMARK  status: ('A' for Active; 'I' for Inactive)
REMARK    1  A    between atoms: C_1  and  C_2
REMARK    2  A    between atoms: C_2  and  C_3
REMARK    3  A    between atoms: C_12  and  C_13
REMARK                            x       y       z     vdW  Elec       q    Type
REMARK                         _______ _______ _______ _____ _____    ______ ____
ROOT
ATOM      1  C   UNL     1       5.526   3.661  12.600  0.00  0.00    +0.000 C 
ATOM      2  O   UNL     1       6.418   2.830  12.733  0.00  0.00    +0.000 OA
ATOM      3  N   UNL     1       5.087   4.528  13.582  0.00  0.00    +0.000 N 
ATOM      4  C   UNL     1       5.586   4.525  14.887  0.00  0.00    +0.000 A 
ATOM      5  C   UNL     1       6.948   4.390  15.145  0.00  0.00    +0.000 A 
ATOM      6  C   UNL     1       7.402   4.366  16.460  0.00  0.00    +0.000 A 
ATOM      7  C   UNL     1       6.412   4.422  17.436  0.00  0.00    +0.000 A 
ATOM      8  N   UNL     1       6.483   4.353  18.801  0.00  0.00    +0.000 N 
ATOM      9  C   UNL     1       5.222   4.388  19.334  0.00  0.00    +0.000 A 
ATOM     10  C   UNL     1       4.301   4.523  18.307  0.00  0.00    +0.000 A 
ATOM     11  C   UNL     1       5.067   4.564  17.105  0.00  0.00    +0.000 A 
ATOM     12  N   UNL     1       4.635   4.679  15.825  0.00  0.00    +0.000 NA
ATOM     13  H   UNL     1       4.126   4.839  13.536  0.00  0.00    +0.000 HD
ATOM     14  H   UNL     1       7.337   4.246  19.333  0.00  0.00    +0.000 HD
ENDROOT
BRANCH  10  15
ATOM     15  C   UNL     1       2.791   4.597  18.387  0.00  0.00    +0.000 C 
ATOM     16  C   UNL     1       2.243   6.026  18.291  0.00  0.00    +0.000 C 
ATOM     17  C   UNL     1       2.390   6.795  19.602  0.00  0.00    +0.000 C 
ATOM     18  N   UNL     1       1.796   6.090  20.742  0.00  0.00    +0.000 NA
ATOM     19  C   UNL     1       2.317   4.730  20.892  0.00  0.00    +0.000 C 
ATOM     20  C   UNL     1       2.194   3.899  19.615  0.00  0.00    +0.000 C 
ATOM     21  H   UNL     1       0.789   6.051  20.619  0.00  0.00    +0.000 HD
ENDBRANCH  10  15
BRANCH   1  23
ATOM     22  C   UNL     1       3.659   2.832  11.123  0.00  0.00    +0.000 C 
ATOM     23  C   UNL     1       4.771   3.851  11.298  0.00  0.00    +0.000 C 
ENDBRANCH   1  23
TORSDOF 2
ENDMDL
