MODEL 1
REMARK VINA RESULT:      -8.0      0.000      0.000
REMARK  Name = 
REMARK  4 active torsions:
REMARK  status: ('A' for Active; 'I' for Inactive)
REMARK    1  A    between atoms: C_2  and  N_3
REMARK    2  A    between atoms: C_2  and  N_14
REMARK    3  A    between atoms: N_3  and  N_4
REMARK    4  A    between atoms: N_14  and  C_15
REMARK                            x       y       z     vdW  Elec       q    Type
REMARK                         _______ _______ _______ _____ _____    ______ ____
ROOT
ATOM      1  N   UNL     1       6.731   5.443  19.275  0.00  0.00    +0.000 N 
ATOM      2  H   UNL     1       7.289   5.599  20.106  0.00  0.00    +0.000 HD
ENDROOT
BRANCH   1   3
ATOM      3  N   UNL     1       5.768   4.466  19.304  0.00  0.00    +0.000 NA
ATOM      4  C   UNL     1       4.569   4.773  18.936  0.00  0.00    +0.000 C 
ATOM      5  C   UNL     1       4.060   6.110  18.459  0.00  0.00    +0.000 C 
ATOM      6  C   UNL     1       2.592   5.866  18.075  0.00  0.00    +0.000 C 
ATOM      7  C   UNL     1       2.339   4.443  18.453  0.00  0.00    +0.000 A 
ATOM      8  C   UNL     1       1.149   3.739  18.341  0.00  0.00    +0.000 A 
ATOM      9  C   UNL     1       1.129   2.393  18.720  0.00  0.00    +0.000 A 
ATOM     10  C   UNL     1       2.290   1.765  19.204  0.00  0.00    +0.000 A 
ATOM     11  C   UNL     1       3.486   2.477  19.316  0.00  0.00    +0.000 A 
ATOM     12  C   UNL     1       3.478   3.808  18.934  0.00  0.00    +0.000 A 
ENDBRANCH   1   3
BRANCH   1  14
ATOM     13  S   UNL     1       7.663   7.401  17.776  0.00  0.00    +0.000 S 
ATOM     14  C   UNL     1       7.298   5.799  18.076  0.00  0.00    +0.000 C 
BRANCH  14  15
ATOM     15  N   UNL     1       7.640   4.828  17.177  0.00  0.00    +0.000 N 
ATOM     16  H   UNL     1       8.453   4.274  17.420  0.00  0.00    +0.000 HD
BRANCH  15  17
ATOM     17  C   UNL     1       7.000   4.547  15.952  0.00  0.00    +0.000 A 
ATOM     18  C   UNL     1       5.799   3.828  15.902  0.00  0.00    +0.000 A 
ATOM     19  C   UNL     1       5.215   3.501  14.680  0.00  0.00    +0.000 A 
ATOM     20  C   UNL     1       5.828   3.911  13.503  0.00  0.00    +0.000 A 
ATOM     21 CL   UNL     1       5.149   3.454  11.989  0.00  0.00    +0.000 Cl
ATOM     22  C   UNL     1       6.994   4.676  13.539  0.00  0.00    +0.000 A 
ATOM     23  C   UNL     1       7.569   5.016  14.768  0.00  0.00    +0.000 A 
ENDBRANCH  15  17
ENDBRANCH  14  15
ENDBRANCH   1  14
TORSDOF 4
ENDMDL
MODEL 2
REMARK VINA RESULT:      -7.7      0.230      1.078
REMARK  Name = 
REMARK  4 active torsions:
REMARK  status: ('A' for Active; 'I' for Inactive)
REMARK    1  A    between atoms: C_2  and  N_3
REMARK    2  A    between atoms: C_2  and  N_14
REMARK    3  A    between atoms: N_3  and  N_4
REMARK    4  A    between atoms: N_14  and  C_15
REMARK                            x       y       z     vdW  Elec       q    Type
REMARK                         _______ _______ _______ _____ _____    ______ ____
ROOT
ATOM      1  N   UNL     1       6.810   5.232  19.093  0.00  0.00    +0.000 N 
ATOM      2  H   UNL     1       7.403   5.323  19.910  0.00  0.00    +0.000 HD
ENDROOT
BRANCH   1   3
ATOM      3  N   UNL     1       5.830   4.272  19.096  0.00  0.00    +0.000 NA
ATOM      4  C   UNL     1       4.617   4.632  18.836  0.00  0.00    +0.000 C 
ATOM      5  C   UNL     1       4.110   6.014  18.513  0.00  0.00    +0.000 C 
ATOM      6  C   UNL     1       2.616   5.831  18.205  0.00  0.00    +0.000 C 
ATOM      7  C   UNL     1       2.354   4.383  18.470  0.00  0.00    +0.000 A 
ATOM      8  C   UNL     1       1.144   3.712  18.371  0.00  0.00    +0.000 A 
ATOM      9  C   UNL     1       1.118   2.338  18.629  0.00  0.00    +0.000 A 
ATOM     10  C   UNL     1       2.293   1.649  18.980  0.00  0.00    +0.000 A 
ATOM     11  C   UNL     1       3.509   2.329  19.077  0.00  0.00    +0.000 A 
ATOM     12  C   UNL     1       3.507   3.688  18.817  0.00  0.00    +0.000 A 
ENDBRANCH   1   3
BRANCH   1  14
ATOM     13  S   UNL     1       7.618   7.284  17.648  0.00  0.00    +0.000 S 
ATOM     14  C   UNL     1       7.338   5.656  17.898  0.00  0.00    +0.000 C 
BRANCH  14  15
ATOM     15  N   UNL     1       7.712   4.734  16.961  0.00  0.00    +0.000 N 
ATOM     16  H   UNL     1       8.575   4.238  17.156  0.00  0.00    +0.000 HD
BRANCH  15  17
ATOM     17  C   UNL     1       7.043   4.434  15.756  0.00  0.00    +0.000 A 
ATOM     18  C   UNL     1       7.576   4.801  14.514  0.00  0.00    +0.000 A 
ATOM     19  C   UNL     1       6.870   4.556  13.337  0.00  0.00    +0.000 A 
ATOM     20  C   UNL     1       5.634   3.925  13.404  0.00  0.00    +0.000 A 
ATOM     21 CL   UNL     1       4.728   3.678  11.962  0.00  0.00    +0.000 Cl
ATOM     22  C   UNL     1       5.119   3.503  14.630  0.00  0.00    +0.000 A 
ATOM     23  C   UNL     1       5.837   3.736  15.808  0.00  0.00    +0.000 A 
ENDBRANCH  15  17
ENDBRANCH  14  15
ENDBRANCH   1  14
TORSDOF 4
ENDMDL
MODEL 3
REMARK VINA RESULT:      -7.7      1.274      1.815
REMARK  Name = 
REMARK  4 active torsions:
REMARK  status: ('A' for Active; 'I' for Inactive)
REMARK    1  A    between atoms: C_2  and  N_3
REMARK    2  A    between atoms: C_2  and  N_14
REMARK    3  A    between atoms: N_3  and  N_4
REMARK    4  A    between atoms: N_14  and  C_15
REMARK                            x       y       z     vdW  Elec       q    Type
REMARK                         _______ _______ _______ _____ _____    ______ ____
ROOT
ATOM      1  N   UNL     1       6.806   4.294  18.240  0.00  0.00    +0.000 N 
ATOM      2  H   UNL     1       7.115   3.334  18.132  0.00  0.00    +0.000 HD
ENDROOT
BRANCH   1   3
ATOM      3  N   UNL     1       5.639   4.537  18.919  0.00  0.00    +0.000 NA
ATOM      4  C   UNL     1       4.608   3.807  18.650  0.00  0.00    +0.000 C 
ATOM      5  C   UNL     1       4.506   2.678  17.656  0.00  0.00    +0.000 C 
ATOM      6  C   UNL     1       3.085   2.119  17.828  0.00  0.00    +0.000 C 
ATOM      7  C   UNL     1       2.446   3.027  18.830  0.00  0.00    +0.000 A 
ATOM      8  C   UNL     1       1.145   2.972  19.308  0.00  0.00    +0.000 A 
ATOM      9  C   UNL     1       0.750   3.899  20.278  0.00  0.00    +0.000 A 
ATOM     10  C   UNL     1       1.651   4.865  20.760  0.00  0.00    +0.000 A 
ATOM     11  C   UNL     1       2.959   4.916  20.275  0.00  0.00    +0.000 A 
ATOM     12  C   UNL     1       3.325   3.987  19.316  0.00  0.00    +0.000 A 
ENDBRANCH   1   3
BRANCH   1  14
ATOM     13  S   UNL     1       7.326   6.814  17.666  0.00  0.00    +0.000 S 
ATOM     14  C   UNL     1       7.237   5.189  17.291  0.00  0.00    +0.000 C 
BRANCH  14  15
ATOM     15  N   UNL     1       7.673   4.730  16.080  0.00  0.00    +0.000 N 
ATOM     16  H   UNL     1       8.675   4.603  15.996  0.00  0.00    +0.000 HD
BRANCH  15  17
ATOM     17  C   UNL     1       6.881   4.450  14.947  0.00  0.00    +0.000 A 
ATOM     18  C   UNL     1       5.502   4.232  15.055  0.00  0.00    +0.000 A 
ATOM     19  C   UNL     1       4.746   3.890  13.936  0.00  0.00    +0.000 A 
ATOM     20  C   UNL     1       5.371   3.784  12.699  0.00  0.00    +0.000 A 
ATOM     21 CL   UNL     1       4.456   3.298  11.325  0.00  0.00    +0.000 Cl
ATOM     22  C   UNL     1       6.733   4.053  12.568  0.00  0.00    +0.000 A 
ATOM     23  C   UNL     1       7.486   4.412  13.691  0.00  0.00    +0.000 A 
ENDBRANCH  15  17
ENDBRANCH  14  15
ENDBRANCH   1  14
TORSDOF 4
ENDMDL
MODEL 4
REMARK VINA RESULT:      -7.6      2.998      3.953
REMARK  Name = 
REMARK  4 active torsions:
REMARK  status: ('A' for Active; 'I' for Inactive)
REMARK    1  A    between atoms: C_2  and  N_3
REMARK    2  A    between atoms: C_2  and  N_14
REMARK    3  A    between atoms: N_3  and  N_4
REMARK    4  A    between atoms: N_14  and  C_15
REMARK                            x       y       z     vdW  Elec       q    Type
REMARK                         _______ _______ _______ _____ _____    ______ ____
ROOT
ATOM      1  N   UNL     1       4.473   4.381  15.703  0.00  0.00    +0.000 N 
ATOM      2  H   UNL     1       4.117   5.271  15.375  0.00  0.00    +0.000 HD
ENDROOT
BRANCH   1   3
ATOM      3  N   UNL     1       3.826   3.756  16.740  0.00  0.00    +0.000 NA
ATOM      4  C   UNL     1       3.382   4.481  17.712  0.00  0.00    +0.000 C 
ATOM      5  C   UNL     1       3.476   5.977  17.871  0.00  0.00    +0.000 C 
ATOM      6  C   UNL     1       2.702   6.293  19.160  0.00  0.00    +0.000 C 
ATOM      7  C   UNL     1       2.308   4.955  19.697  0.00  0.00    +0.000 A 
ATOM      8  C   UNL     1       1.615   4.686  20.868  0.00  0.00    +0.000 A 
ATOM      9  C   UNL     1       1.311   3.356  21.175  0.00  0.00    +0.000 A 
ATOM     10  C   UNL     1       1.699   2.312  20.316  0.00  0.00    +0.000 A 
ATOM     11  C   UNL     1       2.397   2.588  19.138  0.00  0.00    +0.000 A 
ATOM     12  C   UNL     1       2.684   3.912  18.858  0.00  0.00    +0.000 A 
ENDBRANCH   1   3
BRANCH   1  14
ATOM     13  S   UNL     1       6.360   3.847  13.941  0.00  0.00    +0.000 S 
ATOM     14  C   UNL     1       5.807   4.134  15.490  0.00  0.00    +0.000 C 
BRANCH  14  15
ATOM     15  N   UNL     1       6.682   4.215  16.537  0.00  0.00    +0.000 N 
ATOM     16  H   UNL     1       7.009   3.328  16.903  0.00  0.00    +0.000 HD
BRANCH  15  17
ATOM     17  C   UNL     1       7.142   5.391  17.167  0.00  0.00    +0.000 A 
ATOM     18  C   UNL     1       7.072   6.636  16.529  0.00  0.00    +0.000 A 
ATOM     19  C   UNL     1       7.591   7.777  17.138  0.00  0.00    +0.000 A 
ATOM     20  C   UNL     1       8.168   7.673  18.398  0.00  0.00    +0.000 A 
ATOM     21 CL   UNL     1       8.871   9.064  19.127  0.00  0.00    +0.000 Cl
ATOM     22  C   UNL     1       8.194   6.449  19.067  0.00  0.00    +0.000 A 
ATOM     23  C   UNL     1       7.657   5.309  18.460  0.00  0.00    +0.000 A 
ENDBRANCH  15  17
ENDBRANCH  14  15
ENDBRANCH   1  14
TORSDOF 4
ENDMDL
MODEL 5
REMARK VINA RESULT:      -7.5      3.589      6.451
REMARK  Name = 
REMARK  4 active torsions:
REMARK  status: ('A' for Active; 'I' for Inactive)
REMARK    1  A    between atoms: C_2  and  N_3
REMARK    2  A    between atoms: C_2  and  N_14
REMARK    3  A    between atoms: N_3  and  N_4
REMARK    4  A    between atoms: N_14  and  C_15
REMARK                            x       y       z     vdW  Elec       q    Type
REMARK                         _______ _______ _______ _____ _____    ______ ____
ROOT
ATOM      1  N   UNL     1       3.542   3.646  19.633  0.00  0.00    +0.000 N 
ATOM      2  H   UNL     1       4.210   3.329  20.326  0.00  0.00    +0.000 HD
ENDROOT
BRANCH   1   3
ATOM      3  N   UNL     1       3.937   3.707  18.320  0.00  0.00    +0.000 NA
ATOM      4  C   UNL     1       5.059   4.285  18.042  0.00  0.00    +0.000 C 
ATOM      5  C   UNL     1       6.034   4.924  18.998  0.00  0.00    +0.000 C 
ATOM      6  C   UNL     1       7.221   5.362  18.127  0.00  0.00    +0.000 C 
ATOM      7  C   UNL     1       6.800   5.036  16.730  0.00  0.00    +0.000 A 
ATOM      8  C   UNL     1       7.507   5.267  15.560  0.00  0.00    +0.000 A 
ATOM      9  C   UNL     1       6.949   4.850  14.347  0.00  0.00    +0.000 A 
ATOM     10  C   UNL     1       5.697   4.210  14.314  0.00  0.00    +0.000 A 
ATOM     11  C   UNL     1       4.989   3.980  15.495  0.00  0.00    +0.000 A 
ATOM     12  C   UNL     1       5.564   4.402  16.681  0.00  0.00    +0.000 A 
ENDBRANCH   1   3
BRANCH   1  14
ATOM     13  S   UNL     1       0.987   3.873  20.240  0.00  0.00    +0.000 S 
ATOM     14  C   UNL     1       2.538   4.471  20.077  0.00  0.00    +0.000 C 
BRANCH  14  15
ATOM     15  N   UNL     1       2.836   5.747  20.465  0.00  0.00    +0.000 N 
ATOM     16  H   UNL     1       3.503   5.828  21.224  0.00  0.00    +0.000 HD
BRANCH  15  17
ATOM     17  C   UNL     1       2.292   6.939  19.943  0.00  0.00    +0.000 A 
ATOM     18  C   UNL     1       2.498   7.314  18.609  0.00  0.00    +0.000 A 
ATOM     19  C   UNL     1       2.010   8.527  18.128  0.00  0.00    +0.000 A 
ATOM     20  C   UNL     1       1.297   9.360  18.981  0.00  0.00    +0.000 A 
ATOM     21 CL   UNL     1       0.749  10.889  18.412  0.00  0.00    +0.000 Cl
ATOM     22  C   UNL     1       1.036   8.973  20.296  0.00  0.00    +0.000 A 
ATOM     23  C   UNL     1       1.514   7.747  20.772  0.00  0.00    +0.000 A 
ENDBRANCH  15  17
ENDBRANCH  14  15
ENDBRANCH   1  14
TORSDOF 4
ENDMDL
MODEL 6
REMARK VINA RESULT:      -7.3      2.996      3.900
REMARK  Name = 
REMARK  4 active torsions:
REMARK  status: ('A' for Active; 'I' for Inactive)
REMARK    1  A    between atoms: C_2  and  N_3
REMARK    2  A    between atoms: C_2  and  N_14
REMARK    3  A    between atoms: N_3  and  N_4
REMARK    4  A    between atoms: N_14  and  C_15
REMARK                            x       y       z     vdW  Elec       q    Type
REMARK                         _______ _______ _______ _____ _____    ______ ____
ROOT
ATOM      1  N   UNL     1       4.424   4.333  15.731  0.00  0.00    +0.000 N 
ATOM      2  H   UNL     1       4.032   5.174  15.323  0.00  0.00    +0.000 HD
ENDROOT
BRANCH   1   3
ATOM      3  N   UNL     1       3.759   3.737  16.773  0.00  0.00    +0.000 NA
ATOM      4  C   UNL     1       3.350   4.481  17.747  0.00  0.00    +0.000 C 
ATOM      5  C   UNL     1       3.508   5.972  17.903  0.00  0.00    +0.000 C 
ATOM      6  C   UNL     1       2.755   6.322  19.196  0.00  0.00    +0.000 C 
ATOM      7  C   UNL     1       2.310   5.002  19.738  0.00  0.00    +0.000 A 
ATOM      8  C   UNL     1       1.614   4.764  20.914  0.00  0.00    +0.000 A 
ATOM      9  C   UNL     1       1.258   3.448  21.226  0.00  0.00    +0.000 A 
ATOM     10  C   UNL     1       1.597   2.388  20.366  0.00  0.00    +0.000 A 
ATOM     11  C   UNL     1       2.297   2.632  19.183  0.00  0.00    +0.000 A 
ATOM     12  C   UNL     1       2.637   3.944  18.898  0.00  0.00    +0.000 A 
ENDBRANCH   1   3
BRANCH   1  14
ATOM     13  S   UNL     1       6.458   3.981  14.092  0.00  0.00    +0.000 S 
ATOM     14  C   UNL     1       5.781   4.162  15.608  0.00  0.00    +0.000 C 
BRANCH  14  15
ATOM     15  N   UNL     1       6.572   4.231  16.720  0.00  0.00    +0.000 N 
ATOM     16  H   UNL     1       6.731   3.352  17.199  0.00  0.00    +0.000 HD
BRANCH  15  17
ATOM     17  C   UNL     1       7.153   5.391  17.274  0.00  0.00    +0.000 A 
ATOM     18  C   UNL     1       7.806   5.361  18.513  0.00  0.00    +0.000 A 
ATOM     19  C   UNL     1       8.315   6.529  19.077  0.00  0.00    +0.000 A 
ATOM     20  C   UNL     1       8.185   7.729  18.390  0.00  0.00    +0.000 A 
ATOM     21 CL   UNL     1       8.753   9.186  19.110  0.00  0.00    +0.000 Cl
ATOM     22  C   UNL     1       7.587   7.764  17.130  0.00  0.00    +0.000 A 
ATOM     23  C   UNL     1       7.092   6.587  16.559  0.00  0.00    +0.000 A 
ENDBRANCH  15  17
ENDBRANCH  14  15
ENDBRANCH   1  14
TORSDOF 4
ENDMDL
MODEL 7
REMARK VINA RESULT:      -7.3      1.677      2.146
REMARK  Name = 
REMARK  4 active torsions:
REMARK  status: ('A' for Active; 'I' for Inactive)
REMARK    1  A    between atoms: C_2  and  N_3
REMARK    2  A    between atoms: C_2  and  N_14
REMARK    3  A    between atoms: N_3  and  N_4
REMARK    4  A    between atoms: N_14  and  C_15
REMARK                            x       y       z     vdW  Elec       q    Type
REMARK                         _______ _______ _______ _____ _____    ______ ____
ROOT
ATOM      1  N   UNL     1       5.394   6.394  16.505  0.00  0.00    +0.000 N 
ATOM      2  H   UNL     1       5.136   7.002  15.736  0.00  0.00    +0.000 HD
ENDROOT
BRANCH   1   3
ATOM      3  N   UNL     1       4.542   6.293  17.576  0.00  0.00    +0.000 NA
ATOM      4  C   UNL     1       3.776   5.256  17.656  0.00  0.00    +0.000 C 
ATOM      5  C   UNL     1       3.686   4.095  16.699  0.00  0.00    +0.000 C 
ATOM      6  C   UNL     1       2.684   3.123  17.342  0.00  0.00    +0.000 C 
ATOM      7  C   UNL     1       2.199   3.838  18.561  0.00  0.00    +0.000 A 
ATOM      8  C   UNL     1       1.253   3.400  19.476  0.00  0.00    +0.000 A 
ATOM      9  C   UNL     1       0.964   4.211  20.579  0.00  0.00    +0.000 A 
ATOM     10  C   UNL     1       1.618   5.442  20.758  0.00  0.00    +0.000 A 
ATOM     11  C   UNL     1       2.570   5.879  19.835  0.00  0.00    +0.000 A 
ATOM     12  C   UNL     1       2.838   5.058  18.753  0.00  0.00    +0.000 A 
ENDBRANCH   1   3
BRANCH   1  14
ATOM     13  S   UNL     1       7.407   6.295  18.204  0.00  0.00    +0.000 S 
ATOM     14  C   UNL     1       6.735   6.159  16.681  0.00  0.00    +0.000 C 
BRANCH  14  15
ATOM     15  N   UNL     1       7.488   5.728  15.625  0.00  0.00    +0.000 N 
ATOM     16  H   UNL     1       8.457   6.026  15.629  0.00  0.00    +0.000 HD
BRANCH  15  17
ATOM     17  C   UNL     1       7.048   4.951  14.533  0.00  0.00    +0.000 A 
ATOM     18  C   UNL     1       6.031   3.997  14.678  0.00  0.00    +0.000 A 
ATOM     19  C   UNL     1       5.655   3.191  13.606  0.00  0.00    +0.000 A 
ATOM     20  C   UNL     1       6.286   3.353  12.379  0.00  0.00    +0.000 A 
ATOM     21 CL   UNL     1       5.872   2.316  11.069  0.00  0.00    +0.000 Cl
ATOM     22  C   UNL     1       7.260   4.337  12.206  0.00  0.00    +0.000 A 
ATOM     23  C   UNL     1       7.624   5.156  13.280  0.00  0.00    +0.000 A 
ENDBRANCH  15  17
ENDBRANCH  14  15
ENDBRANCH   1  14
TORSDOF 4
ENDMDL
MODEL 8
REMARK VINA RESULT:      -7.2      3.585      5.074
REMARK  Name = 
REMARK  4 active torsions:
REMARK  status: ('A' for Active; 'I' for Inactive)
REMARK    1  A    between atoms: C_2  and  N_3
REMARK    2  A    between atoms: C_2  and  N_14
REMARK    3  A    between atoms: N_3  and  N_4
REMARK    4  A    between atoms: N_14  and  C_15
REMARK                            x       y       z     vdW  Elec       q    Type
REMARK                         _______ _______ _______ _____ _____    ______ ____
ROOT
ATOM      1  N   UNL     1       3.428   4.694  18.661  0.00  0.00    +0.000 N 
ATOM      2  H   UNL     1       3.547   4.964  17.691  0.00  0.00    +0.000 HD
ENDROOT
BRANCH   1   3
ATOM      3  N   UNL     1       2.783   5.559  19.509  0.00  0.00    +0.000 NA
ATOM      4  C   UNL     1       2.498   6.743  19.078  0.00  0.00    +0.000 C 
ATOM      5  C   UNL     1       2.785   7.329  17.719  0.00  0.00    +0.000 C 
ATOM      6  C   UNL     1       2.145   8.726  17.741  0.00  0.00    +0.000 C 
ATOM      7  C   UNL     1       1.629   8.878  19.135  0.00  0.00    +0.000 A 
ATOM      8  C   UNL     1       0.990   9.981  19.683  0.00  0.00    +0.000 A 
ATOM      9  C   UNL     1       0.548   9.909  21.008  0.00  0.00    +0.000 A 
ATOM     10  C   UNL     1       0.746   8.744  21.770  0.00  0.00    +0.000 A 
ATOM     11  C   UNL     1       1.390   7.636  21.214  0.00  0.00    +0.000 A 
ATOM     12  C   UNL     1       1.817   7.734  19.901  0.00  0.00    +0.000 A 
ENDBRANCH   1   3
BRANCH   1  14
ATOM     13  S   UNL     1       3.818   2.539  20.128  0.00  0.00    +0.000 S 
ATOM     14  C   UNL     1       4.341   3.802  19.169  0.00  0.00    +0.000 C 
BRANCH  14  15
ATOM     15  N   UNL     1       5.656   3.907  18.812  0.00  0.00    +0.000 N 
ATOM     16  H   UNL     1       6.176   3.037  18.798  0.00  0.00    +0.000 HD
BRANCH  15  17
ATOM     17  C   UNL     1       6.355   5.090  18.496  0.00  0.00    +0.000 A 
ATOM     18  C   UNL     1       7.442   5.525  19.266  0.00  0.00    +0.000 A 
ATOM     19  C   UNL     1       8.079   6.731  18.981  0.00  0.00    +0.000 A 
ATOM     20  C   UNL     1       7.637   7.496  17.909  0.00  0.00    +0.000 A 
ATOM     21 CL   UNL     1       8.377   9.018  17.592  0.00  0.00    +0.000 Cl
ATOM     22  C   UNL     1       6.593   7.048  17.100  0.00  0.00    +0.000 A 
ATOM     23  C   UNL     1       5.966   5.829  17.379  0.00  0.00    +0.000 A 
ENDBRANCH  15  17
ENDBRANCH  14  15
ENDBRANCH   1  14
TORSDOF 4
ENDMDL
MODEL 9
REMARK VINA RESULT:      -7.2      1.684      2.267
REMARK  Name = 
REMARK  4 active torsions:
REMARK  status: ('A' for Active; 'I' for Inactive)
REMARK    1  A    between atoms: C_2  and  N_3
REMARK    2  A    between atoms: C_2  and  N_14
REMARK    3  A    between atoms: N_3  and  N_4
REMARK    4  A    between atoms: N_14  and  C_15
REMARK                            x       y       z     vdW  Elec       q    Type
REMARK                         _______ _______ _______ _____ _____    ______ ____
ROOT
ATOM      1  N   UNL     1       5.293   6.110  16.750  0.00  0.00    +0.000 N 
ATOM      2  H   UNL     1       4.866   6.698  16.043  0.00  0.00    +0.000 HD
ENDROOT
BRANCH   1   3
ATOM      3  N   UNL     1       4.588   5.844  17.897  0.00  0.00    +0.000 NA
ATOM      4  C   UNL     1       3.790   4.828  17.905  0.00  0.00    +0.000 C 
ATOM      5  C   UNL     1       3.516   3.856  16.786  0.00  0.00    +0.000 C 
ATOM      6  C   UNL     1       2.562   2.812  17.387  0.00  0.00    +0.000 C 
ATOM      7  C   UNL     1       2.280   3.313  18.766  0.00  0.00    +0.000 A 
ATOM      8  C   UNL     1       1.443   2.745  19.715  0.00  0.00    +0.000 A 
ATOM      9  C   UNL     1       1.343   3.356  20.970  0.00  0.00    +0.000 A 
ATOM     10  C   UNL     1       2.075   4.520  21.264  0.00  0.00    +0.000 A 
ATOM     11  C   UNL     1       2.916   5.088  20.305  0.00  0.00    +0.000 A 
ATOM     12  C   UNL     1       2.997   4.464  19.072  0.00  0.00    +0.000 A 
ENDBRANCH   1   3
BRANCH   1  14
ATOM     13  S   UNL     1       7.469   6.151  18.238  0.00  0.00    +0.000 S 
ATOM     14  C   UNL     1       6.666   6.076  16.776  0.00  0.00    +0.000 C 
BRANCH  14  15
ATOM     15  N   UNL     1       7.357   5.891  15.611  0.00  0.00    +0.000 N 
ATOM     16  H   UNL     1       8.184   6.466  15.498  0.00  0.00    +0.000 HD
BRANCH  15  17
ATOM     17  C   UNL     1       7.019   5.018  14.557  0.00  0.00    +0.000 A 
ATOM     18  C   UNL     1       7.570   5.169  13.278  0.00  0.00    +0.000 A 
ATOM     19  C   UNL     1       7.175   4.339  12.231  0.00  0.00    +0.000 A 
ATOM     20  C   UNL     1       6.237   3.342  12.469  0.00  0.00    +0.000 A 
ATOM     21 CL   UNL     1       5.696   2.357  11.167  0.00  0.00    +0.000 Cl
ATOM     22  C   UNL     1       5.723   3.145  13.751  0.00  0.00    +0.000 A 
ATOM     23  C   UNL     1       6.134   3.969  14.804  0.00  0.00    +0.000 A 
ENDBRANCH  15  17
ENDBRANCH  14  15
ENDBRANCH   1  14
TORSDOF 4
ENDMDL
