MODEL 1
REMARK VINA RESULT:      -9.3      0.000      0.000
REMARK  Name = 
REMARK  8 active torsions:
REMARK  status: ('A' for Active; 'I' for Inactive)
REMARK    1  A    between atoms: C_1  and  C_2
REMARK    2  A    between atoms: C_2  and  C_3
REMARK    3  A    between atoms: C_3  and  C_4
REMARK    4  A    between atoms: C_4  and  C_5
REMARK    5  A    between atoms: C_8  and  C_9
REMARK    6  A    between atoms: C_20  and  O_21
REMARK    7  A    between atoms: C_22  and  C_23
REMARK    8  A    between atoms: C_23  and  O_25
REMARK                            x       y       z     vdW  Elec       q    Type
REMARK                         _______ _______ _______ _____ _____    ______ ____
ROOT
ATOM      1  C   UNL     1       2.894   6.839  18.492  0.00  0.00    +0.000 A 
ATOM      2  C   UNL     1       2.460   6.197  19.662  0.00  0.00    +0.000 A 
ATOM      3  C   UNL     1       1.567   6.787  20.543  0.00  0.00    +0.000 A 
ATOM      4  C   UNL     1       1.056   8.051  20.253  0.00  0.00    +0.000 A 
ATOM      5  C   UNL     1       0.209   8.904  20.972  0.00  0.00    +0.000 A 
ATOM      6  C   UNL     1       0.016  10.078  20.265  0.00  0.00    +0.000 A 
ATOM      7  N   UNL     1       0.772   9.960  19.108  0.00  0.00    +0.000 N 
ATOM      8  C   UNL     1       1.445   8.730  19.099  0.00  0.00    +0.000 A 
ATOM      9  C   UNL     1       2.382   8.144  18.210  0.00  0.00    +0.000 A 
ATOM     10  C   UNL     1      -0.725  11.199  20.878  0.00  0.00    +0.000 A 
ATOM     11  C   UNL     1      -1.500  12.145  20.206  0.00  0.00    +0.000 A 
ATOM     12  C   UNL     1      -2.302  13.043  20.952  0.00  0.00    +0.000 A 
ATOM     13  C   UNL     1      -2.309  13.047  22.358  0.00  0.00    +0.000 A 
ATOM     14  C   UNL     1      -1.521  12.111  23.031  0.00  0.00    +0.000 A 
ATOM     15  C   UNL     1      -0.782  11.178  22.305  0.00  0.00    +0.000 A 
ATOM     16  C   UNL     1      -0.084  10.062  23.077  0.00  0.00    +0.000 C 
ATOM     17  C   UNL     1      -0.312   8.733  22.351  0.00  0.00    +0.000 C 
ATOM     18  H   UNL     1       0.902  10.683  18.419  0.00  0.00    +0.000 HD
ENDROOT
BRANCH   1  22
ATOM     19  C   UNL     1       5.473   4.664  15.760  0.00  0.00    +0.000 A 
ATOM     20  C   UNL     1       5.528   6.060  15.848  0.00  0.00    +0.000 A 
ATOM     21  C   UNL     1       4.723   6.762  16.753  0.00  0.00    +0.000 A 
ATOM     22  C   UNL     1       3.820   6.096  17.591  0.00  0.00    +0.000 A 
ATOM     23  C   UNL     1       3.772   4.686  17.473  0.00  0.00    +0.000 A 
ATOM     24  C   UNL     1       4.569   3.980  16.566  0.00  0.00    +0.000 A 
BRANCH  19  25
ATOM     25  C   UNL     1       6.452   3.917  14.885  0.00  0.00    +0.000 C 
BRANCH  25  26
ATOM     26  C   UNL     1       6.266   4.377  13.438  0.00  0.00    +0.000 C 
BRANCH  26  28
ATOM     27  C   UNL     1       4.687   3.370  11.799  0.00  0.00    +0.000 C 
ATOM     28  C   UNL     1       6.052   3.231  12.460  0.00  0.00    +0.000 C 
ENDBRANCH  26  28
ENDBRANCH  25  26
ENDBRANCH  19  25
ENDBRANCH   1  22
BRANCH  12  29
ATOM     29  O   UNL     1      -3.135  13.913  20.291  0.00  0.00    +0.000 OA
ATOM     30  H   UNL     1      -3.116  13.708  19.337  0.00  0.00    +0.000 HD
ENDBRANCH  12  29
BRANCH  13  31
ATOM     31  C   UNL     1      -3.137  13.937  23.238  0.00  0.00    +0.000 C 
ATOM     32  O   UNL     1      -3.413  15.090  22.953  0.00  0.00    +0.000 OA
BRANCH  31  33
ATOM     33  O   UNL     1      -3.546  13.365  24.390  0.00  0.00    +0.000 OA
ATOM     34  H   UNL     1      -4.497  13.125  24.370  0.00  0.00    +0.000 HD
ENDBRANCH  31  33
ENDBRANCH  13  31
TORSDOF 7
ENDMDL
MODEL 2
REMARK VINA RESULT:      -9.1      0.214      1.046
REMARK  Name = 
REMARK  8 active torsions:
REMARK  status: ('A' for Active; 'I' for Inactive)
REMARK    1  A    between atoms: C_1  and  C_2
REMARK    2  A    between atoms: C_2  and  C_3
REMARK    3  A    between atoms: C_3  and  C_4
REMARK    4  A    between atoms: C_4  and  C_5
REMARK    5  A    between atoms: C_8  and  C_9
REMARK    6  A    between atoms: C_20  and  O_21
REMARK    7  A    between atoms: C_22  and  C_23
REMARK    8  A    between atoms: C_23  and  O_25
REMARK                            x       y       z     vdW  Elec       q    Type
REMARK                         _______ _______ _______ _____ _____    ______ ____
ROOT
ATOM      1  C   UNL     1       2.835   6.910  18.579  0.00  0.00    +0.000 A 
ATOM      2  C   UNL     1       2.408   6.269  19.751  0.00  0.00    +0.000 A 
ATOM      3  C   UNL     1       1.511   6.854  20.631  0.00  0.00    +0.000 A 
ATOM      4  C   UNL     1       0.989   8.113  20.337  0.00  0.00    +0.000 A 
ATOM      5  C   UNL     1       0.136   8.962  21.053  0.00  0.00    +0.000 A 
ATOM      6  C   UNL     1      -0.067  10.132  20.342  0.00  0.00    +0.000 A 
ATOM      7  N   UNL     1       0.688  10.016  19.184  0.00  0.00    +0.000 N 
ATOM      8  C   UNL     1       1.372   8.790  19.180  0.00  0.00    +0.000 A 
ATOM      9  C   UNL     1       2.313   8.209  18.292  0.00  0.00    +0.000 A 
ATOM     10  C   UNL     1      -0.817  11.249  20.951  0.00  0.00    +0.000 A 
ATOM     11  C   UNL     1      -1.600  12.186  20.276  0.00  0.00    +0.000 A 
ATOM     12  C   UNL     1      -2.408  13.080  21.020  0.00  0.00    +0.000 A 
ATOM     13  C   UNL     1      -2.415  13.089  22.426  0.00  0.00    +0.000 A 
ATOM     14  C   UNL     1      -1.618  12.163  23.101  0.00  0.00    +0.000 A 
ATOM     15  C   UNL     1      -0.872  11.233  22.378  0.00  0.00    +0.000 A 
ATOM     16  C   UNL     1      -0.164  10.126  23.154  0.00  0.00    +0.000 C 
ATOM     17  C   UNL     1      -0.383   8.792  22.433  0.00  0.00    +0.000 C 
ATOM     18  H   UNL     1       0.812  10.736  18.493  0.00  0.00    +0.000 HD
ENDROOT
BRANCH   1  22
ATOM     19  C   UNL     1       5.651   4.745  16.081  0.00  0.00    +0.000 A 
ATOM     20  C   UNL     1       4.569   4.091  16.684  0.00  0.00    +0.000 A 
ATOM     21  C   UNL     1       3.639   4.793  17.461  0.00  0.00    +0.000 A 
ATOM     22  C   UNL     1       3.767   6.170  17.679  0.00  0.00    +0.000 A 
ATOM     23  C   UNL     1       4.876   6.806  17.072  0.00  0.00    +0.000 A 
ATOM     24  C   UNL     1       5.813   6.109  16.301  0.00  0.00    +0.000 A 
BRANCH  19  25
ATOM     25  C   UNL     1       6.556   4.000  15.130  0.00  0.00    +0.000 C 
BRANCH  25  26
ATOM     26  C   UNL     1       6.244   4.452  13.701  0.00  0.00    +0.000 C 
BRANCH  26  28
ATOM     27  C   UNL     1       4.835   3.441  11.918  0.00  0.00    +0.000 C 
ATOM     28  C   UNL     1       6.126   3.301  12.713  0.00  0.00    +0.000 C 
ENDBRANCH  26  28
ENDBRANCH  25  26
ENDBRANCH  19  25
ENDBRANCH   1  22
BRANCH  12  29
ATOM     29  O   UNL     1      -3.250  13.941  20.356  0.00  0.00    +0.000 OA
ATOM     30  H   UNL     1      -3.175  13.780  19.396  0.00  0.00    +0.000 HD
ENDBRANCH  12  29
BRANCH  13  31
ATOM     31  C   UNL     1      -3.249  13.976  23.303  0.00  0.00    +0.000 C 
ATOM     32  O   UNL     1      -3.873  13.567  24.267  0.00  0.00    +0.000 OA
BRANCH  31  33
ATOM     33  O   UNL     1      -3.270  15.274  22.932  0.00  0.00    +0.000 OA
ATOM     34  H   UNL     1      -2.532  15.499  22.325  0.00  0.00    +0.000 HD
ENDBRANCH  31  33
ENDBRANCH  13  31
TORSDOF 7
ENDMDL
MODEL 3
REMARK VINA RESULT:      -8.4      0.949      1.439
REMARK  Name = 
REMARK  8 active torsions:
REMARK  status: ('A' for Active; 'I' for Inactive)
REMARK    1  A    between atoms: C_1  and  C_2
REMARK    2  A    between atoms: C_2  and  C_3
REMARK    3  A    between atoms: C_3  and  C_4
REMARK    4  A    between atoms: C_4  and  C_5
REMARK    5  A    between atoms: C_8  and  C_9
REMARK    6  A    between atoms: C_20  and  O_21
REMARK    7  A    between atoms: C_22  and  C_23
REMARK    8  A    between atoms: C_23  and  O_25
REMARK                            x       y       z     vdW  Elec       q    Type
REMARK                         _______ _______ _______ _____ _____    ______ ____
ROOT
ATOM      1  C   UNL     1       2.334   7.630  18.817  0.00  0.00    +0.000 A 
ATOM      2  C   UNL     1       2.096   7.193  20.129  0.00  0.00    +0.000 A 
ATOM      3  C   UNL     1       1.216   7.843  20.978  0.00  0.00    +0.000 A 
ATOM      4  C   UNL     1       0.517   8.957  20.514  0.00  0.00    +0.000 A 
ATOM      5  C   UNL     1      -0.368   9.836  21.151  0.00  0.00    +0.000 A 
ATOM      6  C   UNL     1      -0.778  10.814  20.261  0.00  0.00    +0.000 A 
ATOM      7  N   UNL     1      -0.121  10.551  19.069  0.00  0.00    +0.000 N 
ATOM      8  C   UNL     1       0.707   9.428  19.216  0.00  0.00    +0.000 A 
ATOM      9  C   UNL     1       1.631   8.784  18.353  0.00  0.00    +0.000 A 
ATOM     10  C   UNL     1      -1.604  11.945  20.731  0.00  0.00    +0.000 A 
ATOM     11  C   UNL     1      -2.556  12.642  19.986  0.00  0.00    +0.000 A 
ATOM     12  C   UNL     1      -3.399  13.575  20.635  0.00  0.00    +0.000 A 
ATOM     13  C   UNL     1      -3.281  13.862  22.006  0.00  0.00    +0.000 A 
ATOM     14  C   UNL     1      -2.318  13.177  22.749  0.00  0.00    +0.000 A 
ATOM     15  C   UNL     1      -1.529  12.206  22.134  0.00  0.00    +0.000 A 
ATOM     16  C   UNL     1      -0.623  11.355  23.018  0.00  0.00    +0.000 C 
ATOM     17  C   UNL     1      -0.736   9.890  22.588  0.00  0.00    +0.000 C 
ATOM     18  H   UNL     1      -0.150  11.129  18.245  0.00  0.00    +0.000 HD
ENDROOT
BRANCH   1  22
ATOM     19  C   UNL     1       5.162   5.317  16.470  0.00  0.00    +0.000 A 
ATOM     20  C   UNL     1       4.202   4.687  17.272  0.00  0.00    +0.000 A 
ATOM     21  C   UNL     1       3.266   5.430  18.002  0.00  0.00    +0.000 A 
ATOM     22  C   UNL     1       3.267   6.829  17.972  0.00  0.00    +0.000 A 
ATOM     23  C   UNL     1       4.256   7.444  17.167  0.00  0.00    +0.000 A 
ATOM     24  C   UNL     1       5.198   6.708  16.441  0.00  0.00    +0.000 A 
BRANCH  19  25
ATOM     25  C   UNL     1       6.065   4.499  15.578  0.00  0.00    +0.000 C 
BRANCH  25  26
ATOM     26  C   UNL     1       5.427   4.404  14.191  0.00  0.00    +0.000 C 
BRANCH  26  28
ATOM     27  C   UNL     1       5.431   3.230  11.997  0.00  0.00    +0.000 C 
ATOM     28  C   UNL     1       6.289   3.665  13.177  0.00  0.00    +0.000 C 
ENDBRANCH  26  28
ENDBRANCH  25  26
ENDBRANCH  19  25
ENDBRANCH   1  22
BRANCH  12  29
ATOM     29  O   UNL     1      -4.397  14.194  19.921  0.00  0.00    +0.000 OA
ATOM     30  H   UNL     1      -5.166  14.334  20.506  0.00  0.00    +0.000 HD
ENDBRANCH  12  29
BRANCH  13  31
ATOM     31  C   UNL     1      -4.138  14.813  22.791  0.00  0.00    +0.000 C 
ATOM     32  O   UNL     1      -4.487  15.902  22.369  0.00  0.00    +0.000 OA
BRANCH  31  33
ATOM     33  O   UNL     1      -4.485  14.373  24.019  0.00  0.00    +0.000 OA
ATOM     34  H   UNL     1      -3.702  14.157  24.571  0.00  0.00    +0.000 HD
ENDBRANCH  31  33
ENDBRANCH  13  31
TORSDOF 7
ENDMDL
MODEL 4
REMARK VINA RESULT:      -8.4      1.448      2.255
REMARK  Name = 
REMARK  8 active torsions:
REMARK  status: ('A' for Active; 'I' for Inactive)
REMARK    1  A    between atoms: C_1  and  C_2
REMARK    2  A    between atoms: C_2  and  C_3
REMARK    3  A    between atoms: C_3  and  C_4
REMARK    4  A    between atoms: C_4  and  C_5
REMARK    5  A    between atoms: C_8  and  C_9
REMARK    6  A    between atoms: C_20  and  O_21
REMARK    7  A    between atoms: C_22  and  C_23
REMARK    8  A    between atoms: C_23  and  O_25
REMARK                            x       y       z     vdW  Elec       q    Type
REMARK                         _______ _______ _______ _____ _____    ______ ____
ROOT
ATOM      1  C   UNL     1       2.219   7.807  18.953  0.00  0.00    +0.000 A 
ATOM      2  C   UNL     1       2.041   7.456  20.300  0.00  0.00    +0.000 A 
ATOM      3  C   UNL     1       1.163   8.133  21.132  0.00  0.00    +0.000 A 
ATOM      4  C   UNL     1       0.407   9.184  20.616  0.00  0.00    +0.000 A 
ATOM      5  C   UNL     1      -0.491  10.074  21.221  0.00  0.00    +0.000 A 
ATOM      6  C   UNL     1      -0.967  10.970  20.279  0.00  0.00    +0.000 A 
ATOM      7  N   UNL     1      -0.338  10.647  19.086  0.00  0.00    +0.000 N 
ATOM      8  C   UNL     1       0.537   9.569  19.283  0.00  0.00    +0.000 A 
ATOM      9  C   UNL     1       1.456   8.899  18.435  0.00  0.00    +0.000 A 
ATOM     10  C   UNL     1      -1.821  12.101  20.698  0.00  0.00    +0.000 A 
ATOM     11  C   UNL     1      -2.822  12.707  19.940  0.00  0.00    +0.000 A 
ATOM     12  C   UNL     1      -3.680  13.653  20.551  0.00  0.00    +0.000 A 
ATOM     13  C   UNL     1      -3.529  14.042  21.894  0.00  0.00    +0.000 A 
ATOM     14  C   UNL     1      -2.516  13.447  22.649  0.00  0.00    +0.000 A 
ATOM     15  C   UNL     1      -1.711  12.463  22.075  0.00  0.00    +0.000 A 
ATOM     16  C   UNL     1      -0.744  11.711  22.985  0.00  0.00    +0.000 C 
ATOM     17  C   UNL     1      -0.814  10.216  22.662  0.00  0.00    +0.000 C 
ATOM     18  H   UNL     1      -0.416  11.164  18.226  0.00  0.00    +0.000 HD
ENDROOT
BRANCH   1  22
ATOM     19  C   UNL     1       4.823   5.381  16.466  0.00  0.00    +0.000 A 
ATOM     20  C   UNL     1       4.846   6.779  16.388  0.00  0.00    +0.000 A 
ATOM     21  C   UNL     1       4.033   7.565  17.214  0.00  0.00    +0.000 A 
ATOM     22  C   UNL     1       3.154   6.983  18.135  0.00  0.00    +0.000 A 
ATOM     23  C   UNL     1       3.138   5.568  18.185  0.00  0.00    +0.000 A 
ATOM     24  C   UNL     1       3.942   4.777  17.358  0.00  0.00    +0.000 A 
BRANCH  19  25
ATOM     25  C   UNL     1       5.811   4.558  15.674  0.00  0.00    +0.000 C 
BRANCH  25  26
ATOM     26  C   UNL     1       7.226   4.911  16.138  0.00  0.00    +0.000 C 
BRANCH  26  28
ATOM     27  C   UNL     1       7.707   5.767  18.424  0.00  0.00    +0.000 C 
ATOM     28  C   UNL     1       7.507   4.516  17.581  0.00  0.00    +0.000 C 
ENDBRANCH  26  28
ENDBRANCH  25  26
ENDBRANCH  19  25
ENDBRANCH   1  22
BRANCH  12  29
ATOM     29  O   UNL     1      -4.724  14.183  19.831  0.00  0.00    +0.000 OA
ATOM     30  H   UNL     1      -5.544  13.712  20.069  0.00  0.00    +0.000 HD
ENDBRANCH  12  29
BRANCH  13  31
ATOM     31  C   UNL     1      -4.396  15.013  22.640  0.00  0.00    +0.000 C 
ATOM     32  O   UNL     1      -5.067  15.870  22.089  0.00  0.00    +0.000 OA
BRANCH  31  33
ATOM     33  O   UNL     1      -4.365  14.878  23.982  0.00  0.00    +0.000 OA
ATOM     34  H   UNL     1      -3.657  15.419  24.394  0.00  0.00    +0.000 HD
ENDBRANCH  31  33
ENDBRANCH  13  31
TORSDOF 7
ENDMDL
MODEL 5
REMARK VINA RESULT:      -8.3      2.544      4.032
REMARK  Name = 
REMARK  8 active torsions:
REMARK  status: ('A' for Active; 'I' for Inactive)
REMARK    1  A    between atoms: C_1  and  C_2
REMARK    2  A    between atoms: C_2  and  C_3
REMARK    3  A    between atoms: C_3  and  C_4
REMARK    4  A    between atoms: C_4  and  C_5
REMARK    5  A    between atoms: C_8  and  C_9
REMARK    6  A    between atoms: C_20  and  O_21
REMARK    7  A    between atoms: C_22  and  C_23
REMARK    8  A    between atoms: C_23  and  O_25
REMARK                            x       y       z     vdW  Elec       q    Type
REMARK                         _______ _______ _______ _____ _____    ______ ____
ROOT
ATOM      1  C   UNL     1       1.173   8.995  19.344  0.00  0.00    +0.000 A 
ATOM      2  C   UNL     1       0.639   9.760  18.296  0.00  0.00    +0.000 A 
ATOM      3  C   UNL     1      -0.283  10.772  18.513  0.00  0.00    +0.000 A 
ATOM      4  C   UNL     1      -0.682  11.064  19.817  0.00  0.00    +0.000 A 
ATOM      5  C   UNL     1      -1.627  11.965  20.325  0.00  0.00    +0.000 A 
ATOM      6  C   UNL     1      -1.680  11.859  21.704  0.00  0.00    +0.000 A 
ATOM      7  N   UNL     1      -0.777  10.865  22.050  0.00  0.00    +0.000 N 
ATOM      8  C   UNL     1      -0.176  10.341  20.896  0.00  0.00    +0.000 A 
ATOM      9  C   UNL     1       0.744   9.285  20.677  0.00  0.00    +0.000 A 
ATOM     10  C   UNL     1      -2.703  12.605  22.466  0.00  0.00    +0.000 A 
ATOM     11  C   UNL     1      -2.574  13.094  23.766  0.00  0.00    +0.000 A 
ATOM     12  C   UNL     1      -3.572  13.953  24.287  0.00  0.00    +0.000 A 
ATOM     13  C   UNL     1      -4.721  14.296  23.552  0.00  0.00    +0.000 A 
ATOM     14  C   UNL     1      -4.858  13.793  22.257  0.00  0.00    +0.000 A 
ATOM     15  C   UNL     1      -3.848  13.003  21.710  0.00  0.00    +0.000 A 
ATOM     16  C   UNL     1      -3.952  12.631  20.234  0.00  0.00    +0.000 C 
ATOM     17  C   UNL     1      -2.582  12.816  19.573  0.00  0.00    +0.000 C 
ATOM     18  H   UNL     1      -0.638  10.499  22.977  0.00  0.00    +0.000 HD
ENDROOT
BRANCH   1  22
ATOM     19  C   UNL     1       4.028   5.898  18.292  0.00  0.00    +0.000 A 
ATOM     20  C   UNL     1       3.857   7.028  17.483  0.00  0.00    +0.000 A 
ATOM     21  C   UNL     1       2.963   8.045  17.838  0.00  0.00    +0.000 A 
ATOM     22  C   UNL     1       2.193   7.962  19.004  0.00  0.00    +0.000 A 
ATOM     23  C   UNL     1       2.372   6.803  19.798  0.00  0.00    +0.000 A 
ATOM     24  C   UNL     1       3.259   5.780  19.445  0.00  0.00    +0.000 A 
BRANCH  19  25
ATOM     25  C   UNL     1       5.101   4.886  17.969  0.00  0.00    +0.000 C 
BRANCH  25  26
ATOM     26  C   UNL     1       6.295   5.124  18.896  0.00  0.00    +0.000 C 
BRANCH  26  28
ATOM     27  C   UNL     1       7.575   6.963  17.813  0.00  0.00    +0.000 C 
ATOM     28  C   UNL     1       7.576   5.479  18.156  0.00  0.00    +0.000 C 
ENDBRANCH  26  28
ENDBRANCH  25  26
ENDBRANCH  19  25
ENDBRANCH   1  22
BRANCH  12  29
ATOM     29  O   UNL     1      -3.402  14.509  25.532  0.00  0.00    +0.000 OA
ATOM     30  H   UNL     1      -2.820  15.288  25.455  0.00  0.00    +0.000 HD
ENDBRANCH  12  29
BRANCH  13  31
ATOM     31  C   UNL     1      -5.821  15.214  24.002  0.00  0.00    +0.000 C 
ATOM     32  O   UNL     1      -6.991  15.051  23.704  0.00  0.00    +0.000 OA
BRANCH  31  33
ATOM     33  O   UNL     1      -5.409  16.254  24.758  0.00  0.00    +0.000 OA
ATOM     34  H   UNL     1      -5.646  17.119  24.359  0.00  0.00    +0.000 HD
ENDBRANCH  31  33
ENDBRANCH  13  31
TORSDOF 7
ENDMDL
MODEL 6
REMARK VINA RESULT:      -8.2      1.892      3.667
REMARK  Name = 
REMARK  8 active torsions:
REMARK  status: ('A' for Active; 'I' for Inactive)
REMARK    1  A    between atoms: C_1  and  C_2
REMARK    2  A    between atoms: C_2  and  C_3
REMARK    3  A    between atoms: C_3  and  C_4
REMARK    4  A    between atoms: C_4  and  C_5
REMARK    5  A    between atoms: C_8  and  C_9
REMARK    6  A    between atoms: C_20  and  O_21
REMARK    7  A    between atoms: C_22  and  C_23
REMARK    8  A    between atoms: C_23  and  O_25
REMARK                            x       y       z     vdW  Elec       q    Type
REMARK                         _______ _______ _______ _____ _____    ______ ____
ROOT
ATOM      1  C   UNL     1       1.248   8.838  19.266  0.00  0.00    +0.000 A 
ATOM      2  C   UNL     1       0.782   9.669  18.237  0.00  0.00    +0.000 A 
ATOM      3  C   UNL     1      -0.107  10.707  18.469  0.00  0.00    +0.000 A 
ATOM      4  C   UNL     1      -0.540  10.958  19.770  0.00  0.00    +0.000 A 
ATOM      5  C   UNL     1      -1.465  11.873  20.287  0.00  0.00    +0.000 A 
ATOM      6  C   UNL     1      -1.571  11.710  21.657  0.00  0.00    +0.000 A 
ATOM      7  N   UNL     1      -0.720  10.666  21.988  0.00  0.00    +0.000 N 
ATOM      8  C   UNL     1      -0.100  10.169  20.832  0.00  0.00    +0.000 A 
ATOM      9  C   UNL     1       0.785   9.086  20.595  0.00  0.00    +0.000 A 
ATOM     10  C   UNL     1      -2.590  12.462  22.417  0.00  0.00    +0.000 A 
ATOM     11  C   UNL     1      -2.488  12.888  23.742  0.00  0.00    +0.000 A 
ATOM     12  C   UNL     1      -3.469  13.763  24.267  0.00  0.00    +0.000 A 
ATOM     13  C   UNL     1      -4.577  14.185  23.512  0.00  0.00    +0.000 A 
ATOM     14  C   UNL     1      -4.688  13.745  22.191  0.00  0.00    +0.000 A 
ATOM     15  C   UNL     1      -3.691  12.940  21.643  0.00  0.00    +0.000 A 
ATOM     16  C   UNL     1      -3.758  12.637  20.149  0.00  0.00    +0.000 C 
ATOM     17  C   UNL     1      -2.360  12.795  19.543  0.00  0.00    +0.000 C 
ATOM     18  H   UNL     1      -0.628  10.254  22.902  0.00  0.00    +0.000 HD
ENDROOT
BRANCH   1  22
ATOM     19  C   UNL     1       4.249   5.850  18.304  0.00  0.00    +0.000 A 
ATOM     20  C   UNL     1       3.451   5.731  19.449  0.00  0.00    +0.000 A 
ATOM     21  C   UNL     1       2.459   6.674  19.743  0.00  0.00    +0.000 A 
ATOM     22  C   UNL     1       2.239   7.780  18.914  0.00  0.00    +0.000 A 
ATOM     23  C   UNL     1       3.067   7.888  17.771  0.00  0.00    +0.000 A 
ATOM     24  C   UNL     1       4.065   6.953  17.475  0.00  0.00    +0.000 A 
BRANCH  19  25
ATOM     25  C   UNL     1       5.210   4.748  17.927  0.00  0.00    +0.000 C 
BRANCH  25  26
ATOM     26  C   UNL     1       4.720   4.091  16.635  0.00  0.00    +0.000 C 
BRANCH  26  28
ATOM     27  C   UNL     1       7.043   4.724  16.008  0.00  0.00    +0.000 C 
ATOM     28  C   UNL     1       5.805   3.948  15.578  0.00  0.00    +0.000 C 
ENDBRANCH  26  28
ENDBRANCH  25  26
ENDBRANCH  19  25
ENDBRANCH   1  22
BRANCH  12  29
ATOM     29  O   UNL     1      -3.321  14.256  25.542  0.00  0.00    +0.000 OA
ATOM     30  H   UNL     1      -3.375  15.230  25.513  0.00  0.00    +0.000 HD
ENDBRANCH  12  29
BRANCH  13  31
ATOM     31  C   UNL     1      -5.655  15.126  23.966  0.00  0.00    +0.000 C 
ATOM     32  O   UNL     1      -6.832  14.979  23.685  0.00  0.00    +0.000 OA
BRANCH  31  33
ATOM     33  O   UNL     1      -5.216  16.167  24.704  0.00  0.00    +0.000 OA
ATOM     34  H   UNL     1      -5.788  16.338  25.484  0.00  0.00    +0.000 HD
ENDBRANCH  31  33
ENDBRANCH  13  31
TORSDOF 7
ENDMDL
MODEL 7
REMARK VINA RESULT:      -8.1      1.554      2.602
REMARK  Name = 
REMARK  8 active torsions:
REMARK  status: ('A' for Active; 'I' for Inactive)
REMARK    1  A    between atoms: C_1  and  C_2
REMARK    2  A    between atoms: C_2  and  C_3
REMARK    3  A    between atoms: C_3  and  C_4
REMARK    4  A    between atoms: C_4  and  C_5
REMARK    5  A    between atoms: C_8  and  C_9
REMARK    6  A    between atoms: C_20  and  O_21
REMARK    7  A    between atoms: C_22  and  C_23
REMARK    8  A    between atoms: C_23  and  O_25
REMARK                            x       y       z     vdW  Elec       q    Type
REMARK                         _______ _______ _______ _____ _____    ______ ____
ROOT
ATOM      1  C   UNL     1       1.987   7.918  19.011  0.00  0.00    +0.000 A 
ATOM      2  C   UNL     1       1.865   7.623  20.378  0.00  0.00    +0.000 A 
ATOM      3  C   UNL     1       1.024   8.337  21.217  0.00  0.00    +0.000 A 
ATOM      4  C   UNL     1       0.250   9.370  20.691  0.00  0.00    +0.000 A 
ATOM      5  C   UNL     1      -0.619  10.287  21.296  0.00  0.00    +0.000 A 
ATOM      6  C   UNL     1      -1.133  11.146  20.339  0.00  0.00    +0.000 A 
ATOM      7  N   UNL     1      -0.556  10.772  19.135  0.00  0.00    +0.000 N 
ATOM      8  C   UNL     1       0.325   9.698  19.339  0.00  0.00    +0.000 A 
ATOM      9  C   UNL     1       1.206   8.991  18.482  0.00  0.00    +0.000 A 
ATOM     10  C   UNL     1      -1.965  12.296  20.747  0.00  0.00    +0.000 A 
ATOM     11  C   UNL     1      -2.996  12.876  20.007  0.00  0.00    +0.000 A 
ATOM     12  C   UNL     1      -3.825  13.849  20.615  0.00  0.00    +0.000 A 
ATOM     13  C   UNL     1      -3.617  14.291  21.933  0.00  0.00    +0.000 A 
ATOM     14  C   UNL     1      -2.575  13.723  22.668  0.00  0.00    +0.000 A 
ATOM     15  C   UNL     1      -1.796  12.714  22.102  0.00  0.00    +0.000 A 
ATOM     16  C   UNL     1      -0.794  11.996  23.001  0.00  0.00    +0.000 C 
ATOM     17  C   UNL     1      -0.882  10.489  22.742  0.00  0.00    +0.000 C 
ATOM     18  H   UNL     1      -0.668  11.253  18.259  0.00  0.00    +0.000 HD
ENDROOT
BRANCH   1  22
ATOM     19  C   UNL     1       4.714   5.427  16.729  0.00  0.00    +0.000 A 
ATOM     20  C   UNL     1       3.716   4.859  17.532  0.00  0.00    +0.000 A 
ATOM     21  C   UNL     1       2.813   5.660  18.241  0.00  0.00    +0.000 A 
ATOM     22  C   UNL     1       2.885   7.057  18.189  0.00  0.00    +0.000 A 
ATOM     23  C   UNL     1       3.910   7.608  17.383  0.00  0.00    +0.000 A 
ATOM     24  C   UNL     1       4.820   6.813  16.678  0.00  0.00    +0.000 A 
BRANCH  19  25
ATOM     25  C   UNL     1       5.582   4.550  15.859  0.00  0.00    +0.000 C 
BRANCH  25  26
ATOM     26  C   UNL     1       7.049   4.894  16.125  0.00  0.00    +0.000 C 
BRANCH  26  28
ATOM     27  C   UNL     1       7.790   5.721  18.352  0.00  0.00    +0.000 C 
ATOM     28  C   UNL     1       7.528   4.481  17.509  0.00  0.00    +0.000 C 
ENDBRANCH  26  28
ENDBRANCH  25  26
ENDBRANCH  19  25
ENDBRANCH   1  22
BRANCH  12  29
ATOM     29  O   UNL     1      -4.897  14.354  19.917  0.00  0.00    +0.000 OA
ATOM     30  H   UNL     1      -4.566  14.897  19.177  0.00  0.00    +0.000 HD
ENDBRANCH  12  29
BRANCH  13  31
ATOM     31  C   UNL     1      -4.450  15.296  22.674  0.00  0.00    +0.000 C 
ATOM     32  O   UNL     1      -4.936  15.083  23.772  0.00  0.00    +0.000 OA
BRANCH  31  33
ATOM     33  O   UNL     1      -4.636  16.462  22.020  0.00  0.00    +0.000 OA
ATOM     34  H   UNL     1      -4.215  17.219  22.481  0.00  0.00    +0.000 HD
ENDBRANCH  31  33
ENDBRANCH  13  31
TORSDOF 7
ENDMDL
MODEL 8
REMARK VINA RESULT:      -8.1      2.360      3.986
REMARK  Name = 
REMARK  8 active torsions:
REMARK  status: ('A' for Active; 'I' for Inactive)
REMARK    1  A    between atoms: C_1  and  C_2
REMARK    2  A    between atoms: C_2  and  C_3
REMARK    3  A    between atoms: C_3  and  C_4
REMARK    4  A    between atoms: C_4  and  C_5
REMARK    5  A    between atoms: C_8  and  C_9
REMARK    6  A    between atoms: C_20  and  O_21
REMARK    7  A    between atoms: C_22  and  C_23
REMARK    8  A    between atoms: C_23  and  O_25
REMARK                            x       y       z     vdW  Elec       q    Type
REMARK                         _______ _______ _______ _____ _____    ______ ____
ROOT
ATOM      1  C   UNL     1       1.211   8.892  19.246  0.00  0.00    +0.000 A 
ATOM      2  C   UNL     1       0.706   9.690  18.208  0.00  0.00    +0.000 A 
ATOM      3  C   UNL     1      -0.200  10.714  18.434  0.00  0.00    +0.000 A 
ATOM      4  C   UNL     1      -0.611  10.986  19.738  0.00  0.00    +0.000 A 
ATOM      5  C   UNL     1      -1.545  11.894  20.253  0.00  0.00    +0.000 A 
ATOM      6  C   UNL     1      -1.618  11.761  21.629  0.00  0.00    +0.000 A 
ATOM      7  N   UNL     1      -0.739  10.742  21.966  0.00  0.00    +0.000 N 
ATOM      8  C   UNL     1      -0.132  10.231  20.808  0.00  0.00    +0.000 A 
ATOM      9  C   UNL     1       0.771   9.163  20.578  0.00  0.00    +0.000 A 
ATOM     10  C   UNL     1      -2.637  12.509  22.393  0.00  0.00    +0.000 A 
ATOM     11  C   UNL     1      -2.517  12.968  23.705  0.00  0.00    +0.000 A 
ATOM     12  C   UNL     1      -3.505  13.834  24.231  0.00  0.00    +0.000 A 
ATOM     13  C   UNL     1      -4.637  14.215  23.490  0.00  0.00    +0.000 A 
ATOM     14  C   UNL     1      -4.766  13.743  22.182  0.00  0.00    +0.000 A 
ATOM     15  C   UNL     1      -3.764  12.945  21.631  0.00  0.00    +0.000 A 
ATOM     16  C   UNL     1      -3.855  12.606  20.147  0.00  0.00    +0.000 C 
ATOM     17  C   UNL     1      -2.474  12.779  19.508  0.00  0.00    +0.000 C 
ATOM     18  H   UNL     1      -0.619  10.354  22.887  0.00  0.00    +0.000 HD
ENDROOT
BRANCH   1  22
ATOM     19  C   UNL     1       4.254   5.946  18.289  0.00  0.00    +0.000 A 
ATOM     20  C   UNL     1       3.484   5.838  19.453  0.00  0.00    +0.000 A 
ATOM     21  C   UNL     1       2.478   6.766  19.746  0.00  0.00    +0.000 A 
ATOM     22  C   UNL     1       2.217   7.848  18.897  0.00  0.00    +0.000 A 
ATOM     23  C   UNL     1       3.018   7.945  17.734  0.00  0.00    +0.000 A 
ATOM     24  C   UNL     1       4.029   7.025  17.439  0.00  0.00    +0.000 A 
BRANCH  19  25
ATOM     25  C   UNL     1       5.230   4.856  17.917  0.00  0.00    +0.000 C 
BRANCH  25  26
ATOM     26  C   UNL     1       6.415   5.489  17.184  0.00  0.00    +0.000 C 
BRANCH  26  28
ATOM     27  C   UNL     1       7.702   7.554  17.707  0.00  0.00    +0.000 C 
ATOM     28  C   UNL     1       7.444   6.110  18.117  0.00  0.00    +0.000 C 
ENDBRANCH  26  28
ENDBRANCH  25  26
ENDBRANCH  19  25
ENDBRANCH   1  22
BRANCH  12  29
ATOM     29  O   UNL     1      -3.341  14.361  25.491  0.00  0.00    +0.000 OA
ATOM     30  H   UNL     1      -4.200  14.701  25.806  0.00  0.00    +0.000 HD
ENDBRANCH  12  29
BRANCH  13  31
ATOM     31  C   UNL     1      -5.725  15.144  23.945  0.00  0.00    +0.000 C 
ATOM     32  O   UNL     1      -5.509  16.249  24.413  0.00  0.00    +0.000 OA
BRANCH  31  33
ATOM     33  O   UNL     1      -6.975  14.652  23.812  0.00  0.00    +0.000 OA
ATOM     34  H   UNL     1      -7.271  14.167  24.612  0.00  0.00    +0.000 HD
ENDBRANCH  31  33
ENDBRANCH  13  31
TORSDOF 7
ENDMDL
MODEL 9
REMARK VINA RESULT:      -8.1      4.535     11.087
REMARK  Name = 
REMARK  8 active torsions:
REMARK  status: ('A' for Active; 'I' for Inactive)
REMARK    1  A    between atoms: C_1  and  C_2
REMARK    2  A    between atoms: C_2  and  C_3
REMARK    3  A    between atoms: C_3  and  C_4
REMARK    4  A    between atoms: C_4  and  C_5
REMARK    5  A    between atoms: C_8  and  C_9
REMARK    6  A    between atoms: C_20  and  O_21
REMARK    7  A    between atoms: C_22  and  C_23
REMARK    8  A    between atoms: C_23  and  O_25
REMARK                            x       y       z     vdW  Elec       q    Type
REMARK                         _______ _______ _______ _____ _____    ______ ____
ROOT
ATOM      1  C   UNL     1      -0.595  10.818  21.296  0.00  0.00    +0.000 A 
ATOM      2  C   UNL     1      -0.512   9.731  22.179  0.00  0.00    +0.000 A 
ATOM      3  C   UNL     1       0.254   8.609  21.904  0.00  0.00    +0.000 A 
ATOM      4  C   UNL     1       0.992   8.560  20.722  0.00  0.00    +0.000 A 
ATOM      5  C   UNL     1       1.785   7.553  20.158  0.00  0.00    +0.000 A 
ATOM      6  C   UNL     1       2.290   7.981  18.941  0.00  0.00    +0.000 A 
ATOM      7  N   UNL     1       1.782   9.256  18.740  0.00  0.00    +0.000 N 
ATOM      8  C   UNL     1       0.954   9.616  19.814  0.00  0.00    +0.000 A 
ATOM      9  C   UNL     1       0.148  10.753  20.076  0.00  0.00    +0.000 A 
ATOM     10  C   UNL     1       3.041   7.045  18.081  0.00  0.00    +0.000 A 
ATOM     11  C   UNL     1       4.068   7.376  17.197  0.00  0.00    +0.000 A 
ATOM     12  C   UNL     1       4.818   6.343  16.585  0.00  0.00    +0.000 A 
ATOM     13  C   UNL     1       4.534   4.983  16.801  0.00  0.00    +0.000 A 
ATOM     14  C   UNL     1       3.495   4.651  17.673  0.00  0.00    +0.000 A 
ATOM     15  C   UNL     1       2.796   5.661  18.334  0.00  0.00    +0.000 A 
ATOM     16  C   UNL     1       1.798   5.250  19.413  0.00  0.00    +0.000 C 
ATOM     17  C   UNL     1       1.978   6.160  20.632  0.00  0.00    +0.000 C 
ATOM     18  H   UNL     1       1.904   9.808  17.908  0.00  0.00    +0.000 HD
ENDROOT
BRANCH   1  22
ATOM     19  C   UNL     1      -2.844  14.337  22.484  0.00  0.00    +0.000 A 
ATOM     20  C   UNL     1      -2.938  13.824  21.184  0.00  0.00    +0.000 A 
ATOM     21  C   UNL     1      -2.242  12.669  20.809  0.00  0.00    +0.000 A 
ATOM     22  C   UNL     1      -1.411  11.995  21.711  0.00  0.00    +0.000 A 
ATOM     23  C   UNL     1      -1.320  12.541  23.014  0.00  0.00    +0.000 A 
ATOM     24  C   UNL     1      -2.007  13.698  23.394  0.00  0.00    +0.000 A 
BRANCH  19  25
ATOM     25  C   UNL     1      -3.714  15.495  22.910  0.00  0.00    +0.000 C 
BRANCH  25  26
ATOM     26  C   UNL     1      -4.628  15.028  24.046  0.00  0.00    +0.000 C 
BRANCH  26  28
ATOM     27  C   UNL     1      -5.593  12.741  24.220  0.00  0.00    +0.000 C 
ATOM     28  C   UNL     1      -5.753  14.115  23.583  0.00  0.00    +0.000 C 
ENDBRANCH  26  28
ENDBRANCH  25  26
ENDBRANCH  19  25
ENDBRANCH   1  22
BRANCH  12  29
ATOM     29  O   UNL     1       5.889   6.668  15.785  0.00  0.00    +0.000 OA
ATOM     30  H   UNL     1       6.198   7.564  16.019  0.00  0.00    +0.000 HD
ENDBRANCH  12  29
BRANCH  13  31
ATOM     31  C   UNL     1       5.281   3.817  16.222  0.00  0.00    +0.000 C 
ATOM     32  O   UNL     1       6.120   3.930  15.345  0.00  0.00    +0.000 OA
BRANCH  31  33
ATOM     33  O   UNL     1       4.938   2.618  16.739  0.00  0.00    +0.000 OA
ATOM     34  H   UNL     1       4.210   2.690  17.394  0.00  0.00    +0.000 HD
ENDBRANCH  31  33
ENDBRANCH  13  31
TORSDOF 7
ENDMDL
