MODEL 1
REMARK VINA RESULT:      -6.6      0.000      0.000
REMARK  Name = 
REMARK  2 active torsions:
REMARK  status: ('A' for Active; 'I' for Inactive)
REMARK    1  A    between atoms: C_4  and  N_5
REMARK    2  A    between atoms: N_6  and  N_7
REMARK                            x       y       z     vdW  Elec       q    Type
REMARK                         _______ _______ _______ _____ _____    ______ ____
ROOT
ATOM      1  N   UNL     1       3.085   5.318  17.732  0.00  0.00    +0.000 NA
ATOM      2  N   UNL     1       3.904   4.601  17.130  0.00  0.00    +0.000 NA
ENDROOT
BRANCH   1   6
ATOM      3  C   UNL     1       1.206   3.233  20.888  0.00  0.00    +0.000 A 
ATOM      4  C   UNL     1       2.087   4.283  21.138  0.00  0.00    +0.000 A 
ATOM      5  C   UNL     1       2.669   4.971  20.071  0.00  0.00    +0.000 A 
ATOM      6  C   UNL     1       2.393   4.619  18.743  0.00  0.00    +0.000 A 
ATOM      7  C   UNL     1       1.472   3.586  18.510  0.00  0.00    +0.000 A 
ATOM      8  C   UNL     1       0.889   2.892  19.574  0.00  0.00    +0.000 A 
ENDBRANCH   1   6
BRANCH   2   9
ATOM      9  N   UNL     1       4.775   5.295  16.347  0.00  0.00    +0.000 N 
ATOM     10  C   UNL     1       5.609   4.708  15.304  0.00  0.00    +0.000 C 
ATOM     11  C   UNL     1       7.080   4.741  15.727  0.00  0.00    +0.000 C 
ATOM     12  O   UNL     1       7.485   6.072  16.103  0.00  0.00    +0.000 OA
ATOM     13  C   UNL     1       6.686   6.557  17.199  0.00  0.00    +0.000 C 
ATOM     14  C   UNL     1       5.203   6.601  16.823  0.00  0.00    +0.000 C 
ENDBRANCH   2   9
TORSDOF 2
ENDMDL
MODEL 2
REMARK VINA RESULT:      -6.6      1.587      2.183
REMARK  Name = 
REMARK  2 active torsions:
REMARK  status: ('A' for Active; 'I' for Inactive)
REMARK    1  A    between atoms: C_4  and  N_5
REMARK    2  A    between atoms: N_6  and  N_7
REMARK                            x       y       z     vdW  Elec       q    Type
REMARK                         _______ _______ _______ _____ _____    ______ ____
ROOT
ATOM      1  N   UNL     1       4.794   3.848  18.531  0.00  0.00    +0.000 NA
ATOM      2  N   UNL     1       5.672   4.445  19.179  0.00  0.00    +0.000 NA
ENDROOT
BRANCH   1   6
ATOM      3  C   UNL     1       1.254   3.629  20.825  0.00  0.00    +0.000 A 
ATOM      4  C   UNL     1       1.976   4.817  20.719  0.00  0.00    +0.000 A 
ATOM      5  C   UNL     1       3.126   4.863  19.929  0.00  0.00    +0.000 A 
ATOM      6  C   UNL     1       3.582   3.729  19.242  0.00  0.00    +0.000 A 
ATOM      7  C   UNL     1       2.820   2.553  19.327  0.00  0.00    +0.000 A 
ATOM      8  C   UNL     1       1.669   2.500  20.120  0.00  0.00    +0.000 A 
ENDBRANCH   1   6
BRANCH   2   9
ATOM      9  N   UNL     1       6.749   4.818  18.435  0.00  0.00    +0.000 N 
ATOM     10  C   UNL     1       7.636   5.932  18.750  0.00  0.00    +0.000 C 
ATOM     11  C   UNL     1       7.446   7.060  17.733  0.00  0.00    +0.000 C 
ATOM     12  O   UNL     1       7.593   6.576  16.384  0.00  0.00    +0.000 OA
ATOM     13  C   UNL     1       6.627   5.544  16.105  0.00  0.00    +0.000 C 
ATOM     14  C   UNL     1       6.798   4.357  17.056  0.00  0.00    +0.000 C 
ENDBRANCH   2   9
TORSDOF 2
ENDMDL
MODEL 3
REMARK VINA RESULT:      -6.5      0.210      1.300
REMARK  Name = 
REMARK  2 active torsions:
REMARK  status: ('A' for Active; 'I' for Inactive)
REMARK    1  A    between atoms: C_4  and  N_5
REMARK    2  A    between atoms: N_6  and  N_7
REMARK                            x       y       z     vdW  Elec       q    Type
REMARK                         _______ _______ _______ _____ _____    ______ ____
ROOT
ATOM      1  N   UNL     1       3.163   5.274  17.766  0.00  0.00    +0.000 NA
ATOM      2  N   UNL     1       3.976   4.579  17.129  0.00  0.00    +0.000 NA
ENDROOT
BRANCH   1   6
ATOM      3  C   UNL     1       1.013   3.099  20.679  0.00  0.00    +0.000 A 
ATOM      4  C   UNL     1       0.854   2.840  19.318  0.00  0.00    +0.000 A 
ATOM      5  C   UNL     1       1.601   3.557  18.383  0.00  0.00    +0.000 A 
ATOM      6  C   UNL     1       2.509   4.547  18.783  0.00  0.00    +0.000 A 
ATOM      7  C   UNL     1       2.687   4.765  20.158  0.00  0.00    +0.000 A 
ATOM      8  C   UNL     1       1.938   4.053  21.099  0.00  0.00    +0.000 A 
ENDBRANCH   1   6
BRANCH   2   9
ATOM      9  N   UNL     1       4.814   5.299  16.336  0.00  0.00    +0.000 N 
ATOM     10  C   UNL     1       5.521   4.773  15.173  0.00  0.00    +0.000 C 
ATOM     11  C   UNL     1       7.023   4.693  15.463  0.00  0.00    +0.000 C 
ATOM     12  O   UNL     1       7.534   5.961  15.917  0.00  0.00    +0.000 OA
ATOM     13  C   UNL     1       6.861   6.380  17.120  0.00  0.00    +0.000 C 
ATOM     14  C   UNL     1       5.357   6.533  16.885  0.00  0.00    +0.000 C 
ENDBRANCH   2   9
TORSDOF 2
ENDMDL
MODEL 4
REMARK VINA RESULT:      -6.5      1.569      2.441
REMARK  Name = 
REMARK  2 active torsions:
REMARK  status: ('A' for Active; 'I' for Inactive)
REMARK    1  A    between atoms: C_4  and  N_5
REMARK    2  A    between atoms: N_6  and  N_7
REMARK                            x       y       z     vdW  Elec       q    Type
REMARK                         _______ _______ _______ _____ _____    ______ ____
ROOT
ATOM      1  N   UNL     1       4.770   3.960  18.602  0.00  0.00    +0.000 NA
ATOM      2  N   UNL     1       5.649   4.602  19.204  0.00  0.00    +0.000 NA
ENDROOT
BRANCH   1   6
ATOM      3  C   UNL     1       1.041   3.673  20.565  0.00  0.00    +0.000 A 
ATOM      4  C   UNL     1       1.583   2.588  19.878  0.00  0.00    +0.000 A 
ATOM      5  C   UNL     1       2.832   2.708  19.264  0.00  0.00    +0.000 A 
ATOM      6  C   UNL     1       3.554   3.907  19.315  0.00  0.00    +0.000 A 
ATOM      7  C   UNL     1       3.011   4.976  20.046  0.00  0.00    +0.000 A 
ATOM      8  C   UNL     1       1.760   4.863  20.659  0.00  0.00    +0.000 A 
ENDBRANCH   1   6
BRANCH   2   9
ATOM      9  N   UNL     1       6.732   4.907  18.438  0.00  0.00    +0.000 N 
ATOM     10  C   UNL     1       7.676   5.983  18.717  0.00  0.00    +0.000 C 
ATOM     11  C   UNL     1       7.525   7.098  17.679  0.00  0.00    +0.000 C 
ATOM     12  O   UNL     1       7.629   6.579  16.338  0.00  0.00    +0.000 OA
ATOM     13  C   UNL     1       6.611   5.589  16.095  0.00  0.00    +0.000 C 
ATOM     14  C   UNL     1       6.739   4.416  17.068  0.00  0.00    +0.000 C 
ENDBRANCH   2   9
TORSDOF 2
ENDMDL
MODEL 5
REMARK VINA RESULT:      -6.4      0.970      1.665
REMARK  Name = 
REMARK  2 active torsions:
REMARK  status: ('A' for Active; 'I' for Inactive)
REMARK    1  A    between atoms: C_4  and  N_5
REMARK    2  A    between atoms: N_6  and  N_7
REMARK                            x       y       z     vdW  Elec       q    Type
REMARK                         _______ _______ _______ _____ _____    ______ ____
ROOT
ATOM      1  N   UNL     1       4.163   5.058  18.579  0.00  0.00    +0.000 NA
ATOM      2  N   UNL     1       4.117   5.168  17.341  0.00  0.00    +0.000 NA
ENDROOT
BRANCH   1   6
ATOM      3  C   UNL     1       0.698   3.074  19.954  0.00  0.00    +0.000 A 
ATOM      4  C   UNL     1       1.163   2.899  18.651  0.00  0.00    +0.000 A 
ATOM      5  C   UNL     1       2.329   3.547  18.238  0.00  0.00    +0.000 A 
ATOM      6  C   UNL     1       3.041   4.385  19.106  0.00  0.00    +0.000 A 
ATOM      7  C   UNL     1       2.581   4.516  20.426  0.00  0.00    +0.000 A 
ATOM      8  C   UNL     1       1.413   3.872  20.844  0.00  0.00    +0.000 A 
ENDBRANCH   1   6
BRANCH   2   9
ATOM      9  N   UNL     1       5.293   5.559  16.777  0.00  0.00    +0.000 N 
ATOM     10  C   UNL     1       5.601   5.484  15.354  0.00  0.00    +0.000 C 
ATOM     11  C   UNL     1       6.664   4.411  15.101  0.00  0.00    +0.000 C 
ATOM     12  O   UNL     1       7.825   4.623  15.928  0.00  0.00    +0.000 OA
ATOM     13  C   UNL     1       7.469   4.591  17.323  0.00  0.00    +0.000 C 
ATOM     14  C   UNL     1       6.446   5.679  17.657  0.00  0.00    +0.000 C 
ENDBRANCH   2   9
TORSDOF 2
ENDMDL
MODEL 6
REMARK VINA RESULT:      -6.4      1.060      1.441
REMARK  Name = 
REMARK  2 active torsions:
REMARK  status: ('A' for Active; 'I' for Inactive)
REMARK    1  A    between atoms: C_4  and  N_5
REMARK    2  A    between atoms: N_6  and  N_7
REMARK                            x       y       z     vdW  Elec       q    Type
REMARK                         _______ _______ _______ _____ _____    ______ ____
ROOT
ATOM      1  N   UNL     1       3.881   3.865  18.075  0.00  0.00    +0.000 NA
ATOM      2  N   UNL     1       4.440   4.963  18.248  0.00  0.00    +0.000 NA
ENDROOT
BRANCH   1   6
ATOM      3  C   UNL     1       1.270   2.989  21.277  0.00  0.00    +0.000 A 
ATOM      4  C   UNL     1       0.810   3.607  20.116  0.00  0.00    +0.000 A 
ATOM      5  C   UNL     1       1.693   3.856  19.064  0.00  0.00    +0.000 A 
ATOM      6  C   UNL     1       3.047   3.505  19.154  0.00  0.00    +0.000 A 
ATOM      7  C   UNL     1       3.484   2.847  20.314  0.00  0.00    +0.000 A 
ATOM      8  C   UNL     1       2.605   2.598  21.372  0.00  0.00    +0.000 A 
ENDBRANCH   1   6
BRANCH   2   9
ATOM      9  N   UNL     1       5.026   5.466  17.127  0.00  0.00    +0.000 N 
ATOM     10  C   UNL     1       5.395   4.682  15.954  0.00  0.00    +0.000 C 
ATOM     11  C   UNL     1       6.919   4.587  15.841  0.00  0.00    +0.000 C 
ATOM     12  O   UNL     1       7.526   5.894  15.870  0.00  0.00    +0.000 OA
ATOM     13  C   UNL     1       7.201   6.579  17.095  0.00  0.00    +0.000 C 
ATOM     14  C   UNL     1       5.689   6.757  17.244  0.00  0.00    +0.000 C 
ENDBRANCH   2   9
TORSDOF 2
ENDMDL
MODEL 7
REMARK VINA RESULT:      -6.3      1.011      1.061
REMARK  Name = 
REMARK  2 active torsions:
REMARK  status: ('A' for Active; 'I' for Inactive)
REMARK    1  A    between atoms: C_4  and  N_5
REMARK    2  A    between atoms: N_6  and  N_7
REMARK                            x       y       z     vdW  Elec       q    Type
REMARK                         _______ _______ _______ _____ _____    ______ ____
ROOT
ATOM      1  N   UNL     1       3.681   4.005  17.964  0.00  0.00    +0.000 NA
ATOM      2  N   UNL     1       4.422   4.979  18.188  0.00  0.00    +0.000 NA
ENDROOT
BRANCH   1   6
ATOM      3  C   UNL     1       1.330   2.862  21.281  0.00  0.00    +0.000 A 
ATOM      4  C   UNL     1       2.707   2.647  21.262  0.00  0.00    +0.000 A 
ATOM      5  C   UNL     1       3.459   3.064  20.162  0.00  0.00    +0.000 A 
ATOM      6  C   UNL     1       2.855   3.688  19.063  0.00  0.00    +0.000 A 
ATOM      7  C   UNL     1       1.474   3.933  19.118  0.00  0.00    +0.000 A 
ATOM      8  C   UNL     1       0.715   3.515  20.215  0.00  0.00    +0.000 A 
ENDBRANCH   1   6
BRANCH   2   9
ATOM      9  N   UNL     1       5.026   5.480  17.077  0.00  0.00    +0.000 N 
ATOM     10  C   UNL     1       5.392   4.699  15.901  0.00  0.00    +0.000 C 
ATOM     11  C   UNL     1       6.915   4.581  15.800  0.00  0.00    +0.000 C 
ATOM     12  O   UNL     1       7.542   5.878  15.844  0.00  0.00    +0.000 OA
ATOM     13  C   UNL     1       7.218   6.560  17.070  0.00  0.00    +0.000 C 
ATOM     14  C   UNL     1       5.708   6.760  17.209  0.00  0.00    +0.000 C 
ENDBRANCH   2   9
TORSDOF 2
ENDMDL
MODEL 8
REMARK VINA RESULT:      -6.3      2.876      5.861
REMARK  Name = 
REMARK  2 active torsions:
REMARK  status: ('A' for Active; 'I' for Inactive)
REMARK    1  A    between atoms: C_4  and  N_5
REMARK    2  A    between atoms: N_6  and  N_7
REMARK                            x       y       z     vdW  Elec       q    Type
REMARK                         _______ _______ _______ _____ _____    ______ ____
ROOT
ATOM      1  N   UNL     1       5.433   4.127  19.275  0.00  0.00    +0.000 NA
ATOM      2  N   UNL     1       4.761   3.553  18.400  0.00  0.00    +0.000 NA
ENDROOT
BRANCH   1   6
ATOM      3  C   UNL     1       7.469   7.407  17.562  0.00  0.00    +0.000 A 
ATOM      4  C   UNL     1       6.195   7.039  17.129  0.00  0.00    +0.000 A 
ATOM      5  C   UNL     1       5.538   5.967  17.737  0.00  0.00    +0.000 A 
ATOM      6  C   UNL     1       6.139   5.240  18.774  0.00  0.00    +0.000 A 
ATOM      7  C   UNL     1       7.403   5.651  19.224  0.00  0.00    +0.000 A 
ATOM      8  C   UNL     1       8.068   6.720  18.616  0.00  0.00    +0.000 A 
ENDBRANCH   1   6
BRANCH   2   9
ATOM      9  N   UNL     1       3.864   2.656  18.893  0.00  0.00    +0.000 N 
ATOM     10  C   UNL     1       2.770   2.063  18.131  0.00  0.00    +0.000 C 
ATOM     11  C   UNL     1       1.427   2.600  18.633  0.00  0.00    +0.000 C 
ATOM     12  O   UNL     1       1.294   2.421  20.057  0.00  0.00    +0.000 OA
ATOM     13  C   UNL     1       2.349   3.108  20.757  0.00  0.00    +0.000 C 
ATOM     14  C   UNL     1       3.723   2.580  20.340  0.00  0.00    +0.000 C 
ENDBRANCH   2   9
TORSDOF 2
ENDMDL
MODEL 9
REMARK VINA RESULT:      -6.3      1.067      1.637
REMARK  Name = 
REMARK  2 active torsions:
REMARK  status: ('A' for Active; 'I' for Inactive)
REMARK    1  A    between atoms: C_4  and  N_5
REMARK    2  A    between atoms: N_6  and  N_7
REMARK                            x       y       z     vdW  Elec       q    Type
REMARK                         _______ _______ _______ _____ _____    ______ ____
ROOT
ATOM      1  N   UNL     1       4.120   4.640  17.903  0.00  0.00    +0.000 NA
ATOM      2  N   UNL     1       4.636   3.678  17.306  0.00  0.00    +0.000 NA
ENDROOT
BRANCH   1   6
ATOM      3  C   UNL     1       0.785   3.569  20.262  0.00  0.00    +0.000 A 
ATOM      4  C   UNL     1       1.645   4.596  20.648  0.00  0.00    +0.000 A 
ATOM      5  C   UNL     1       2.722   4.944  19.831  0.00  0.00    +0.000 A 
ATOM      6  C   UNL     1       2.966   4.272  18.626  0.00  0.00    +0.000 A 
ATOM      7  C   UNL     1       2.066   3.269  18.233  0.00  0.00    +0.000 A 
ATOM      8  C   UNL     1       0.988   2.914  19.049  0.00  0.00    +0.000 A 
ENDBRANCH   1   6
BRANCH   2   9
ATOM      9  N   UNL     1       5.887   3.931  16.831  0.00  0.00    +0.000 N 
ATOM     10  C   UNL     1       6.912   4.689  17.539  0.00  0.00    +0.000 C 
ATOM     11  C   UNL     1       7.153   6.029  16.838  0.00  0.00    +0.000 C 
ATOM     12  O   UNL     1       7.444   5.841  15.440  0.00  0.00    +0.000 OA
ATOM     13  C   UNL     1       6.354   5.171  14.778  0.00  0.00    +0.000 C 
ATOM     14  C   UNL     1       6.094   3.796  15.397  0.00  0.00    +0.000 C 
ENDBRANCH   2   9
TORSDOF 2
ENDMDL
