MODEL 1
REMARK VINA RESULT:     -10.3      0.000      0.000
REMARK  Name = 
REMARK  15 active torsions:
REMARK  status: ('A' for Active; 'I' for Inactive)
REMARK    1  A    between atoms: C_1  and  C_2
REMARK    2  A    between atoms: C_4  and  C_5
REMARK    3  A    between atoms: C_4  and  O_6
REMARK    4  A    between atoms: C_7  and  C_8
REMARK    5  A    between atoms: C_10  and  C_11
REMARK    6  A    between atoms: C_11  and  C_12
REMARK    7  A    between atoms: C_13  and  C_14
REMARK    8  A    between atoms: C_15  and  C_16
REMARK    9  A    between atoms: C_17  and  C_18
REMARK   10  A    between atoms: C_19  and  C_20
REMARK   11  A    between atoms: C_20  and  C_21
REMARK   12  A    between atoms: C_22  and  C_23
REMARK   13  A    between atoms: C_23  and  C_24
REMARK   14  A    between atoms: C_29  and  C_30
REMARK   15  A    between atoms: C_33  and  C_34
REMARK                            x       y       z     vdW  Elec       q    Type
REMARK                         _______ _______ _______ _____ _____    ______ ____
ROOT
ATOM      1  C   UNL     1       8.533   8.570  18.617  0.00  0.00    +0.000 C 
ATOM      2  C   UNL     1       7.720   8.367  17.572  0.00  0.00    +0.000 C 
ENDROOT
BRANCH   1   4
ATOM      3  C   UNL     1       9.203  10.859  18.178  0.00  0.00    +0.000 C 
ATOM      4  C   UNL     1       8.979   9.875  19.062  0.00  0.00    +0.000 C 
BRANCH   3   7
ATOM      5  C   UNL     1      10.834  12.574  18.965  0.00  0.00    +0.000 C 
ATOM      6  C   UNL     1      11.984  11.625  19.198  0.00  0.00    +0.000 C 
ATOM      7  C   UNL     1       9.607  12.206  18.524  0.00  0.00    +0.000 C 
BRANCH   5  16
ATOM      8  C   UNL     1      10.185  14.145  21.614  0.00  0.00    +0.000 C 
ATOM      9  C   UNL     1      10.155  14.656  20.199  0.00  0.00    +0.000 C 
ATOM     10  C   UNL     1       9.279  15.597  19.824  0.00  0.00    +0.000 C 
ATOM     11  C   UNL     1       9.232  16.157  18.442  0.00  0.00    +0.000 C 
ATOM     12  C   UNL     1       7.882  15.816  17.793  0.00  0.00    +0.000 C 
ATOM     13  C   UNL     1      10.408  15.692  17.518  0.00  0.00    +0.000 C 
ATOM     14  C   UNL     1      11.305  16.846  17.054  0.00  0.00    +0.000 C 
ATOM     15  O   UNL     1      11.324  14.705  18.000  0.00  0.00    +0.000 OA
ATOM     16  C   UNL     1      11.147  14.040  19.243  0.00  0.00    +0.000 C 
BRANCH  11  17
ATOM     17  O   UNL     1       9.230  17.581  18.613  0.00  0.00    +0.000 OA
ATOM     18  H   UNL     1       8.575  17.940  17.990  0.00  0.00    +0.000 HD
ENDBRANCH  11  17
ENDBRANCH   5  16
ENDBRANCH   3   7
ENDBRANCH   1   4
BRANCH   2  19
ATOM     19  C   UNL     1       7.361   7.038  17.118  0.00  0.00    +0.000 C 
ATOM     20  C   UNL     1       6.090   6.672  16.891  0.00  0.00    +0.000 C 
BRANCH  20  21
ATOM     21  C   UNL     1       5.646   5.398  16.348  0.00  0.00    +0.000 C 
ATOM     22  C   UNL     1       6.031   5.069  14.920  0.00  0.00    +0.000 C 
ATOM     23  C   UNL     1       4.871   4.505  17.003  0.00  0.00    +0.000 C 
BRANCH  23  24
ATOM     24  C   UNL     1       4.349   4.446  18.444  0.00  0.00    +0.000 C 
ATOM     25  C   UNL     1       5.478   4.895  19.400  0.00  0.00    +0.000 C 
ATOM     26  C   UNL     1       3.848   3.014  18.821  0.00  0.00    +0.000 C 
ATOM     27  O   UNL     1       3.328   3.193  20.154  0.00  0.00    +0.000 OA
ATOM     28  C   UNL     1       2.741   4.445  20.156  0.00  0.00    +0.000 C 
ATOM     29  O   UNL     1       2.183   4.951  21.110  0.00  0.00    +0.000 OA
ATOM     30  C   UNL     1       2.935   5.008  18.758  0.00  0.00    +0.000 C 
ATOM     31  C   UNL     1       2.637   6.479  18.647  0.00  0.00    +0.000 C 
ATOM     32  C   UNL     1       2.067   4.110  17.884  0.00  0.00    +0.000 C 
ATOM     33  O   UNL     1       1.052   4.445  17.287  0.00  0.00    +0.000 OA
ATOM     34  C   UNL     1       2.652   2.711  17.879  0.00  0.00    +0.000 C 
ATOM     35  C   UNL     1       1.672   1.673  18.390  0.00  0.00    +0.000 C 
ENDBRANCH  23  24
ENDBRANCH  20  21
ENDBRANCH   2  19
TORSDOF 7
ENDMDL
MODEL 2
REMARK VINA RESULT:     -10.0      0.950      1.414
REMARK  Name = 
REMARK  15 active torsions:
REMARK  status: ('A' for Active; 'I' for Inactive)
REMARK    1  A    between atoms: C_1  and  C_2
REMARK    2  A    between atoms: C_4  and  C_5
REMARK    3  A    between atoms: C_4  and  O_6
REMARK    4  A    between atoms: C_7  and  C_8
REMARK    5  A    between atoms: C_10  and  C_11
REMARK    6  A    between atoms: C_11  and  C_12
REMARK    7  A    between atoms: C_13  and  C_14
REMARK    8  A    between atoms: C_15  and  C_16
REMARK    9  A    between atoms: C_17  and  C_18
REMARK   10  A    between atoms: C_19  and  C_20
REMARK   11  A    between atoms: C_20  and  C_21
REMARK   12  A    between atoms: C_22  and  C_23
REMARK   13  A    between atoms: C_23  and  C_24
REMARK   14  A    between atoms: C_29  and  C_30
REMARK   15  A    between atoms: C_33  and  C_34
REMARK                            x       y       z     vdW  Elec       q    Type
REMARK                         _______ _______ _______ _____ _____    ______ ____
ROOT
ATOM      1  C   UNL     1       7.916   8.746  17.872  0.00  0.00    +0.000 C 
ATOM      2  C   UNL     1       8.032   7.503  18.357  0.00  0.00    +0.000 C 
ENDROOT
BRANCH   1   4
ATOM      3  C   UNL     1       8.536  11.089  17.800  0.00  0.00    +0.000 C 
ATOM      4  C   UNL     1       8.585   9.905  18.429  0.00  0.00    +0.000 C 
BRANCH   3   7
ATOM      5  C   UNL     1      10.461  12.561  18.394  0.00  0.00    +0.000 C 
ATOM      6  C   UNL     1      11.548  11.579  18.029  0.00  0.00    +0.000 C 
ATOM      7  C   UNL     1       9.133  12.313  18.295  0.00  0.00    +0.000 C 
BRANCH   5  16
ATOM      8  C   UNL     1      10.254  13.674  21.330  0.00  0.00    +0.000 C 
ATOM      9  C   UNL     1      10.140  14.435  20.037  0.00  0.00    +0.000 C 
ATOM     10  C   UNL     1       9.341  15.505  19.934  0.00  0.00    +0.000 C 
ATOM     11  C   UNL     1       9.219  16.310  18.684  0.00  0.00    +0.000 C 
ATOM     12  C   UNL     1       7.783  16.216  18.148  0.00  0.00    +0.000 C 
ATOM     13  C   UNL     1      10.240  15.916  17.563  0.00  0.00    +0.000 C 
ATOM     14  C   UNL     1      11.209  17.049  17.203  0.00  0.00    +0.000 C 
ATOM     15  O   UNL     1      11.085  14.779  17.758  0.00  0.00    +0.000 OA
ATOM     16  C   UNL     1      10.960  13.917  18.880  0.00  0.00    +0.000 C 
BRANCH  11  17
ATOM     17  O   UNL     1       9.391  17.672  19.096  0.00  0.00    +0.000 OA
ATOM     18  H   UNL     1       8.509  18.011  19.327  0.00  0.00    +0.000 HD
ENDBRANCH  11  17
ENDBRANCH   5  16
ENDBRANCH   3   7
ENDBRANCH   1   4
BRANCH   2  19
ATOM     19  C   UNL     1       7.283   6.388  17.813  0.00  0.00    +0.000 C 
ATOM     20  C   UNL     1       6.292   6.550  16.922  0.00  0.00    +0.000 C 
BRANCH  20  21
ATOM     21  C   UNL     1       5.554   5.490  16.255  0.00  0.00    +0.000 C 
ATOM     22  C   UNL     1       6.100   4.971  14.939  0.00  0.00    +0.000 C 
ATOM     23  C   UNL     1       4.387   4.965  16.691  0.00  0.00    +0.000 C 
BRANCH  23  24
ATOM     24  C   UNL     1       3.575   5.171  17.976  0.00  0.00    +0.000 C 
ATOM     25  C   UNL     1       3.291   6.681  18.147  0.00  0.00    +0.000 C 
ATOM     26  C   UNL     1       4.320   4.608  19.229  0.00  0.00    +0.000 C 
ATOM     27  O   UNL     1       3.370   4.816  20.293  0.00  0.00    +0.000 OA
ATOM     28  C   UNL     1       2.129   4.581  19.730  0.00  0.00    +0.000 C 
ATOM     29  O   UNL     1       1.071   4.651  20.324  0.00  0.00    +0.000 OA
ATOM     30  C   UNL     1       2.383   4.221  18.276  0.00  0.00    +0.000 C 
ATOM     31  C   UNL     1       1.144   4.230  17.421  0.00  0.00    +0.000 C 
ATOM     32  C   UNL     1       3.098   2.877  18.356  0.00  0.00    +0.000 C 
ATOM     33  O   UNL     1       2.657   1.800  17.978  0.00  0.00    +0.000 OA
ATOM     34  C   UNL     1       4.455   3.078  19.002  0.00  0.00    +0.000 C 
ATOM     35  C   UNL     1       4.624   2.248  20.261  0.00  0.00    +0.000 C 
ENDBRANCH  23  24
ENDBRANCH  20  21
ENDBRANCH   2  19
TORSDOF 7
ENDMDL
MODEL 3
REMARK VINA RESULT:      -9.4      1.261      1.940
REMARK  Name = 
REMARK  15 active torsions:
REMARK  status: ('A' for Active; 'I' for Inactive)
REMARK    1  A    between atoms: C_1  and  C_2
REMARK    2  A    between atoms: C_4  and  C_5
REMARK    3  A    between atoms: C_4  and  O_6
REMARK    4  A    between atoms: C_7  and  C_8
REMARK    5  A    between atoms: C_10  and  C_11
REMARK    6  A    between atoms: C_11  and  C_12
REMARK    7  A    between atoms: C_13  and  C_14
REMARK    8  A    between atoms: C_15  and  C_16
REMARK    9  A    between atoms: C_17  and  C_18
REMARK   10  A    between atoms: C_19  and  C_20
REMARK   11  A    between atoms: C_20  and  C_21
REMARK   12  A    between atoms: C_22  and  C_23
REMARK   13  A    between atoms: C_23  and  C_24
REMARK   14  A    between atoms: C_29  and  C_30
REMARK   15  A    between atoms: C_33  and  C_34
REMARK                            x       y       z     vdW  Elec       q    Type
REMARK                         _______ _______ _______ _____ _____    ______ ____
ROOT
ATOM      1  C   UNL     1       7.846   7.707  18.016  0.00  0.00    +0.000 C 
ATOM      2  C   UNL     1       6.696   7.887  17.353  0.00  0.00    +0.000 C 
ENDROOT
BRANCH   1   4
ATOM      3  C   UNL     1       8.704   9.972  17.897  0.00  0.00    +0.000 C 
ATOM      4  C   UNL     1       8.675   8.783  18.519  0.00  0.00    +0.000 C 
BRANCH   3   7
ATOM      5  C   UNL     1       9.155  12.417  18.097  0.00  0.00    +0.000 C 
ATOM      6  C   UNL     1       7.973  12.878  17.279  0.00  0.00    +0.000 C 
ATOM      7  C   UNL     1       9.463  11.121  18.345  0.00  0.00    +0.000 C 
BRANCH   5  16
ATOM      8  C   UNL     1      11.604  12.075  20.043  0.00  0.00    +0.000 C 
ATOM      9  C   UNL     1      10.577  13.174  20.025  0.00  0.00    +0.000 C 
ATOM     10  C   UNL     1      10.192  13.777  21.157  0.00  0.00    +0.000 C 
ATOM     11  C   UNL     1       9.202  14.893  21.187  0.00  0.00    +0.000 C 
ATOM     12  C   UNL     1       7.955  14.456  21.970  0.00  0.00    +0.000 C 
ATOM     13  C   UNL     1       8.791  15.427  19.773  0.00  0.00    +0.000 C 
ATOM     14  C   UNL     1       9.179  16.892  19.544  0.00  0.00    +0.000 C 
ATOM     15  O   UNL     1       9.268  14.749  18.607  0.00  0.00    +0.000 OA
ATOM     16  C   UNL     1      10.009  13.539  18.675  0.00  0.00    +0.000 C 
BRANCH  11  17
ATOM     17  O   UNL     1       9.816  15.919  21.978  0.00  0.00    +0.000 OA
ATOM     18  H   UNL     1      10.216  15.481  22.749  0.00  0.00    +0.000 HD
ENDBRANCH  11  17
ENDBRANCH   5  16
ENDBRANCH   3   7
ENDBRANCH   1   4
BRANCH   2  19
ATOM     19  C   UNL     1       5.939   6.780  16.803  0.00  0.00    +0.000 C 
ATOM     20  C   UNL     1       6.360   5.508  16.882  0.00  0.00    +0.000 C 
BRANCH  20  21
ATOM     21  C   UNL     1       5.626   4.332  16.444  0.00  0.00    +0.000 C 
ATOM     22  C   UNL     1       5.996   3.729  15.104  0.00  0.00    +0.000 C 
ATOM     23  C   UNL     1       4.600   3.764  17.118  0.00  0.00    +0.000 C 
BRANCH  23  24
ATOM     24  C   UNL     1       3.994   4.033  18.500  0.00  0.00    +0.000 C 
ATOM     25  C   UNL     1       5.134   4.390  19.482  0.00  0.00    +0.000 C 
ATOM     26  C   UNL     1       3.183   2.805  19.027  0.00  0.00    +0.000 C 
ATOM     27  O   UNL     1       2.634   3.287  20.270  0.00  0.00    +0.000 OA
ATOM     28  C   UNL     1       2.324   4.615  20.046  0.00  0.00    +0.000 C 
ATOM     29  O   UNL     1       1.829   5.362  20.867  0.00  0.00    +0.000 OA
ATOM     30  C   UNL     1       2.713   4.906  18.607  0.00  0.00    +0.000 C 
ATOM     31  C   UNL     1       2.738   6.372  18.267  0.00  0.00    +0.000 C 
ATOM     32  C   UNL     1       1.729   4.075  17.791  0.00  0.00    +0.000 C 
ATOM     33  O   UNL     1       0.844   4.509  17.066  0.00  0.00    +0.000 OA
ATOM     34  C   UNL     1       2.007   2.604  18.033  0.00  0.00    +0.000 C 
ATOM     35  C   UNL     1       0.802   1.872  18.593  0.00  0.00    +0.000 C 
ENDBRANCH  23  24
ENDBRANCH  20  21
ENDBRANCH   2  19
TORSDOF 7
ENDMDL
MODEL 4
REMARK VINA RESULT:      -9.3      1.154      1.674
REMARK  Name = 
REMARK  15 active torsions:
REMARK  status: ('A' for Active; 'I' for Inactive)
REMARK    1  A    between atoms: C_1  and  C_2
REMARK    2  A    between atoms: C_4  and  C_5
REMARK    3  A    between atoms: C_4  and  O_6
REMARK    4  A    between atoms: C_7  and  C_8
REMARK    5  A    between atoms: C_10  and  C_11
REMARK    6  A    between atoms: C_11  and  C_12
REMARK    7  A    between atoms: C_13  and  C_14
REMARK    8  A    between atoms: C_15  and  C_16
REMARK    9  A    between atoms: C_17  and  C_18
REMARK   10  A    between atoms: C_19  and  C_20
REMARK   11  A    between atoms: C_20  and  C_21
REMARK   12  A    between atoms: C_22  and  C_23
REMARK   13  A    between atoms: C_23  and  C_24
REMARK   14  A    between atoms: C_29  and  C_30
REMARK   15  A    between atoms: C_33  and  C_34
REMARK                            x       y       z     vdW  Elec       q    Type
REMARK                         _______ _______ _______ _____ _____    ______ ____
ROOT
ATOM      1  C   UNL     1       7.573   8.326  17.778  0.00  0.00    +0.000 C 
ATOM      2  C   UNL     1       7.969   7.278  17.046  0.00  0.00    +0.000 C 
ENDROOT
BRANCH   1   4
ATOM      3  C   UNL     1       9.077   9.714  19.080  0.00  0.00    +0.000 C 
ATOM      4  C   UNL     1       8.354   9.533  17.964  0.00  0.00    +0.000 C 
BRANCH   3   7
ATOM      5  C   UNL     1       9.756  12.100  18.817  0.00  0.00    +0.000 C 
ATOM      6  C   UNL     1       8.669  12.483  17.844  0.00  0.00    +0.000 C 
ATOM      7  C   UNL     1       9.922  10.861  19.340  0.00  0.00    +0.000 C 
BRANCH   5  16
ATOM      8  C   UNL     1       9.789  13.587  21.591  0.00  0.00    +0.000 C 
ATOM      9  C   UNL     1      10.045  14.163  20.225  0.00  0.00    +0.000 C 
ATOM     10  C   UNL     1       9.704  15.424  19.932  0.00  0.00    +0.000 C 
ATOM     11  C   UNL     1       9.966  16.049  18.603  0.00  0.00    +0.000 C 
ATOM     12  C   UNL     1       8.634  16.407  17.929  0.00  0.00    +0.000 C 
ATOM     13  C   UNL     1      10.839  15.173  17.641  0.00  0.00    +0.000 C 
ATOM     14  C   UNL     1      12.177  15.826  17.276  0.00  0.00    +0.000 C 
ATOM     15  O   UNL     1      11.191  13.844  18.036  0.00  0.00    +0.000 OA
ATOM     16  C   UNL     1      10.687  13.239  19.218  0.00  0.00    +0.000 C 
BRANCH  11  17
ATOM     17  O   UNL     1      10.602  17.301  18.895  0.00  0.00    +0.000 OA
ATOM     18  H   UNL     1      10.576  17.828  18.078  0.00  0.00    +0.000 HD
ENDBRANCH  11  17
ENDBRANCH   5  16
ENDBRANCH   3   7
ENDBRANCH   1   4
BRANCH   2  19
ATOM     19  C   UNL     1       7.186   6.062  16.951  0.00  0.00    +0.000 C 
ATOM     20  C   UNL     1       6.204   5.904  16.049  0.00  0.00    +0.000 C 
BRANCH  20  21
ATOM     21  C   UNL     1       5.434   4.692  15.820  0.00  0.00    +0.000 C 
ATOM     22  C   UNL     1       5.822   3.823  14.640  0.00  0.00    +0.000 C 
ATOM     23  C   UNL     1       4.363   4.305  16.549  0.00  0.00    +0.000 C 
BRANCH  23  24
ATOM     24  C   UNL     1       3.723   4.863  17.826  0.00  0.00    +0.000 C 
ATOM     25  C   UNL     1       3.693   6.406  17.733  0.00  0.00    +0.000 C 
ATOM     26  C   UNL     1       4.493   4.406  19.108  0.00  0.00    +0.000 C 
ATOM     27  O   UNL     1       3.695   4.952  20.177  0.00  0.00    +0.000 OA
ATOM     28  C   UNL     1       2.384   4.837  19.755  0.00  0.00    +0.000 C 
ATOM     29  O   UNL     1       1.412   5.186  20.397  0.00  0.00    +0.000 OA
ATOM     30  C   UNL     1       2.434   4.195  18.379  0.00  0.00    +0.000 C 
ATOM     31  C   UNL     1       1.134   4.266  17.626  0.00  0.00    +0.000 C 
ATOM     32  C   UNL     1       2.938   2.783  18.658  0.00  0.00    +0.000 C 
ATOM     33  O   UNL     1       2.301   1.748  18.517  0.00  0.00    +0.000 OA
ATOM     34  C   UNL     1       4.367   2.860  19.160  0.00  0.00    +0.000 C 
ATOM     35  C   UNL     1       4.530   2.242  20.535  0.00  0.00    +0.000 C 
ENDBRANCH  23  24
ENDBRANCH  20  21
ENDBRANCH   2  19
TORSDOF 7
ENDMDL
MODEL 5
REMARK VINA RESULT:      -9.1      0.925      1.173
REMARK  Name = 
REMARK  15 active torsions:
REMARK  status: ('A' for Active; 'I' for Inactive)
REMARK    1  A    between atoms: C_1  and  C_2
REMARK    2  A    between atoms: C_4  and  C_5
REMARK    3  A    between atoms: C_4  and  O_6
REMARK    4  A    between atoms: C_7  and  C_8
REMARK    5  A    between atoms: C_10  and  C_11
REMARK    6  A    between atoms: C_11  and  C_12
REMARK    7  A    between atoms: C_13  and  C_14
REMARK    8  A    between atoms: C_15  and  C_16
REMARK    9  A    between atoms: C_17  and  C_18
REMARK   10  A    between atoms: C_19  and  C_20
REMARK   11  A    between atoms: C_20  and  C_21
REMARK   12  A    between atoms: C_22  and  C_23
REMARK   13  A    between atoms: C_23  and  C_24
REMARK   14  A    between atoms: C_29  and  C_30
REMARK   15  A    between atoms: C_33  and  C_34
REMARK                            x       y       z     vdW  Elec       q    Type
REMARK                         _______ _______ _______ _____ _____    ______ ____
ROOT
ATOM      1  C   UNL     1       8.178   7.999  18.597  0.00  0.00    +0.000 C 
ATOM      2  C   UNL     1       8.063   7.559  17.338  0.00  0.00    +0.000 C 
ENDROOT
BRANCH   1   4
ATOM      3  C   UNL     1       8.836  10.307  18.249  0.00  0.00    +0.000 C 
ATOM      4  C   UNL     1       8.915   9.186  18.982  0.00  0.00    +0.000 C 
BRANCH   3   7
ATOM      5  C   UNL     1       9.048  12.793  18.251  0.00  0.00    +0.000 C 
ATOM      6  C   UNL     1       7.789  13.074  17.468  0.00  0.00    +0.000 C 
ATOM      7  C   UNL     1       9.496  11.555  18.573  0.00  0.00    +0.000 C 
BRANCH   5  16
ATOM      8  C   UNL     1       9.460  13.745  21.222  0.00  0.00    +0.000 C 
ATOM      9  C   UNL     1       9.266  14.591  19.993  0.00  0.00    +0.000 C 
ATOM     10  C   UNL     1       8.629  15.768  20.059  0.00  0.00    +0.000 C 
ATOM     11  C   UNL     1       8.440  16.655  18.875  0.00  0.00    +0.000 C 
ATOM     12  C   UNL     1       6.941  16.799  18.572  0.00  0.00    +0.000 C 
ATOM     13  C   UNL     1       9.207  16.189  17.591  0.00  0.00    +0.000 C 
ATOM     14  C   UNL     1      10.268  17.193  17.123  0.00  0.00    +0.000 C 
ATOM     15  O   UNL     1       9.892  14.934  17.606  0.00  0.00    +0.000 OA
ATOM     16  C   UNL     1       9.812  14.032  18.701  0.00  0.00    +0.000 C 
BRANCH  11  17
ATOM     17  O   UNL     1       8.875  17.952  19.305  0.00  0.00    +0.000 OA
ATOM     18  H   UNL     1       8.594  18.585  18.621  0.00  0.00    +0.000 HD
ENDBRANCH  11  17
ENDBRANCH   5  16
ENDBRANCH   3   7
ENDBRANCH   1   4
BRANCH   2  19
ATOM     19  C   UNL     1       7.378   6.324  17.010  0.00  0.00    +0.000 C 
ATOM     20  C   UNL     1       6.151   6.301  16.466  0.00  0.00    +0.000 C 
BRANCH  20  21
ATOM     21  C   UNL     1       5.430   5.120  16.021  0.00  0.00    +0.000 C 
ATOM     22  C   UNL     1       5.670   4.642  14.602  0.00  0.00    +0.000 C 
ATOM     23  C   UNL     1       4.520   4.444  16.757  0.00  0.00    +0.000 C 
BRANCH  23  24
ATOM     24  C   UNL     1       4.067   4.572  18.217  0.00  0.00    +0.000 C 
ATOM     25  C   UNL     1       5.260   5.071  19.065  0.00  0.00    +0.000 C 
ATOM     26  C   UNL     1       3.525   3.218  18.777  0.00  0.00    +0.000 C 
ATOM     27  O   UNL     1       3.079   3.570  20.102  0.00  0.00    +0.000 OA
ATOM     28  C   UNL     1       2.547   4.840  19.987  0.00  0.00    +0.000 C 
ATOM     29  O   UNL     1       2.058   5.476  20.900  0.00  0.00    +0.000 OA
ATOM     30  C   UNL     1       2.696   5.233  18.527  0.00  0.00    +0.000 C 
ATOM     31  C   UNL     1       2.456   6.695  18.262  0.00  0.00    +0.000 C 
ATOM     32  C   UNL     1       1.748   4.286  17.800  0.00  0.00    +0.000 C 
ATOM     33  O   UNL     1       0.721   4.600  17.214  0.00  0.00    +0.000 OA
ATOM     34  C   UNL     1       2.272   2.869  17.929  0.00  0.00    +0.000 C 
ATOM     35  C   UNL     1       1.274   1.943  18.598  0.00  0.00    +0.000 C 
ENDBRANCH  23  24
ENDBRANCH  20  21
ENDBRANCH   2  19
TORSDOF 7
ENDMDL
MODEL 6
REMARK VINA RESULT:      -9.0      6.964     11.952
REMARK  Name = 
REMARK  15 active torsions:
REMARK  status: ('A' for Active; 'I' for Inactive)
REMARK    1  A    between atoms: C_1  and  C_2
REMARK    2  A    between atoms: C_4  and  C_5
REMARK    3  A    between atoms: C_4  and  O_6
REMARK    4  A    between atoms: C_7  and  C_8
REMARK    5  A    between atoms: C_10  and  C_11
REMARK    6  A    between atoms: C_11  and  C_12
REMARK    7  A    between atoms: C_13  and  C_14
REMARK    8  A    between atoms: C_15  and  C_16
REMARK    9  A    between atoms: C_17  and  C_18
REMARK   10  A    between atoms: C_19  and  C_20
REMARK   11  A    between atoms: C_20  and  C_21
REMARK   12  A    between atoms: C_22  and  C_23
REMARK   13  A    between atoms: C_23  and  C_24
REMARK   14  A    between atoms: C_29  and  C_30
REMARK   15  A    between atoms: C_33  and  C_34
REMARK                            x       y       z     vdW  Elec       q    Type
REMARK                         _______ _______ _______ _____ _____    ______ ____
ROOT
ATOM      1  C   UNL     1       1.522   9.705  18.125  0.00  0.00    +0.000 C 
ATOM      2  C   UNL     1       0.495  10.238  18.801  0.00  0.00    +0.000 C 
ENDROOT
BRANCH   1   4
ATOM      3  C   UNL     1       3.118   7.915  17.775  0.00  0.00    +0.000 C 
ATOM      4  C   UNL     1       1.906   8.310  18.191  0.00  0.00    +0.000 C 
BRANCH   3   7
ATOM      5  C   UNL     1       4.906   6.176  17.695  0.00  0.00    +0.000 C 
ATOM      6  C   UNL     1       6.050   7.118  17.409  0.00  0.00    +0.000 C 
ATOM      7  C   UNL     1       3.613   6.555  17.840  0.00  0.00    +0.000 C 
BRANCH   5  16
ATOM      8  C   UNL     1       5.428   4.146  15.348  0.00  0.00    +0.000 C 
ATOM      9  C   UNL     1       4.804   3.875  16.690  0.00  0.00    +0.000 C 
ATOM     10  C   UNL     1       3.849   2.946  16.832  0.00  0.00    +0.000 C 
ATOM     11  C   UNL     1       3.223   2.620  18.146  0.00  0.00    +0.000 C 
ATOM     12  C   UNL     1       1.727   2.963  18.104  0.00  0.00    +0.000 C 
ATOM     13  C   UNL     1       3.902   3.317  19.373  0.00  0.00    +0.000 C 
ATOM     14  C   UNL     1       4.518   2.325  20.367  0.00  0.00    +0.000 C 
ATOM     15  O   UNL     1       4.938   4.276  19.145  0.00  0.00    +0.000 OA
ATOM     16  C   UNL     1       5.303   4.712  17.843  0.00  0.00    +0.000 C 
BRANCH  11  17
ATOM     17  O   UNL     1       3.290   1.191  18.250  0.00  0.00    +0.000 OA
ATOM     18  H   UNL     1       4.150   0.977  18.650  0.00  0.00    +0.000 HD
ENDBRANCH  11  17
ENDBRANCH   5  16
ENDBRANCH   3   7
ENDBRANCH   1   4
BRANCH   2  19
ATOM     19  C   UNL     1       0.196  11.655  18.761  0.00  0.00    +0.000 C 
ATOM     20  C   UNL     1      -0.664  12.236  19.613  0.00  0.00    +0.000 C 
BRANCH  20  21
ATOM     21  C   UNL     1      -0.952  13.658  19.707  0.00  0.00    +0.000 C 
ATOM     22  C   UNL     1      -0.128  14.602  18.853  0.00  0.00    +0.000 C 
ATOM     23  C   UNL     1      -1.864  14.210  20.539  0.00  0.00    +0.000 C 
BRANCH  23  24
ATOM     24  C   UNL     1      -2.911  13.601  21.479  0.00  0.00    +0.000 C 
ATOM     25  C   UNL     1      -3.838  12.676  20.657  0.00  0.00    +0.000 C 
ATOM     26  C   UNL     1      -3.744  14.703  22.211  0.00  0.00    +0.000 C 
ATOM     27  O   UNL     1      -4.590  13.938  23.093  0.00  0.00    +0.000 OA
ATOM     28  C   UNL     1      -3.812  12.880  23.525  0.00  0.00    +0.000 C 
ATOM     29  O   UNL     1      -4.179  12.014  24.295  0.00  0.00    +0.000 OA
ATOM     30  C   UNL     1      -2.457  13.049  22.858  0.00  0.00    +0.000 C 
ATOM     31  C   UNL     1      -1.573  11.835  22.960  0.00  0.00    +0.000 C 
ATOM     32  C   UNL     1      -1.892  14.310  23.502  0.00  0.00    +0.000 C 
ATOM     33  O   UNL     1      -0.923  14.369  24.247  0.00  0.00    +0.000 OA
ATOM     34  C   UNL     1      -2.737  15.497  23.086  0.00  0.00    +0.000 C 
ATOM     35  C   UNL     1      -3.341  16.222  24.273  0.00  0.00    +0.000 C 
ENDBRANCH  23  24
ENDBRANCH  20  21
ENDBRANCH   2  19
TORSDOF 7
ENDMDL
MODEL 7
REMARK VINA RESULT:      -8.9      2.059     11.368
REMARK  Name = 
REMARK  15 active torsions:
REMARK  status: ('A' for Active; 'I' for Inactive)
REMARK    1  A    between atoms: C_1  and  C_2
REMARK    2  A    between atoms: C_4  and  C_5
REMARK    3  A    between atoms: C_4  and  O_6
REMARK    4  A    between atoms: C_7  and  C_8
REMARK    5  A    between atoms: C_10  and  C_11
REMARK    6  A    between atoms: C_11  and  C_12
REMARK    7  A    between atoms: C_13  and  C_14
REMARK    8  A    between atoms: C_15  and  C_16
REMARK    9  A    between atoms: C_17  and  C_18
REMARK   10  A    between atoms: C_19  and  C_20
REMARK   11  A    between atoms: C_20  and  C_21
REMARK   12  A    between atoms: C_22  and  C_23
REMARK   13  A    between atoms: C_23  and  C_24
REMARK   14  A    between atoms: C_29  and  C_30
REMARK   15  A    between atoms: C_33  and  C_34
REMARK                            x       y       z     vdW  Elec       q    Type
REMARK                         _______ _______ _______ _____ _____    ______ ____
ROOT
ATOM      1  C   UNL     1       8.917   9.943  18.486  0.00  0.00    +0.000 C 
ATOM      2  C   UNL     1       9.673  10.606  19.371  0.00  0.00    +0.000 C 
ENDROOT
BRANCH   1   4
ATOM      3  C   UNL     1       7.845   7.936  17.647  0.00  0.00    +0.000 C 
ATOM      4  C   UNL     1       8.539   8.550  18.617  0.00  0.00    +0.000 C 
BRANCH   3   7
ATOM      5  C   UNL     1       6.191   6.070  17.563  0.00  0.00    +0.000 C 
ATOM      6  C   UNL     1       4.960   6.936  17.446  0.00  0.00    +0.000 C 
ATOM      7  C   UNL     1       7.458   6.541  17.663  0.00  0.00    +0.000 C 
BRANCH   5  16
ATOM      8  C   UNL     1       5.572   4.336  15.011  0.00  0.00    +0.000 C 
ATOM      9  C   UNL     1       5.011   4.181  16.398  0.00  0.00    +0.000 C 
ATOM     10  C   UNL     1       3.765   3.732  16.593  0.00  0.00    +0.000 C 
ATOM     11  C   UNL     1       3.176   3.532  17.950  0.00  0.00    +0.000 C 
ATOM     12  C   UNL     1       1.981   4.477  18.138  0.00  0.00    +0.000 C 
ATOM     13  C   UNL     1       4.195   3.710  19.126  0.00  0.00    +0.000 C 
ATOM     14  C   UNL     1       4.403   2.430  19.944  0.00  0.00    +0.000 C 
ATOM     15  O   UNL     1       5.521   4.163  18.837  0.00  0.00    +0.000 OA
ATOM     16  C   UNL     1       5.923   4.570  17.537  0.00  0.00    +0.000 C 
BRANCH  11  17
ATOM     17  O   UNL     1       2.625   2.209  17.928  0.00  0.00    +0.000 OA
ATOM     18  H   UNL     1       2.301   2.023  18.826  0.00  0.00    +0.000 HD
ENDBRANCH  11  17
ENDBRANCH   5  16
ENDBRANCH   3   7
ENDBRANCH   1   4
BRANCH   2  19
ATOM     19  C   UNL     1      10.088  11.978  19.158  0.00  0.00    +0.000 C 
ATOM     20  C   UNL     1       9.380  12.838  18.409  0.00  0.00    +0.000 C 
BRANCH  20  21
ATOM     21  C   UNL     1       9.669  14.251  18.218  0.00  0.00    +0.000 C 
ATOM     22  C   UNL     1      10.572  14.636  17.063  0.00  0.00    +0.000 C 
ATOM     23  C   UNL     1       9.238  15.245  19.026  0.00  0.00    +0.000 C 
BRANCH  23  24
ATOM     24  C   UNL     1       8.278  15.266  20.222  0.00  0.00    +0.000 C 
ATOM     25  C   UNL     1       8.989  14.634  21.440  0.00  0.00    +0.000 C 
ATOM     26  C   UNL     1       6.947  14.508  19.910  0.00  0.00    +0.000 C 
ATOM     27  O   UNL     1       6.167  14.718  21.104  0.00  0.00    +0.000 OA
ATOM     28  C   UNL     1       6.463  16.003  21.517  0.00  0.00    +0.000 C 
ATOM     29  O   UNL     1       5.987  16.548  22.494  0.00  0.00    +0.000 OA
ATOM     30  C   UNL     1       7.460  16.554  20.512  0.00  0.00    +0.000 C 
ATOM     31  C   UNL     1       8.135  17.824  20.956  0.00  0.00    +0.000 C 
ATOM     32  C   UNL     1       6.648  16.675  19.227  0.00  0.00    +0.000 C 
ATOM     33  O   UNL     1       6.335  17.716  18.665  0.00  0.00    +0.000 OA
ATOM     34  C   UNL     1       6.266  15.287  18.752  0.00  0.00    +0.000 C 
ATOM     35  C   UNL     1       4.765  15.105  18.643  0.00  0.00    +0.000 C 
ENDBRANCH  23  24
ENDBRANCH  20  21
ENDBRANCH   2  19
TORSDOF 7
ENDMDL
MODEL 8
REMARK VINA RESULT:      -8.9      6.240     10.843
REMARK  Name = 
REMARK  15 active torsions:
REMARK  status: ('A' for Active; 'I' for Inactive)
REMARK    1  A    between atoms: C_1  and  C_2
REMARK    2  A    between atoms: C_4  and  C_5
REMARK    3  A    between atoms: C_4  and  O_6
REMARK    4  A    between atoms: C_7  and  C_8
REMARK    5  A    between atoms: C_10  and  C_11
REMARK    6  A    between atoms: C_11  and  C_12
REMARK    7  A    between atoms: C_13  and  C_14
REMARK    8  A    between atoms: C_15  and  C_16
REMARK    9  A    between atoms: C_17  and  C_18
REMARK   10  A    between atoms: C_19  and  C_20
REMARK   11  A    between atoms: C_20  and  C_21
REMARK   12  A    between atoms: C_22  and  C_23
REMARK   13  A    between atoms: C_23  and  C_24
REMARK   14  A    between atoms: C_29  and  C_30
REMARK   15  A    between atoms: C_33  and  C_34
REMARK                            x       y       z     vdW  Elec       q    Type
REMARK                         _______ _______ _______ _____ _____    ______ ____
ROOT
ATOM      1  C   UNL     1       0.996   9.419  18.061  0.00  0.00    +0.000 C 
ATOM      2  C   UNL     1       1.085  10.684  18.493  0.00  0.00    +0.000 C 
ENDROOT
BRANCH   1   4
ATOM      3  C   UNL     1       1.990   7.209  17.999  0.00  0.00    +0.000 C 
ATOM      4  C   UNL     1       2.131   8.537  17.879  0.00  0.00    +0.000 C 
BRANCH   3   7
ATOM      5  C   UNL     1       2.883   4.904  17.660  0.00  0.00    +0.000 C 
ATOM      6  C   UNL     1       1.555   4.191  17.733  0.00  0.00    +0.000 C 
ATOM      7  C   UNL     1       3.049   6.242  17.794  0.00  0.00    +0.000 C 
BRANCH   5  16
ATOM      8  C   UNL     1       4.583   3.377  19.824  0.00  0.00    +0.000 C 
ATOM      9  C   UNL     1       5.058   4.005  18.542  0.00  0.00    +0.000 C 
ATOM     10  C   UNL     1       6.281   4.544  18.448  0.00  0.00    +0.000 C 
ATOM     11  C   UNL     1       6.807   5.149  17.190  0.00  0.00    +0.000 C 
ATOM     12  C   UNL     1       7.066   6.647  17.407  0.00  0.00    +0.000 C 
ATOM     13  C   UNL     1       5.889   4.934  15.940  0.00  0.00    +0.000 C 
ATOM     14  C   UNL     1       6.557   4.109  14.833  0.00  0.00    +0.000 C 
ATOM     15  O   UNL     1       4.609   4.322  16.112  0.00  0.00    +0.000 OA
ATOM     16  C   UNL     1       4.081   4.000  17.391  0.00  0.00    +0.000 C 
BRANCH  11  17
ATOM     17  O   UNL     1       8.099   4.556  17.001  0.00  0.00    +0.000 OA
ATOM     18  H   UNL     1       8.756   5.209  17.299  0.00  0.00    +0.000 HD
ENDBRANCH  11  17
ENDBRANCH   5  16
ENDBRANCH   3   7
ENDBRANCH   1   4
BRANCH   2  19
ATOM     19  C   UNL     1      -0.072  11.552  18.587  0.00  0.00    +0.000 C 
ATOM     20  C   UNL     1      -1.300  11.090  18.870  0.00  0.00    +0.000 C 
BRANCH  20  21
ATOM     21  C   UNL     1      -2.494  11.893  19.076  0.00  0.00    +0.000 C 
ATOM     22  C   UNL     1      -3.702  11.595  18.211  0.00  0.00    +0.000 C 
ATOM     23  C   UNL     1      -2.593  12.924  19.945  0.00  0.00    +0.000 C 
BRANCH  23  24
ATOM     24  C   UNL     1      -1.640  13.473  21.014  0.00  0.00    +0.000 C 
ATOM     25  C   UNL     1      -0.819  14.630  20.399  0.00  0.00    +0.000 C 
ATOM     26  C   UNL     1      -0.691  12.363  21.571  0.00  0.00    +0.000 C 
ATOM     27  O   UNL     1       0.044  13.052  22.602  0.00  0.00    +0.000 OA
ATOM     28  C   UNL     1      -0.861  13.919  23.184  0.00  0.00    +0.000 C 
ATOM     29  O   UNL     1      -0.611  14.671  24.106  0.00  0.00    +0.000 OA
ATOM     30  C   UNL     1      -2.176  13.716  22.452  0.00  0.00    +0.000 C 
ATOM     31  C   UNL     1      -3.201  14.782  22.732  0.00  0.00    +0.000 C 
ATOM     32  C   UNL     1      -2.595  12.304  22.845  0.00  0.00    +0.000 C 
ATOM     33  O   UNL     1      -3.561  12.002  23.534  0.00  0.00    +0.000 OA
ATOM     34  C   UNL     1      -1.608  11.315  22.258  0.00  0.00    +0.000 C 
ATOM     35  C   UNL     1      -0.938  10.466  23.321  0.00  0.00    +0.000 C 
ENDBRANCH  23  24
ENDBRANCH  20  21
ENDBRANCH   2  19
TORSDOF 7
ENDMDL
MODEL 9
REMARK VINA RESULT:      -8.9      1.017      1.249
REMARK  Name = 
REMARK  15 active torsions:
REMARK  status: ('A' for Active; 'I' for Inactive)
REMARK    1  A    between atoms: C_1  and  C_2
REMARK    2  A    between atoms: C_4  and  C_5
REMARK    3  A    between atoms: C_4  and  O_6
REMARK    4  A    between atoms: C_7  and  C_8
REMARK    5  A    between atoms: C_10  and  C_11
REMARK    6  A    between atoms: C_11  and  C_12
REMARK    7  A    between atoms: C_13  and  C_14
REMARK    8  A    between atoms: C_15  and  C_16
REMARK    9  A    between atoms: C_17  and  C_18
REMARK   10  A    between atoms: C_19  and  C_20
REMARK   11  A    between atoms: C_20  and  C_21
REMARK   12  A    between atoms: C_22  and  C_23
REMARK   13  A    between atoms: C_23  and  C_24
REMARK   14  A    between atoms: C_29  and  C_30
REMARK   15  A    between atoms: C_33  and  C_34
REMARK                            x       y       z     vdW  Elec       q    Type
REMARK                         _______ _______ _______ _____ _____    ______ ____
ROOT
ATOM      1  C   UNL     1       7.902   7.701  18.107  0.00  0.00    +0.000 C 
ATOM      2  C   UNL     1       6.931   7.791  17.190  0.00  0.00    +0.000 C 
ENDROOT
BRANCH   1   4
ATOM      3  C   UNL     1       8.467  10.054  18.247  0.00  0.00    +0.000 C 
ATOM      4  C   UNL     1       8.821   8.773  18.430  0.00  0.00    +0.000 C 
BRANCH   3   7
ATOM      5  C   UNL     1       9.643  11.582  19.832  0.00  0.00    +0.000 C 
ATOM      6  C   UNL     1       9.197  10.893  21.098  0.00  0.00    +0.000 C 
ATOM      7  C   UNL     1       9.294  11.196  18.580  0.00  0.00    +0.000 C 
BRANCH   5  16
ATOM      8  C   UNL     1       9.454  13.692  22.158  0.00  0.00    +0.000 C 
ATOM      9  C   UNL     1       9.862  13.919  20.728  0.00  0.00    +0.000 C 
ATOM     10  C   UNL     1       9.594  15.076  20.110  0.00  0.00    +0.000 C 
ATOM     11  C   UNL     1      10.005  15.360  18.704  0.00  0.00    +0.000 C 
ATOM     12  C   UNL     1       8.758  15.557  17.831  0.00  0.00    +0.000 C 
ATOM     13  C   UNL     1      10.938  14.271  18.074  0.00  0.00    +0.000 C 
ATOM     14  C   UNL     1      12.327  14.805  17.704  0.00  0.00    +0.000 C 
ATOM     15  O   UNL     1      11.205  13.073  18.809  0.00  0.00    +0.000 OA
ATOM     16  C   UNL     1      10.568  12.775  20.043  0.00  0.00    +0.000 C 
BRANCH  11  17
ATOM     17  O   UNL     1      10.651  16.640  18.753  0.00  0.00    +0.000 OA
ATOM     18  H   UNL     1      10.809  16.841  19.691  0.00  0.00    +0.000 HD
ENDBRANCH  11  17
ENDBRANCH   5  16
ENDBRANCH   3   7
ENDBRANCH   1   4
BRANCH   2  19
ATOM     19  C   UNL     1       6.084   6.665  16.847  0.00  0.00    +0.000 C 
ATOM     20  C   UNL     1       6.535   5.606  16.158  0.00  0.00    +0.000 C 
BRANCH  20  21
ATOM     21  C   UNL     1       5.787   4.397  15.853  0.00  0.00    +0.000 C 
ATOM     22  C   UNL     1       5.980   3.775  14.484  0.00  0.00    +0.000 C 
ATOM     23  C   UNL     1       4.889   3.813  16.679  0.00  0.00    +0.000 C 
BRANCH  23  24
ATOM     24  C   UNL     1       4.480   4.094  18.129  0.00  0.00    +0.000 C 
ATOM     25  C   UNL     1       5.727   4.561  18.915  0.00  0.00    +0.000 C 
ATOM     26  C   UNL     1       3.843   2.838  18.807  0.00  0.00    +0.000 C 
ATOM     27  O   UNL     1       3.456   3.330  20.105  0.00  0.00    +0.000 OA
ATOM     28  C   UNL     1       3.025   4.626  19.894  0.00  0.00    +0.000 C 
ATOM     29  O   UNL     1       2.608   5.371  20.760  0.00  0.00    +0.000 OA
ATOM     30  C   UNL     1       3.173   4.887  18.405  0.00  0.00    +0.000 C 
ATOM     31  C   UNL     1       3.045   6.338  18.025  0.00  0.00    +0.000 C 
ATOM     32  C   UNL     1       2.137   3.965  17.772  0.00  0.00    +0.000 C 
ATOM     33  O   UNL     1       1.126   4.314  17.178  0.00  0.00    +0.000 OA
ATOM     34  C   UNL     1       2.549   2.525  18.009  0.00  0.00    +0.000 C 
ATOM     35  C   UNL     1       1.495   1.739  18.766  0.00  0.00    +0.000 C 
ENDBRANCH  23  24
ENDBRANCH  20  21
ENDBRANCH   2  19
TORSDOF 7
ENDMDL
