MODEL 1
REMARK VINA RESULT:     -10.2      0.000      0.000
REMARK  Name = 
REMARK  12 active torsions:
REMARK  status: ('A' for Active; 'I' for Inactive)
REMARK    1  A    between atoms: C_1  and  C_2
REMARK    2  A    between atoms: C_2  and  C_3
REMARK    3  A    between atoms: C_2  and  C_4
REMARK    4  A    between atoms: C_2  and  C_5
REMARK    5  A    between atoms: C_5  and  C_6
REMARK    6  A    between atoms: C_6  and  C_7
REMARK    7  A    between atoms: C_7  and  C_8
REMARK    8  A    between atoms: C_7  and  N_22
REMARK    9  A    between atoms: C_11  and  C_12
REMARK   10  A    between atoms: C_25  and  C_26
REMARK   11  A    between atoms: C_34  and  C_35
REMARK   12  A    between atoms: C_34  and  C_36
REMARK                            x       y       z     vdW  Elec       q    Type
REMARK                         _______ _______ _______ _____ _____    ______ ____
ROOT
ATOM      1  C   UNL     1       4.717   5.158  18.873  0.00  0.00    +0.000 C 
ENDROOT
BRANCH   1   2
ATOM      2  N   UNL     1       5.695   5.116  17.769  0.00  0.00    +0.000 N 
ATOM      3  C   UNL     1       5.530   4.403  16.618  0.00  0.00    +0.000 C 
ATOM      4  O   UNL     1       4.744   3.530  16.325  0.00  0.00    +0.000 OA
ATOM      5  C   UNL     1       6.583   4.930  15.690  0.00  0.00    +0.000 C 
ATOM      6  N   UNL     1       7.439   5.706  16.286  0.00  0.00    +0.000 NA
ATOM      7  C   UNL     1       6.957   5.839  17.697  0.00  0.00    +0.000 C 
ATOM      8  C   UNL     1       6.881   7.343  17.985  0.00  0.00    +0.000 C 
ATOM      9  C   UNL     1       8.022   5.184  18.586  0.00  0.00    +0.000 C 
BRANCH   5  10
ATOM     10  C   UNL     1       6.592   4.617  14.257  0.00  0.00    +0.000 A 
ATOM     11  C   UNL     1       7.600   5.115  13.417  0.00  0.00    +0.000 A 
ATOM     12  C   UNL     1       7.604   4.799  12.060  0.00  0.00    +0.000 A 
ATOM     13  C   UNL     1       6.607   3.978  11.540  0.00  0.00    +0.000 A 
ATOM     14  C   UNL     1       5.620   3.472  12.385  0.00  0.00    +0.000 A 
ATOM     15  F   UNL     1       4.666   2.685  11.876  0.00  0.00    +0.000 F 
ATOM     16  C   UNL     1       5.605   3.778  13.739  0.00  0.00    +0.000 A 
ENDBRANCH   5  10
ENDBRANCH   1   2
BRANCH   1  17
ATOM     17  C   UNL     1       3.715   6.322  18.663  0.00  0.00    +0.000 A 
ATOM     18  C   UNL     1       2.880   6.698  19.732  0.00  0.00    +0.000 A 
ATOM     19  C   UNL     1       2.025   7.786  19.659  0.00  0.00    +0.000 A 
ATOM     20  C   UNL     1       1.958   8.547  18.498  0.00  0.00    +0.000 A 
ATOM     21  C   UNL     1       2.801   8.231  17.423  0.00  0.00    +0.000 A 
ATOM     22  C   UNL     1       3.685   7.127  17.512  0.00  0.00    +0.000 A 
BRANCH  20  23
ATOM     23  C   UNL     1       0.975   9.661  18.546  0.00  0.00    +0.000 C 
ATOM     24  O   UNL     1       1.018  10.406  19.521  0.00  0.00    +0.000 OA
ATOM     25  N   UNL     1       0.037   9.702  17.535  0.00  0.00    +0.000 N 
ATOM     26  C   UNL     1      -1.075  10.511  17.685  0.00  0.00    +0.000 A 
ATOM     27  N   UNL     1      -1.416  11.298  18.682  0.00  0.00    +0.000 NA
ATOM     28  N   UNL     1      -2.632  11.847  18.358  0.00  0.00    +0.000 NA
ATOM     29  N   UNL     1      -3.047  11.417  17.177  0.00  0.00    +0.000 NA
ATOM     30  N   UNL     1      -2.085  10.585  16.759  0.00  0.00    +0.000 N 
ATOM     31  H   UNL     1       0.088   9.049  16.769  0.00  0.00    +0.000 HD
ATOM     32  H   UNL     1      -2.172  10.132  15.867  0.00  0.00    +0.000 HD
ENDBRANCH  20  23
ENDBRANCH   1  17
BRANCH   1  33
ATOM     33  C   UNL     1       3.826   3.889  19.003  0.00  0.00    +0.000 C 
BRANCH  33  34
ATOM     34  C   UNL     1       3.382   3.367  20.378  0.00  0.00    +0.000 C 
BRANCH  34  36
ATOM     35  C   UNL     1       1.451   2.329  21.748  0.00  0.00    +0.000 C 
ATOM     36  C   UNL     1       1.866   2.946  20.393  0.00  0.00    +0.000 C 
ATOM     37  C   UNL     1       1.566   1.928  19.278  0.00  0.00    +0.000 C 
ATOM     38  C   UNL     1       0.979   4.184  20.165  0.00  0.00    +0.000 C 
ENDBRANCH  34  36
ENDBRANCH  33  34
ENDBRANCH   1  33
TORSDOF 7
ENDMDL
MODEL 2
REMARK VINA RESULT:      -9.8      1.184      1.645
REMARK  Name = 
REMARK  12 active torsions:
REMARK  status: ('A' for Active; 'I' for Inactive)
REMARK    1  A    between atoms: C_1  and  C_2
REMARK    2  A    between atoms: C_2  and  C_3
REMARK    3  A    between atoms: C_2  and  C_4
REMARK    4  A    between atoms: C_2  and  C_5
REMARK    5  A    between atoms: C_5  and  C_6
REMARK    6  A    between atoms: C_6  and  C_7
REMARK    7  A    between atoms: C_7  and  C_8
REMARK    8  A    between atoms: C_7  and  N_22
REMARK    9  A    between atoms: C_11  and  C_12
REMARK   10  A    between atoms: C_25  and  C_26
REMARK   11  A    between atoms: C_34  and  C_35
REMARK   12  A    between atoms: C_34  and  C_36
REMARK                            x       y       z     vdW  Elec       q    Type
REMARK                         _______ _______ _______ _____ _____    ______ ____
ROOT
ATOM      1  C   UNL     1       4.570   5.259  18.836  0.00  0.00    +0.000 C 
ENDROOT
BRANCH   1   2
ATOM      2  N   UNL     1       5.602   5.250  17.782  0.00  0.00    +0.000 N 
ATOM      3  C   UNL     1       5.535   4.501  16.644  0.00  0.00    +0.000 C 
ATOM      4  O   UNL     1       4.817   3.576  16.337  0.00  0.00    +0.000 OA
ATOM      5  C   UNL     1       6.600   5.067  15.753  0.00  0.00    +0.000 C 
ATOM      6  N   UNL     1       7.379   5.907  16.368  0.00  0.00    +0.000 NA
ATOM      7  C   UNL     1       6.822   6.045  17.750  0.00  0.00    +0.000 C 
ATOM      8  C   UNL     1       6.643   7.548  17.995  0.00  0.00    +0.000 C 
ATOM      9  C   UNL     1       7.877   5.476  18.706  0.00  0.00    +0.000 C 
BRANCH   5  10
ATOM     10  C   UNL     1       6.698   4.722  14.331  0.00  0.00    +0.000 A 
ATOM     11  C   UNL     1       7.659   5.327  13.507  0.00  0.00    +0.000 A 
ATOM     12  C   UNL     1       7.749   4.980  12.160  0.00  0.00    +0.000 A 
ATOM     13  C   UNL     1       6.887   4.022  11.636  0.00  0.00    +0.000 A 
ATOM     14  C   UNL     1       5.947   3.411  12.466  0.00  0.00    +0.000 A 
ATOM     15  F   UNL     1       5.123   2.491  11.953  0.00  0.00    +0.000 F 
ATOM     16  C   UNL     1       5.847   3.747  13.809  0.00  0.00    +0.000 A 
ENDBRANCH   5  10
ENDBRANCH   1   2
BRANCH   1  17
ATOM     17  C   UNL     1       3.591   6.442  18.624  0.00  0.00    +0.000 A 
ATOM     18  C   UNL     1       2.797   6.867  19.706  0.00  0.00    +0.000 A 
ATOM     19  C   UNL     1       1.968   7.974  19.628  0.00  0.00    +0.000 A 
ATOM     20  C   UNL     1       1.886   8.706  18.449  0.00  0.00    +0.000 A 
ATOM     21  C   UNL     1       2.689   8.341  17.360  0.00  0.00    +0.000 A 
ATOM     22  C   UNL     1       3.547   7.217  17.453  0.00  0.00    +0.000 A 
BRANCH  20  23
ATOM     23  C   UNL     1       0.932   9.846  18.496  0.00  0.00    +0.000 C 
ATOM     24  O   UNL     1      -0.071   9.767  17.793  0.00  0.00    +0.000 OA
ATOM     25  N   UNL     1       1.308  10.935  19.255  0.00  0.00    +0.000 N 
ATOM     26  C   UNL     1       0.628  12.130  19.095  0.00  0.00    +0.000 A 
ATOM     27  N   UNL     1      -0.376  12.427  18.300  0.00  0.00    +0.000 NA
ATOM     28  N   UNL     1      -0.655  13.758  18.493  0.00  0.00    +0.000 NA
ATOM     29  N   UNL     1       0.156  14.287  19.394  0.00  0.00    +0.000 NA
ATOM     30  N   UNL     1       0.956  13.280  19.767  0.00  0.00    +0.000 N 
ATOM     31  H   UNL     1       2.151  10.903  19.806  0.00  0.00    +0.000 HD
ATOM     32  H   UNL     1       1.663  13.438  20.463  0.00  0.00    +0.000 HD
ENDBRANCH  20  23
ENDBRANCH   1  17
BRANCH   1  33
ATOM     33  C   UNL     1       3.661   3.996  18.871  0.00  0.00    +0.000 C 
BRANCH  33  34
ATOM     34  C   UNL     1       3.359   3.270  20.189  0.00  0.00    +0.000 C 
BRANCH  34  36
ATOM     35  C   UNL     1       0.965   4.248  20.165  0.00  0.00    +0.000 C 
ATOM     36  C   UNL     1       1.824   2.978  20.370  0.00  0.00    +0.000 C 
ATOM     37  C   UNL     1       1.531   2.410  21.771  0.00  0.00    +0.000 C 
ATOM     38  C   UNL     1       1.363   1.944  19.326  0.00  0.00    +0.000 C 
ENDBRANCH  34  36
ENDBRANCH  33  34
ENDBRANCH   1  33
TORSDOF 7
ENDMDL
MODEL 3
REMARK VINA RESULT:      -9.7      0.868      1.167
REMARK  Name = 
REMARK  12 active torsions:
REMARK  status: ('A' for Active; 'I' for Inactive)
REMARK    1  A    between atoms: C_1  and  C_2
REMARK    2  A    between atoms: C_2  and  C_3
REMARK    3  A    between atoms: C_2  and  C_4
REMARK    4  A    between atoms: C_2  and  C_5
REMARK    5  A    between atoms: C_5  and  C_6
REMARK    6  A    between atoms: C_6  and  C_7
REMARK    7  A    between atoms: C_7  and  C_8
REMARK    8  A    between atoms: C_7  and  N_22
REMARK    9  A    between atoms: C_11  and  C_12
REMARK   10  A    between atoms: C_25  and  C_26
REMARK   11  A    between atoms: C_34  and  C_35
REMARK   12  A    between atoms: C_34  and  C_36
REMARK                            x       y       z     vdW  Elec       q    Type
REMARK                         _______ _______ _______ _____ _____    ______ ____
ROOT
ATOM      1  C   UNL     1       4.681   5.322  18.953  0.00  0.00    +0.000 C 
ENDROOT
BRANCH   1   2
ATOM      2  N   UNL     1       5.704   5.258  17.892  0.00  0.00    +0.000 N 
ATOM      3  C   UNL     1       5.580   4.533  16.743  0.00  0.00    +0.000 C 
ATOM      4  O   UNL     1       4.797   3.666  16.426  0.00  0.00    +0.000 OA
ATOM      5  C   UNL     1       6.676   5.039  15.853  0.00  0.00    +0.000 C 
ATOM      6  N   UNL     1       7.515   5.813  16.477  0.00  0.00    +0.000 NA
ATOM      7  C   UNL     1       6.976   5.966  17.865  0.00  0.00    +0.000 C 
ATOM      8  C   UNL     1       6.904   7.474  18.134  0.00  0.00    +0.000 C 
ATOM      9  C   UNL     1       7.995   5.310  18.805  0.00  0.00    +0.000 C 
BRANCH   5  10
ATOM     10  C   UNL     1       6.742   4.710  14.426  0.00  0.00    +0.000 A 
ATOM     11  C   UNL     1       6.059   3.597  13.911  0.00  0.00    +0.000 A 
ATOM     12  C   UNL     1       6.119   3.303  12.550  0.00  0.00    +0.000 A 
ATOM     13  C   UNL     1       6.853   4.124  11.699  0.00  0.00    +0.000 A 
ATOM     14  C   UNL     1       7.513   5.239  12.216  0.00  0.00    +0.000 A 
ATOM     15  F   UNL     1       8.216   6.022  11.391  0.00  0.00    +0.000 F 
ATOM     16  C   UNL     1       7.460   5.544  13.569  0.00  0.00    +0.000 A 
ENDBRANCH   5  10
ENDBRANCH   1   2
BRANCH   1  17
ATOM     17  C   UNL     1       3.677   6.468  18.667  0.00  0.00    +0.000 A 
ATOM     18  C   UNL     1       2.806   6.877  19.694  0.00  0.00    +0.000 A 
ATOM     19  C   UNL     1       1.946   7.953  19.552  0.00  0.00    +0.000 A 
ATOM     20  C   UNL     1       1.910   8.669  18.361  0.00  0.00    +0.000 A 
ATOM     21  C   UNL     1       2.789   8.320  17.326  0.00  0.00    +0.000 A 
ATOM     22  C   UNL     1       3.677   7.228  17.485  0.00  0.00    +0.000 A 
BRANCH  20  23
ATOM     23  C   UNL     1       0.917   9.776  18.336  0.00  0.00    +0.000 C 
ATOM     24  O   UNL     1       1.146  10.752  19.044  0.00  0.00    +0.000 OA
ATOM     25  N   UNL     1      -0.224   9.566  17.589  0.00  0.00    +0.000 N 
ATOM     26  C   UNL     1      -1.307  10.408  17.768  0.00  0.00    +0.000 A 
ATOM     27  N   UNL     1      -1.448  11.438  18.573  0.00  0.00    +0.000 NA
ATOM     28  N   UNL     1      -2.728  11.905  18.400  0.00  0.00    +0.000 NA
ATOM     29  N   UNL     1      -3.378  11.185  17.500  0.00  0.00    +0.000 NA
ATOM     30  N   UNL     1      -2.500  10.253  17.109  0.00  0.00    +0.000 N 
ATOM     31  H   UNL     1      -0.319   8.731  17.031  0.00  0.00    +0.000 HD
ATOM     32  H   UNL     1      -2.765   9.581  16.411  0.00  0.00    +0.000 HD
ENDBRANCH  20  23
ENDBRANCH   1  17
BRANCH   1  33
ATOM     33  C   UNL     1       3.797   4.047  19.085  0.00  0.00    +0.000 C 
BRANCH  33  34
ATOM     34  C   UNL     1       3.352   3.528  20.460  0.00  0.00    +0.000 C 
BRANCH  34  36
ATOM     35  C   UNL     1       1.460   2.380  21.797  0.00  0.00    +0.000 C 
ATOM     36  C   UNL     1       1.860   3.027  20.451  0.00  0.00    +0.000 C 
ATOM     37  C   UNL     1       1.630   2.001  19.326  0.00  0.00    +0.000 C 
ATOM     38  C   UNL     1       0.911   4.217  20.218  0.00  0.00    +0.000 C 
ENDBRANCH  34  36
ENDBRANCH  33  34
ENDBRANCH   1  33
TORSDOF 7
ENDMDL
MODEL 4
REMARK VINA RESULT:      -9.5      1.230      1.612
REMARK  Name = 
REMARK  12 active torsions:
REMARK  status: ('A' for Active; 'I' for Inactive)
REMARK    1  A    between atoms: C_1  and  C_2
REMARK    2  A    between atoms: C_2  and  C_3
REMARK    3  A    between atoms: C_2  and  C_4
REMARK    4  A    between atoms: C_2  and  C_5
REMARK    5  A    between atoms: C_5  and  C_6
REMARK    6  A    between atoms: C_6  and  C_7
REMARK    7  A    between atoms: C_7  and  C_8
REMARK    8  A    between atoms: C_7  and  N_22
REMARK    9  A    between atoms: C_11  and  C_12
REMARK   10  A    between atoms: C_25  and  C_26
REMARK   11  A    between atoms: C_34  and  C_35
REMARK   12  A    between atoms: C_34  and  C_36
REMARK                            x       y       z     vdW  Elec       q    Type
REMARK                         _______ _______ _______ _____ _____    ______ ____
ROOT
ATOM      1  C   UNL     1       4.921   4.876  18.910  0.00  0.00    +0.000 C 
ENDROOT
BRANCH   1   2
ATOM      2  N   UNL     1       5.892   4.870  17.799  0.00  0.00    +0.000 N 
ATOM      3  C   UNL     1       5.701   4.226  16.611  0.00  0.00    +0.000 C 
ATOM      4  O   UNL     1       4.889   3.392  16.276  0.00  0.00    +0.000 OA
ATOM      5  C   UNL     1       6.762   4.775  15.705  0.00  0.00    +0.000 C 
ATOM      6  N   UNL     1       7.642   5.495  16.338  0.00  0.00    +0.000 NA
ATOM      7  C   UNL     1       7.172   5.562  17.757  0.00  0.00    +0.000 C 
ATOM      8  C   UNL     1       7.138   7.049  18.129  0.00  0.00    +0.000 C 
ATOM      9  C   UNL     1       8.223   4.830  18.601  0.00  0.00    +0.000 C 
BRANCH   5  10
ATOM     10  C   UNL     1       6.754   4.542  14.258  0.00  0.00    +0.000 A 
ATOM     11  C   UNL     1       7.667   5.199  13.418  0.00  0.00    +0.000 A 
ATOM     12  C   UNL     1       7.658   4.958  12.045  0.00  0.00    +0.000 A 
ATOM     13  C   UNL     1       6.744   4.056  11.509  0.00  0.00    +0.000 A 
ATOM     14  C   UNL     1       5.852   3.394  12.353  0.00  0.00    +0.000 A 
ATOM     15  F   UNL     1       4.977   2.529  11.830  0.00  0.00    +0.000 F 
ATOM     16  C   UNL     1       5.852   3.623  13.722  0.00  0.00    +0.000 A 
ENDBRANCH   5  10
ENDBRANCH   1   2
BRANCH   1  17
ATOM     17  C   UNL     1       3.897   6.025  18.727  0.00  0.00    +0.000 A 
ATOM     18  C   UNL     1       3.086   6.390  19.818  0.00  0.00    +0.000 A 
ATOM     19  C   UNL     1       2.214   7.465  19.767  0.00  0.00    +0.000 A 
ATOM     20  C   UNL     1       2.105   8.225  18.609  0.00  0.00    +0.000 A 
ATOM     21  C   UNL     1       2.923   7.920  17.511  0.00  0.00    +0.000 A 
ATOM     22  C   UNL     1       3.825   6.829  17.576  0.00  0.00    +0.000 A 
BRANCH  20  23
ATOM     23  C   UNL     1       1.109   9.325  18.683  0.00  0.00    +0.000 C 
ATOM     24  O   UNL     1       0.821   9.895  17.635  0.00  0.00    +0.000 OA
ATOM     25  N   UNL     1       0.664   9.673  19.943  0.00  0.00    +0.000 N 
ATOM     26  C   UNL     1      -0.012  10.868  20.109  0.00  0.00    +0.000 A 
ATOM     27  N   UNL     1      -0.327  11.787  19.223  0.00  0.00    +0.000 NA
ATOM     28  N   UNL     1      -0.958  12.799  19.906  0.00  0.00    +0.000 NA
ATOM     29  N   UNL     1      -1.040  12.519  21.197  0.00  0.00    +0.000 NA
ATOM     30  N   UNL     1      -0.452  11.323  21.326  0.00  0.00    +0.000 N 
ATOM     31  H   UNL     1       0.952   9.138  20.747  0.00  0.00    +0.000 HD
ATOM     32  H   UNL     1      -0.398  10.890  22.231  0.00  0.00    +0.000 HD
ENDBRANCH  20  23
ENDBRANCH   1  17
BRANCH   1  33
ATOM     33  C   UNL     1       4.053   3.589  19.025  0.00  0.00    +0.000 C 
BRANCH  33  34
ATOM     34  C   UNL     1       2.578   3.584  18.598  0.00  0.00    +0.000 C 
BRANCH  34  36
ATOM     35  C   UNL     1       0.643   4.109  20.232  0.00  0.00    +0.000 C 
ATOM     36  C   UNL     1       1.633   3.033  19.729  0.00  0.00    +0.000 C 
ATOM     37  C   UNL     1       2.450   2.520  20.929  0.00  0.00    +0.000 C 
ATOM     38  C   UNL     1       0.794   1.863  19.183  0.00  0.00    +0.000 C 
ENDBRANCH  34  36
ENDBRANCH  33  34
ENDBRANCH   1  33
TORSDOF 7
ENDMDL
MODEL 5
REMARK VINA RESULT:      -9.3      0.623      1.266
REMARK  Name = 
REMARK  12 active torsions:
REMARK  status: ('A' for Active; 'I' for Inactive)
REMARK    1  A    between atoms: C_1  and  C_2
REMARK    2  A    between atoms: C_2  and  C_3
REMARK    3  A    between atoms: C_2  and  C_4
REMARK    4  A    between atoms: C_2  and  C_5
REMARK    5  A    between atoms: C_5  and  C_6
REMARK    6  A    between atoms: C_6  and  C_7
REMARK    7  A    between atoms: C_7  and  C_8
REMARK    8  A    between atoms: C_7  and  N_22
REMARK    9  A    between atoms: C_11  and  C_12
REMARK   10  A    between atoms: C_25  and  C_26
REMARK   11  A    between atoms: C_34  and  C_35
REMARK   12  A    between atoms: C_34  and  C_36
REMARK                            x       y       z     vdW  Elec       q    Type
REMARK                         _______ _______ _______ _____ _____    ______ ____
ROOT
ATOM      1  C   UNL     1       4.864   4.933  18.795  0.00  0.00    +0.000 C 
ENDROOT
BRANCH   1   2
ATOM      2  N   UNL     1       5.857   4.999  17.705  0.00  0.00    +0.000 N 
ATOM      3  C   UNL     1       5.765   4.306  16.534  0.00  0.00    +0.000 C 
ATOM      4  O   UNL     1       5.055   3.381  16.207  0.00  0.00    +0.000 OA
ATOM      5  C   UNL     1       6.783   4.941  15.635  0.00  0.00    +0.000 C 
ATOM      6  N   UNL     1       7.565   5.767  16.264  0.00  0.00    +0.000 NA
ATOM      7  C   UNL     1       7.057   5.823  17.670  0.00  0.00    +0.000 C 
ATOM      8  C   UNL     1       6.855   7.308  17.996  0.00  0.00    +0.000 C 
ATOM      9  C   UNL     1       8.159   5.233  18.558  0.00  0.00    +0.000 C 
BRANCH   5  10
ATOM     10  C   UNL     1       6.836   4.668  14.196  0.00  0.00    +0.000 A 
ATOM     11  C   UNL     1       7.713   5.376  13.360  0.00  0.00    +0.000 A 
ATOM     12  C   UNL     1       7.763   5.098  11.995  0.00  0.00    +0.000 A 
ATOM     13  C   UNL     1       6.944   4.107  11.464  0.00  0.00    +0.000 A 
ATOM     14  C   UNL     1       6.088   3.394  12.304  0.00  0.00    +0.000 A 
ATOM     15  F   UNL     1       5.305   2.443  11.784  0.00  0.00    +0.000 F 
ATOM     16  C   UNL     1       6.030   3.660  13.665  0.00  0.00    +0.000 A 
ENDBRANCH   5  10
ENDBRANCH   1   2
BRANCH   1  17
ATOM     17  C   UNL     1       3.926   6.166  18.748  0.00  0.00    +0.000 A 
ATOM     18  C   UNL     1       3.778   6.858  17.532  0.00  0.00    +0.000 A 
ATOM     19  C   UNL     1       2.890   7.911  17.380  0.00  0.00    +0.000 A 
ATOM     20  C   UNL     1       2.112   8.330  18.453  0.00  0.00    +0.000 A 
ATOM     21  C   UNL     1       2.200   7.643  19.672  0.00  0.00    +0.000 A 
ATOM     22  C   UNL     1       3.098   6.557  19.814  0.00  0.00    +0.000 A 
BRANCH  20  23
ATOM     23  C   UNL     1       1.230   9.490  18.159  0.00  0.00    +0.000 C 
ATOM     24  O   UNL     1       1.724  10.609  18.253  0.00  0.00    +0.000 OA
ATOM     25  N   UNL     1      -0.096   9.209  17.899  0.00  0.00    +0.000 N 
ATOM     26  C   UNL     1      -1.018  10.240  17.924  0.00  0.00    +0.000 A 
ATOM     27  N   UNL     1      -0.842  11.521  18.166  0.00  0.00    +0.000 NA
ATOM     28  N   UNL     1      -2.082  12.109  18.113  0.00  0.00    +0.000 NA
ATOM     29  N   UNL     1      -3.019  11.216  17.840  0.00  0.00    +0.000 NA
ATOM     30  N   UNL     1      -2.362  10.055  17.726  0.00  0.00    +0.000 N 
ATOM     31  H   UNL     1      -0.408   8.252  17.835  0.00  0.00    +0.000 HD
ATOM     32  H   UNL     1      -2.870   9.216  17.508  0.00  0.00    +0.000 HD
ENDBRANCH  20  23
ENDBRANCH   1  17
BRANCH   1  33
ATOM     33  C   UNL     1       3.907   3.707  18.731  0.00  0.00    +0.000 C 
BRANCH  33  34
ATOM     34  C   UNL     1       2.404   3.885  18.471  0.00  0.00    +0.000 C 
BRANCH  34  36
ATOM     35  C   UNL     1       0.578   2.126  18.979  0.00  0.00    +0.000 C 
ATOM     36  C   UNL     1       1.523   3.193  19.576  0.00  0.00    +0.000 C 
ATOM     37  C   UNL     1       0.675   4.230  20.335  0.00  0.00    +0.000 C 
ATOM     38  C   UNL     1       2.431   2.478  20.594  0.00  0.00    +0.000 C 
ENDBRANCH  34  36
ENDBRANCH  33  34
ENDBRANCH   1  33
TORSDOF 7
ENDMDL
MODEL 6
REMARK VINA RESULT:      -9.3      0.842      1.145
REMARK  Name = 
REMARK  12 active torsions:
REMARK  status: ('A' for Active; 'I' for Inactive)
REMARK    1  A    between atoms: C_1  and  C_2
REMARK    2  A    between atoms: C_2  and  C_3
REMARK    3  A    between atoms: C_2  and  C_4
REMARK    4  A    between atoms: C_2  and  C_5
REMARK    5  A    between atoms: C_5  and  C_6
REMARK    6  A    between atoms: C_6  and  C_7
REMARK    7  A    between atoms: C_7  and  C_8
REMARK    8  A    between atoms: C_7  and  N_22
REMARK    9  A    between atoms: C_11  and  C_12
REMARK   10  A    between atoms: C_25  and  C_26
REMARK   11  A    between atoms: C_34  and  C_35
REMARK   12  A    between atoms: C_34  and  C_36
REMARK                            x       y       z     vdW  Elec       q    Type
REMARK                         _______ _______ _______ _____ _____    ______ ____
ROOT
ATOM      1  C   UNL     1       4.898   5.076  18.914  0.00  0.00    +0.000 C 
ENDROOT
BRANCH   1   2
ATOM      2  N   UNL     1       5.689   4.852  17.689  0.00  0.00    +0.000 N 
ATOM      3  C   UNL     1       5.275   4.099  16.630  0.00  0.00    +0.000 C 
ATOM      4  O   UNL     1       4.361   3.312  16.517  0.00  0.00    +0.000 OA
ATOM      5  C   UNL     1       6.228   4.439  15.524  0.00  0.00    +0.000 C 
ATOM      6  N   UNL     1       7.245   5.139  15.933  0.00  0.00    +0.000 NA
ATOM      7  C   UNL     1       6.999   5.411  17.383  0.00  0.00    +0.000 C 
ATOM      8  C   UNL     1       7.135   6.927  17.566  0.00  0.00    +0.000 C 
ATOM      9  C   UNL     1       8.104   4.684  18.159  0.00  0.00    +0.000 C 
BRANCH   5  10
ATOM     10  C   UNL     1       5.987   4.045  14.132  0.00  0.00    +0.000 A 
ATOM     11  C   UNL     1       4.683   3.979  13.618  0.00  0.00    +0.000 A 
ATOM     12  C   UNL     1       4.468   3.616  12.290  0.00  0.00    +0.000 A 
ATOM     13  C   UNL     1       5.555   3.327  11.470  0.00  0.00    +0.000 A 
ATOM     14  C   UNL     1       6.849   3.414  11.983  0.00  0.00    +0.000 A 
ATOM     15  F   UNL     1       7.887   3.134  11.188  0.00  0.00    +0.000 F 
ATOM     16  C   UNL     1       7.076   3.775  13.304  0.00  0.00    +0.000 A 
ENDBRANCH   5  10
ENDBRANCH   1   2
BRANCH   1  17
ATOM     17  C   UNL     1       3.872   6.216  18.694  0.00  0.00    +0.000 A 
ATOM     18  C   UNL     1       3.032   6.587  19.761  0.00  0.00    +0.000 A 
ATOM     19  C   UNL     1       2.155   7.656  19.678  0.00  0.00    +0.000 A 
ATOM     20  C   UNL     1       2.068   8.402  18.508  0.00  0.00    +0.000 A 
ATOM     21  C   UNL     1       2.914   8.090  17.434  0.00  0.00    +0.000 A 
ATOM     22  C   UNL     1       3.821   7.006  17.532  0.00  0.00    +0.000 A 
BRANCH  20  23
ATOM     23  C   UNL     1       1.062   9.495  18.546  0.00  0.00    +0.000 C 
ATOM     24  O   UNL     1       1.051  10.213  19.543  0.00  0.00    +0.000 OA
ATOM     25  N   UNL     1       0.167   9.549  17.498  0.00  0.00    +0.000 N 
ATOM     26  C   UNL     1      -0.967  10.333  17.624  0.00  0.00    +0.000 A 
ATOM     27  N   UNL     1      -1.364  11.083  18.628  0.00  0.00    +0.000 NA
ATOM     28  N   UNL     1      -2.576  11.619  18.269  0.00  0.00    +0.000 NA
ATOM     29  N   UNL     1      -2.933  11.215  17.060  0.00  0.00    +0.000 NA
ATOM     30  N   UNL     1      -1.938  10.415  16.659  0.00  0.00    +0.000 N 
ATOM     31  H   UNL     1       0.262   8.919  16.717  0.00  0.00    +0.000 HD
ATOM     32  H   UNL     1      -1.980   9.986  15.752  0.00  0.00    +0.000 HD
ENDBRANCH  20  23
ENDBRANCH   1  17
BRANCH   1  33
ATOM     33  C   UNL     1       4.044   3.858  19.371  0.00  0.00    +0.000 C 
BRANCH  33  34
ATOM     34  C   UNL     1       2.625   3.634  18.827  0.00  0.00    +0.000 C 
BRANCH  34  36
ATOM     35  C   UNL     1       2.404   2.552  21.165  0.00  0.00    +0.000 C 
ATOM     36  C   UNL     1       1.645   3.089  19.931  0.00  0.00    +0.000 C 
ATOM     37  C   UNL     1       0.757   1.962  19.373  0.00  0.00    +0.000 C 
ATOM     38  C   UNL     1       0.727   4.226  20.420  0.00  0.00    +0.000 C 
ENDBRANCH  34  36
ENDBRANCH  33  34
ENDBRANCH   1  33
TORSDOF 7
ENDMDL
MODEL 7
REMARK VINA RESULT:      -9.3      1.171      1.688
REMARK  Name = 
REMARK  12 active torsions:
REMARK  status: ('A' for Active; 'I' for Inactive)
REMARK    1  A    between atoms: C_1  and  C_2
REMARK    2  A    between atoms: C_2  and  C_3
REMARK    3  A    between atoms: C_2  and  C_4
REMARK    4  A    between atoms: C_2  and  C_5
REMARK    5  A    between atoms: C_5  and  C_6
REMARK    6  A    between atoms: C_6  and  C_7
REMARK    7  A    between atoms: C_7  and  C_8
REMARK    8  A    between atoms: C_7  and  N_22
REMARK    9  A    between atoms: C_11  and  C_12
REMARK   10  A    between atoms: C_25  and  C_26
REMARK   11  A    between atoms: C_34  and  C_35
REMARK   12  A    between atoms: C_34  and  C_36
REMARK                            x       y       z     vdW  Elec       q    Type
REMARK                         _______ _______ _______ _____ _____    ______ ____
ROOT
ATOM      1  C   UNL     1       4.950   4.722  18.814  0.00  0.00    +0.000 C 
ENDROOT
BRANCH   1   2
ATOM      2  N   UNL     1       5.929   4.814  17.714  0.00  0.00    +0.000 N 
ATOM      3  C   UNL     1       5.799   4.182  16.511  0.00  0.00    +0.000 C 
ATOM      4  O   UNL     1       5.057   3.296  16.150  0.00  0.00    +0.000 OA
ATOM      5  C   UNL     1       6.823   4.831  15.628  0.00  0.00    +0.000 C 
ATOM      6  N   UNL     1       7.639   5.602  16.284  0.00  0.00    +0.000 NA
ATOM      7  C   UNL     1       7.153   5.602  17.699  0.00  0.00    +0.000 C 
ATOM      8  C   UNL     1       7.001   7.074  18.101  0.00  0.00    +0.000 C 
ATOM      9  C   UNL     1       8.249   4.937  18.540  0.00  0.00    +0.000 C 
BRANCH   5  10
ATOM     10  C   UNL     1       6.846   4.628  14.176  0.00  0.00    +0.000 A 
ATOM     11  C   UNL     1       7.659   5.421  13.351  0.00  0.00    +0.000 A 
ATOM     12  C   UNL     1       7.682   5.210  11.974  0.00  0.00    +0.000 A 
ATOM     13  C   UNL     1       6.900   4.201  11.418  0.00  0.00    +0.000 A 
ATOM     14  C   UNL     1       6.110   3.405  12.247  0.00  0.00    +0.000 A 
ATOM     15  F   UNL     1       5.362   2.438  11.704  0.00  0.00    +0.000 F 
ATOM     16  C   UNL     1       6.079   3.604  13.620  0.00  0.00    +0.000 A 
ENDBRANCH   5  10
ENDBRANCH   1   2
BRANCH   1  17
ATOM     17  C   UNL     1       4.024   5.964  18.818  0.00  0.00    +0.000 A 
ATOM     18  C   UNL     1       3.908   6.727  17.641  0.00  0.00    +0.000 A 
ATOM     19  C   UNL     1       3.032   7.794  17.531  0.00  0.00    +0.000 A 
ATOM     20  C   UNL     1       2.232   8.158  18.608  0.00  0.00    +0.000 A 
ATOM     21  C   UNL     1       2.288   7.401  19.788  0.00  0.00    +0.000 A 
ATOM     22  C   UNL     1       3.174   6.300  19.886  0.00  0.00    +0.000 A 
BRANCH  20  23
ATOM     23  C   UNL     1       1.366   9.340  18.363  0.00  0.00    +0.000 C 
ATOM     24  O   UNL     1       1.636  10.042  17.392  0.00  0.00    +0.000 OA
ATOM     25  N   UNL     1       0.391   9.599  19.305  0.00  0.00    +0.000 N 
ATOM     26  C   UNL     1      -0.233  10.834  19.302  0.00  0.00    +0.000 A 
ATOM     27  N   UNL     1      -0.051  11.867  18.510  0.00  0.00    +0.000 NA
ATOM     28  N   UNL     1      -0.888  12.862  18.954  0.00  0.00    +0.000 NA
ATOM     29  N   UNL     1      -1.585  12.460  20.004  0.00  0.00    +0.000 NA
ATOM     30  N   UNL     1      -1.178  11.203  20.225  0.00  0.00    +0.000 N 
ATOM     31  H   UNL     1       0.240   8.958  20.068  0.00  0.00    +0.000 HD
ATOM     32  H   UNL     1      -1.579  10.676  20.980  0.00  0.00    +0.000 HD
ENDBRANCH  20  23
ENDBRANCH   1  17
BRANCH   1  33
ATOM     33  C   UNL     1       3.981   3.507  18.727  0.00  0.00    +0.000 C 
BRANCH  33  34
ATOM     34  C   UNL     1       2.959   3.224  19.837  0.00  0.00    +0.000 C 
BRANCH  34  36
ATOM     35  C   UNL     1       1.338   3.943  17.955  0.00  0.00    +0.000 C 
ATOM     36  C   UNL     1       1.485   3.176  19.289  0.00  0.00    +0.000 C 
ATOM     37  C   UNL     1       0.497   3.773  20.309  0.00  0.00    +0.000 C 
ATOM     38  C   UNL     1       1.076   1.715  19.022  0.00  0.00    +0.000 C 
ENDBRANCH  34  36
ENDBRANCH  33  34
ENDBRANCH   1  33
TORSDOF 7
ENDMDL
MODEL 8
REMARK VINA RESULT:      -9.2      1.389      1.943
REMARK  Name = 
REMARK  12 active torsions:
REMARK  status: ('A' for Active; 'I' for Inactive)
REMARK    1  A    between atoms: C_1  and  C_2
REMARK    2  A    between atoms: C_2  and  C_3
REMARK    3  A    between atoms: C_2  and  C_4
REMARK    4  A    between atoms: C_2  and  C_5
REMARK    5  A    between atoms: C_5  and  C_6
REMARK    6  A    between atoms: C_6  and  C_7
REMARK    7  A    between atoms: C_7  and  C_8
REMARK    8  A    between atoms: C_7  and  N_22
REMARK    9  A    between atoms: C_11  and  C_12
REMARK   10  A    between atoms: C_25  and  C_26
REMARK   11  A    between atoms: C_34  and  C_35
REMARK   12  A    between atoms: C_34  and  C_36
REMARK                            x       y       z     vdW  Elec       q    Type
REMARK                         _______ _______ _______ _____ _____    ______ ____
ROOT
ATOM      1  C   UNL     1       4.961   5.103  19.081  0.00  0.00    +0.000 C 
ENDROOT
BRANCH   1   2
ATOM      2  N   UNL     1       5.927   5.025  17.968  0.00  0.00    +0.000 N 
ATOM      3  C   UNL     1       5.695   4.374  16.791  0.00  0.00    +0.000 C 
ATOM      4  O   UNL     1       4.837   3.583  16.471  0.00  0.00    +0.000 OA
ATOM      5  C   UNL     1       6.783   4.849  15.874  0.00  0.00    +0.000 C 
ATOM      6  N   UNL     1       7.704   5.527  16.493  0.00  0.00    +0.000 NA
ATOM      7  C   UNL     1       7.244   5.642  17.912  0.00  0.00    +0.000 C 
ATOM      8  C   UNL     1       7.295   7.135  18.261  0.00  0.00    +0.000 C 
ATOM      9  C   UNL     1       8.255   4.866  18.765  0.00  0.00    +0.000 C 
BRANCH   5  10
ATOM     10  C   UNL     1       6.757   4.595  14.430  0.00  0.00    +0.000 A 
ATOM     11  C   UNL     1       5.970   3.564  13.895  0.00  0.00    +0.000 A 
ATOM     12  C   UNL     1       5.944   3.341  12.519  0.00  0.00    +0.000 A 
ATOM     13  C   UNL     1       6.697   4.152  11.675  0.00  0.00    +0.000 A 
ATOM     14  C   UNL     1       7.462   5.186  12.214  0.00  0.00    +0.000 A 
ATOM     15  F   UNL     1       8.182   5.961  11.395  0.00  0.00    +0.000 F 
ATOM     16  C   UNL     1       7.495   5.420  13.582  0.00  0.00    +0.000 A 
ENDBRANCH   5  10
ENDBRANCH   1   2
BRANCH   1  17
ATOM     17  C   UNL     1       3.910   6.208  18.809  0.00  0.00    +0.000 A 
ATOM     18  C   UNL     1       3.031   6.577  19.844  0.00  0.00    +0.000 A 
ATOM     19  C   UNL     1       2.127   7.619  19.714  0.00  0.00    +0.000 A 
ATOM     20  C   UNL     1       2.053   8.338  18.527  0.00  0.00    +0.000 A 
ATOM     21  C   UNL     1       2.936   8.029  17.484  0.00  0.00    +0.000 A 
ATOM     22  C   UNL     1       3.870   6.973  17.630  0.00  0.00    +0.000 A 
BRANCH  20  23
ATOM     23  C   UNL     1       1.016   9.403  18.515  0.00  0.00    +0.000 C 
ATOM     24  O   UNL     1       0.263   9.443  17.546  0.00  0.00    +0.000 OA
ATOM     25  N   UNL     1       1.053  10.314  19.551  0.00  0.00    +0.000 N 
ATOM     26  C   UNL     1       0.330  11.488  19.438  0.00  0.00    +0.000 A 
ATOM     27  N   UNL     1      -0.435  11.914  18.457  0.00  0.00    +0.000 NA
ATOM     28  N   UNL     1      -0.888  13.160  18.818  0.00  0.00    +0.000 NA
ATOM     29  N   UNL     1      -0.419  13.508  20.005  0.00  0.00    +0.000 NA
ATOM     30  N   UNL     1       0.340  12.475  20.390  0.00  0.00    +0.000 N 
ATOM     31  H   UNL     1       1.707  10.193  20.309  0.00  0.00    +0.000 HD
ATOM     32  H   UNL     1       0.805  12.503  21.281  0.00  0.00    +0.000 HD
ENDBRANCH  20  23
ENDBRANCH   1  17
BRANCH   1  33
ATOM     33  C   UNL     1       4.125   3.811  19.311  0.00  0.00    +0.000 C 
BRANCH  33  34
ATOM     34  C   UNL     1       2.699   3.678  18.758  0.00  0.00    +0.000 C 
BRANCH  34  36
ATOM     35  C   UNL     1       0.905   1.887  19.269  0.00  0.00    +0.000 C 
ATOM     36  C   UNL     1       1.700   3.091  19.823  0.00  0.00    +0.000 C 
ATOM     37  C   UNL     1       0.700   4.164  20.292  0.00  0.00    +0.000 C 
ATOM     38  C   UNL     1       2.482   2.593  21.053  0.00  0.00    +0.000 C 
ENDBRANCH  34  36
ENDBRANCH  33  34
ENDBRANCH   1  33
TORSDOF 7
ENDMDL
MODEL 9
REMARK VINA RESULT:      -9.0      1.022      1.389
REMARK  Name = 
REMARK  12 active torsions:
REMARK  status: ('A' for Active; 'I' for Inactive)
REMARK    1  A    between atoms: C_1  and  C_2
REMARK    2  A    between atoms: C_2  and  C_3
REMARK    3  A    between atoms: C_2  and  C_4
REMARK    4  A    between atoms: C_2  and  C_5
REMARK    5  A    between atoms: C_5  and  C_6
REMARK    6  A    between atoms: C_6  and  C_7
REMARK    7  A    between atoms: C_7  and  C_8
REMARK    8  A    between atoms: C_7  and  N_22
REMARK    9  A    between atoms: C_11  and  C_12
REMARK   10  A    between atoms: C_25  and  C_26
REMARK   11  A    between atoms: C_34  and  C_35
REMARK   12  A    between atoms: C_34  and  C_36
REMARK                            x       y       z     vdW  Elec       q    Type
REMARK                         _______ _______ _______ _____ _____    ______ ____
ROOT
ATOM      1  C   UNL     1       5.106   4.842  19.002  0.00  0.00    +0.000 C 
ENDROOT
BRANCH   1   2
ATOM      2  N   UNL     1       6.051   4.809  17.869  0.00  0.00    +0.000 N 
ATOM      3  C   UNL     1       5.794   4.218  16.667  0.00  0.00    +0.000 C 
ATOM      4  O   UNL     1       4.923   3.449  16.325  0.00  0.00    +0.000 OA
ATOM      5  C   UNL     1       6.869   4.727  15.755  0.00  0.00    +0.000 C 
ATOM      6  N   UNL     1       7.807   5.367  16.389  0.00  0.00    +0.000 NA
ATOM      7  C   UNL     1       7.372   5.418  17.819  0.00  0.00    +0.000 C 
ATOM      8  C   UNL     1       7.442   6.892  18.238  0.00  0.00    +0.000 C 
ATOM      9  C   UNL     1       8.391   4.594  18.616  0.00  0.00    +0.000 C 
BRANCH   5  10
ATOM     10  C   UNL     1       6.816   4.542  14.301  0.00  0.00    +0.000 A 
ATOM     11  C   UNL     1       7.690   5.240  13.454  0.00  0.00    +0.000 A 
ATOM     12  C   UNL     1       7.638   5.045  12.075  0.00  0.00    +0.000 A 
ATOM     13  C   UNL     1       6.720   4.146  11.540  0.00  0.00    +0.000 A 
ATOM     14  C   UNL     1       5.868   3.442  12.390  0.00  0.00    +0.000 A 
ATOM     15  F   UNL     1       4.989   2.580  11.867  0.00  0.00    +0.000 F 
ATOM     16  C   UNL     1       5.910   3.626  13.765  0.00  0.00    +0.000 A 
ENDBRANCH   5  10
ENDBRANCH   1   2
BRANCH   1  17
ATOM     17  C   UNL     1       4.148   6.053  18.871  0.00  0.00    +0.000 A 
ATOM     18  C   UNL     1       4.138   6.783  17.668  0.00  0.00    +0.000 A 
ATOM     19  C   UNL     1       3.248   7.818  17.435  0.00  0.00    +0.000 A 
ATOM     20  C   UNL     1       2.326   8.182  18.409  0.00  0.00    +0.000 A 
ATOM     21  C   UNL     1       2.275   7.456  19.608  0.00  0.00    +0.000 A 
ATOM     22  C   UNL     1       3.177   6.388  19.832  0.00  0.00    +0.000 A 
BRANCH  20  23
ATOM     23  C   UNL     1       1.457   9.330  18.039  0.00  0.00    +0.000 C 
ATOM     24  O   UNL     1       1.991  10.279  17.473  0.00  0.00    +0.000 OA
ATOM     25  N   UNL     1       0.141   9.267  18.449  0.00  0.00    +0.000 N 
ATOM     26  C   UNL     1      -0.629  10.415  18.411  0.00  0.00    +0.000 A 
ATOM     27  N   UNL     1      -0.309  11.631  18.027  0.00  0.00    +0.000 NA
ATOM     28  N   UNL     1      -1.418  12.417  18.225  0.00  0.00    +0.000 NA
ATOM     29  N   UNL     1      -2.418  11.707  18.721  0.00  0.00    +0.000 NA
ATOM     30  N   UNL     1      -1.931  10.466  18.841  0.00  0.00    +0.000 N 
ATOM     31  H   UNL     1      -0.210   8.437  18.903  0.00  0.00    +0.000 HD
ATOM     32  H   UNL     1      -2.519   9.732  19.196  0.00  0.00    +0.000 HD
ENDBRANCH  20  23
ENDBRANCH   1  17
BRANCH   1  33
ATOM     33  C   UNL     1       4.166   3.605  19.104  0.00  0.00    +0.000 C 
BRANCH  33  34
ATOM     34  C   UNL     1       2.706   3.752  19.554  0.00  0.00    +0.000 C 
BRANCH  34  36
ATOM     35  C   UNL     1       0.386   2.682  19.154  0.00  0.00    +0.000 C 
ATOM     36  C   UNL     1       1.696   3.171  18.496  0.00  0.00    +0.000 C 
ATOM     37  C   UNL     1       2.324   1.997  17.722  0.00  0.00    +0.000 C 
ATOM     38  C   UNL     1       1.316   4.266  17.483  0.00  0.00    +0.000 C 
ENDBRANCH  34  36
ENDBRANCH  33  34
ENDBRANCH   1  33
TORSDOF 7
ENDMDL
