MODEL 1
REMARK VINA RESULT:      -8.9      0.000      0.000
REMARK  Name = 
REMARK  11 active torsions:
REMARK  status: ('A' for Active; 'I' for Inactive)
REMARK    1  A    between atoms: C_6  and  O_7
REMARK    2  A    between atoms: C_12  and  C_13
REMARK    3  A    between atoms: N_15  and  C_16
REMARK    4  A    between atoms: C_16  and  C_17
REMARK    5  A    between atoms: C_17  and  C_18
REMARK    6  A    between atoms: C_18  and  C_19
REMARK    7  A    between atoms: C_19  and  C_20
REMARK    8  A    between atoms: C_20  and  C_21
REMARK    9  A    between atoms: C_21  and  N_22
REMARK   10  A    between atoms: C_23  and  C_25
REMARK   11  A    between atoms: C_30  and  O_31
REMARK                            x       y       z     vdW  Elec       q    Type
REMARK                         _______ _______ _______ _____ _____    ______ ____
ROOT
ATOM      1  C   UNL     1       8.698  10.493  18.223  0.00  0.00    +0.000 C 
ENDROOT
BRANCH   1   2
ATOM      2  C   UNL     1       8.542   9.004  18.537  0.00  0.00    +0.000 C 
BRANCH   2   3
ATOM      3  C   UNL     1       7.993   8.265  17.317  0.00  0.00    +0.000 C 
BRANCH   3   6
ATOM      4  C   UNL     1       6.747   6.173  16.939  0.00  0.00    +0.000 C 
ATOM      5  O   UNL     1       7.408   5.878  15.948  0.00  0.00    +0.000 OA
ATOM      6  N   UNL     1       6.965   7.317  17.667  0.00  0.00    +0.000 N 
ATOM      7  H   UNL     1       6.381   7.491  18.483  0.00  0.00    +0.000 HD
BRANCH   4  18
ATOM      8  N   UNL     1       5.875   3.454  15.871  0.00  0.00    +0.000 NA
ATOM      9  C   UNL     1       5.271   4.003  16.881  0.00  0.00    +0.000 A 
ATOM     10  O   UNL     1       4.239   3.287  17.449  0.00  0.00    +0.000 OA
ATOM     11  C   UNL     1       3.450   3.852  18.473  0.00  0.00    +0.000 A 
ATOM     12  C   UNL     1       2.343   3.129  18.909  0.00  0.00    +0.000 A 
ATOM     13  C   UNL     1       1.470   3.742  19.803  0.00  0.00    +0.000 A 
ATOM     14  C   UNL     1       1.720   5.028  20.278  0.00  0.00    +0.000 A 
ATOM     15  C   UNL     1       2.899   5.689  19.925  0.00  0.00    +0.000 A 
ATOM     16  C   UNL     1       3.754   5.115  18.980  0.00  0.00    +0.000 A 
ATOM     17  C   UNL     1       4.909   5.826  18.472  0.00  0.00    +0.000 A 
ATOM     18  C   UNL     1       5.626   5.314  17.449  0.00  0.00    +0.000 A 
ATOM     19  H   UNL     1       5.414   2.554  15.692  0.00  0.00    +0.000 HD
BRANCH  13  20
ATOM     20  O   UNL     1       0.344   3.115  20.246  0.00  0.00    +0.000 OA
ATOM     21  H   UNL     1      -0.219   2.889  19.487  0.00  0.00    +0.000 HD
ENDBRANCH  13  20
ENDBRANCH   4  18
ENDBRANCH   3   6
ENDBRANCH   2   3
ENDBRANCH   1   2
BRANCH   1  22
ATOM     22  C   UNL     1      10.134  10.968  18.422  0.00  0.00    +0.000 C 
BRANCH  22  23
ATOM     23  C   UNL     1      10.181  12.455  18.776  0.00  0.00    +0.000 C 
BRANCH  23  24
ATOM     24  C   UNL     1       9.823  13.308  17.566  0.00  0.00    +0.000 C 
BRANCH  24  25
ATOM     25  N   UNL     1       8.510  13.876  17.691  0.00  0.00    +0.000 N 
ATOM     26  C   UNL     1       8.304  15.063  18.328  0.00  0.00    +0.000 C 
ATOM     27  O   UNL     1       9.214  15.674  18.889  0.00  0.00    +0.000 OA
ATOM     28  H   UNL     1       7.685  13.301  17.501  0.00  0.00    +0.000 HD
BRANCH  26  29
ATOM     29  C   UNL     1       6.919  15.581  18.359  0.00  0.00    +0.000 A 
ATOM     30  C   UNL     1       5.937  14.692  18.121  0.00  0.00    +0.000 A 
ATOM     31  C   UNL     1       4.550  15.102  18.239  0.00  0.00    +0.000 A 
ATOM     32  C   UNL     1       3.512  14.169  18.188  0.00  0.00    +0.000 A 
ATOM     33  C   UNL     1       2.203  14.573  18.460  0.00  0.00    +0.000 A 
ATOM     34  C   UNL     1       1.925  15.928  18.635  0.00  0.00    +0.000 A 
ATOM     35  C   UNL     1       2.941  16.877  18.619  0.00  0.00    +0.000 A 
ATOM     36  C   UNL     1       4.255  16.443  18.472  0.00  0.00    +0.000 A 
ATOM     37  O   UNL     1       5.288  17.393  18.623  0.00  0.00    +0.000 OA
ATOM     38  C   UNL     1       6.604  16.978  18.666  0.00  0.00    +0.000 A 
ATOM     39  N   UNL     1       7.513  17.865  18.939  0.00  0.00    +0.000 NA
ATOM     40  H   UNL     1       7.036  18.759  19.073  0.00  0.00    +0.000 HD
BRANCH  34  41
ATOM     41  O   UNL     1       0.647  16.360  18.831  0.00  0.00    +0.000 OA
ATOM     42  H   UNL     1       0.091  16.028  18.107  0.00  0.00    +0.000 HD
ENDBRANCH  34  41
ENDBRANCH  26  29
ENDBRANCH  24  25
ENDBRANCH  23  24
ENDBRANCH  22  23
ENDBRANCH   1  22
TORSDOF 11
ENDMDL
MODEL 2
REMARK VINA RESULT:      -8.8      3.567      9.799
REMARK  Name = 
REMARK  11 active torsions:
REMARK  status: ('A' for Active; 'I' for Inactive)
REMARK    1  A    between atoms: C_6  and  O_7
REMARK    2  A    between atoms: C_12  and  C_13
REMARK    3  A    between atoms: N_15  and  C_16
REMARK    4  A    between atoms: C_16  and  C_17
REMARK    5  A    between atoms: C_17  and  C_18
REMARK    6  A    between atoms: C_18  and  C_19
REMARK    7  A    between atoms: C_19  and  C_20
REMARK    8  A    between atoms: C_20  and  C_21
REMARK    9  A    between atoms: C_21  and  N_22
REMARK   10  A    between atoms: C_23  and  C_25
REMARK   11  A    between atoms: C_30  and  O_31
REMARK                            x       y       z     vdW  Elec       q    Type
REMARK                         _______ _______ _______ _____ _____    ______ ____
ROOT
ATOM      1  C   UNL     1       7.271   6.603  17.690  0.00  0.00    +0.000 C 
ENDROOT
BRANCH   1   2
ATOM      2  C   UNL     1       7.509   8.084  17.385  0.00  0.00    +0.000 C 
BRANCH   2   3
ATOM      3  C   UNL     1       8.415   8.700  18.449  0.00  0.00    +0.000 C 
BRANCH   3   6
ATOM      4  C   UNL     1       9.370  10.910  18.976  0.00  0.00    +0.000 C 
ATOM      5  O   UNL     1       9.372  10.697  20.184  0.00  0.00    +0.000 OA
ATOM      6  N   UNL     1       8.922   9.991  18.058  0.00  0.00    +0.000 N 
ATOM      7  H   UNL     1       8.958  10.236  17.070  0.00  0.00    +0.000 HD
BRANCH   4  18
ATOM      8  N   UNL     1      12.017  11.411  17.549  0.00  0.00    +0.000 NA
ATOM      9  C   UNL     1      11.144  12.362  17.698  0.00  0.00    +0.000 A 
ATOM     10  O   UNL     1      11.470  13.590  17.162  0.00  0.00    +0.000 OA
ATOM     11  C   UNL     1      10.638  14.710  17.375  0.00  0.00    +0.000 A 
ATOM     12  C   UNL     1      11.091  15.946  16.922  0.00  0.00    +0.000 A 
ATOM     13  C   UNL     1      10.358  17.078  17.264  0.00  0.00    +0.000 A 
ATOM     14  C   UNL     1       9.182  16.972  18.005  0.00  0.00    +0.000 A 
ATOM     15  C   UNL     1       8.679  15.714  18.345  0.00  0.00    +0.000 A 
ATOM     16  C   UNL     1       9.433  14.572  18.065  0.00  0.00    +0.000 A 
ATOM     17  C   UNL     1       9.027  13.261  18.529  0.00  0.00    +0.000 A 
ATOM     18  C   UNL     1       9.850  12.202  18.381  0.00  0.00    +0.000 A 
ATOM     19  H   UNL     1      12.818  11.809  17.046  0.00  0.00    +0.000 HD
BRANCH  13  20
ATOM     20  O   UNL     1      10.756  18.327  16.891  0.00  0.00    +0.000 OA
ATOM     21  H   UNL     1       9.975  18.896  16.786  0.00  0.00    +0.000 HD
ENDBRANCH  13  20
ENDBRANCH   4  18
ENDBRANCH   3   6
ENDBRANCH   2   3
ENDBRANCH   1   2
BRANCH   1  22
ATOM     22  C   UNL     1       6.369   5.946  16.650  0.00  0.00    +0.000 C 
BRANCH  22  23
ATOM     23  C   UNL     1       5.330   5.041  17.310  0.00  0.00    +0.000 C 
BRANCH  23  24
ATOM     24  C   UNL     1       5.162   5.397  18.781  0.00  0.00    +0.000 C 
BRANCH  24  25
ATOM     25  N   UNL     1       4.232   6.476  18.960  0.00  0.00    +0.000 N 
ATOM     26  C   UNL     1       2.974   6.261  19.439  0.00  0.00    +0.000 C 
ATOM     27  O   UNL     1       2.546   5.132  19.677  0.00  0.00    +0.000 OA
ATOM     28  H   UNL     1       4.415   7.385  18.528  0.00  0.00    +0.000 HD
BRANCH  26  29
ATOM     29  C   UNL     1       2.112   7.448  19.629  0.00  0.00    +0.000 A 
ATOM     30  C   UNL     1       1.498   7.564  20.821  0.00  0.00    +0.000 A 
ATOM     31  C   UNL     1       0.723   8.754  21.120  0.00  0.00    +0.000 A 
ATOM     32  C   UNL     1       0.235   8.996  22.406  0.00  0.00    +0.000 A 
ATOM     33  C   UNL     1      -0.372  10.220  22.697  0.00  0.00    +0.000 A 
ATOM     34  C   UNL     1      -0.615  11.128  21.667  0.00  0.00    +0.000 A 
ATOM     35  C   UNL     1      -0.196  10.868  20.367  0.00  0.00    +0.000 A 
ATOM     36  C   UNL     1       0.519   9.701  20.119  0.00  0.00    +0.000 A 
ATOM     37  O   UNL     1       1.082   9.527  18.836  0.00  0.00    +0.000 OA
ATOM     38  C   UNL     1       1.946   8.476  18.600  0.00  0.00    +0.000 A 
ATOM     39  N   UNL     1       2.544   8.429  17.448  0.00  0.00    +0.000 NA
ATOM     40  H   UNL     1       2.229   9.236  16.907  0.00  0.00    +0.000 HD
BRANCH  34  41
ATOM     41  O   UNL     1      -1.269  12.300  21.908  0.00  0.00    +0.000 OA
ATOM     42  H   UNL     1      -0.612  13.008  22.013  0.00  0.00    +0.000 HD
ENDBRANCH  34  41
ENDBRANCH  26  29
ENDBRANCH  24  25
ENDBRANCH  23  24
ENDBRANCH  22  23
ENDBRANCH   1  22
TORSDOF 11
ENDMDL
MODEL 3
REMARK VINA RESULT:      -8.8      1.536      1.714
REMARK  Name = 
REMARK  11 active torsions:
REMARK  status: ('A' for Active; 'I' for Inactive)
REMARK    1  A    between atoms: C_6  and  O_7
REMARK    2  A    between atoms: C_12  and  C_13
REMARK    3  A    between atoms: N_15  and  C_16
REMARK    4  A    between atoms: C_16  and  C_17
REMARK    5  A    between atoms: C_17  and  C_18
REMARK    6  A    between atoms: C_18  and  C_19
REMARK    7  A    between atoms: C_19  and  C_20
REMARK    8  A    between atoms: C_20  and  C_21
REMARK    9  A    between atoms: C_21  and  N_22
REMARK   10  A    between atoms: C_23  and  C_25
REMARK   11  A    between atoms: C_30  and  O_31
REMARK                            x       y       z     vdW  Elec       q    Type
REMARK                         _______ _______ _______ _____ _____    ______ ____
ROOT
ATOM      1  C   UNL     1       9.203  10.887  19.216  0.00  0.00    +0.000 C 
ENDROOT
BRANCH   1   2
ATOM      2  C   UNL     1       9.296   9.440  18.730  0.00  0.00    +0.000 C 
BRANCH   2   3
ATOM      3  C   UNL     1       8.170   9.144  17.742  0.00  0.00    +0.000 C 
BRANCH   3   6
ATOM      4  C   UNL     1       7.215   6.898  17.401  0.00  0.00    +0.000 C 
ATOM      5  O   UNL     1       7.779   6.747  16.322  0.00  0.00    +0.000 OA
ATOM      6  N   UNL     1       7.350   8.034  18.160  0.00  0.00    +0.000 N 
ATOM      7  H   UNL     1       6.857   8.085  19.049  0.00  0.00    +0.000 HD
BRANCH   4  18
ATOM      8  N   UNL     1       7.564   5.458  20.065  0.00  0.00    +0.000 NA
ATOM      9  C   UNL     1       6.547   5.210  19.296  0.00  0.00    +0.000 A 
ATOM     10  O   UNL     1       5.634   4.285  19.757  0.00  0.00    +0.000 OA
ATOM     11  C   UNL     1       4.560   3.866  18.942  0.00  0.00    +0.000 A 
ATOM     12  C   UNL     1       3.754   2.835  19.415  0.00  0.00    +0.000 A 
ATOM     13  C   UNL     1       2.794   2.307  18.557  0.00  0.00    +0.000 A 
ATOM     14  C   UNL     1       2.619   2.825  17.275  0.00  0.00    +0.000 A 
ATOM     15  C   UNL     1       3.353   3.940  16.863  0.00  0.00    +0.000 A 
ATOM     16  C   UNL     1       4.364   4.442  17.686  0.00  0.00    +0.000 A 
ATOM     17  C   UNL     1       5.249   5.499  17.242  0.00  0.00    +0.000 A 
ATOM     18  C   UNL     1       6.312   5.856  17.994  0.00  0.00    +0.000 A 
ATOM     19  H   UNL     1       7.471   4.862  20.896  0.00  0.00    +0.000 HD
BRANCH  13  20
ATOM     20  O   UNL     1       1.993   1.270  18.932  0.00  0.00    +0.000 OA
ATOM     21  H   UNL     1       2.375   0.834  19.713  0.00  0.00    +0.000 HD
ENDBRANCH  13  20
ENDBRANCH   4  18
ENDBRANCH   3   6
ENDBRANCH   2   3
ENDBRANCH   1   2
BRANCH   1  22
ATOM     22  C   UNL     1       9.061  11.868  18.057  0.00  0.00    +0.000 C 
BRANCH  22  23
ATOM     23  C   UNL     1      10.410  12.486  17.686  0.00  0.00    +0.000 C 
BRANCH  23  24
ATOM     24  C   UNL     1      10.255  13.967  17.369  0.00  0.00    +0.000 C 
BRANCH  24  25
ATOM     25  N   UNL     1       8.915  14.422  17.616  0.00  0.00    +0.000 N 
ATOM     26  C   UNL     1       8.669  15.621  18.216  0.00  0.00    +0.000 C 
ATOM     27  O   UNL     1       9.572  16.341  18.640  0.00  0.00    +0.000 OA
ATOM     28  H   UNL     1       8.133  13.767  17.549  0.00  0.00    +0.000 HD
BRANCH  26  29
ATOM     29  C   UNL     1       7.253  16.015  18.380  0.00  0.00    +0.000 A 
ATOM     30  C   UNL     1       6.327  15.114  18.001  0.00  0.00    +0.000 A 
ATOM     31  C   UNL     1       4.921  15.385  18.230  0.00  0.00    +0.000 A 
ATOM     32  C   UNL     1       3.951  14.401  18.027  0.00  0.00    +0.000 A 
ATOM     33  C   UNL     1       2.627  14.644  18.404  0.00  0.00    +0.000 A 
ATOM     34  C   UNL     1       2.261  15.916  18.842  0.00  0.00    +0.000 A 
ATOM     35  C   UNL     1       3.206  16.927  18.982  0.00  0.00    +0.000 A 
ATOM     36  C   UNL     1       4.540  16.632  18.723  0.00  0.00    +0.000 A 
ATOM     37  O   UNL     1       5.508  17.613  19.027  0.00  0.00    +0.000 OA
ATOM     38  C   UNL     1       6.851  17.300  18.957  0.00  0.00    +0.000 A 
ATOM     39  N   UNL     1       7.704  18.187  19.371  0.00  0.00    +0.000 NA
ATOM     40  H   UNL     1       7.170  19.000  19.686  0.00  0.00    +0.000 HD
BRANCH  34  41
ATOM     41  O   UNL     1       0.964  16.203  19.149  0.00  0.00    +0.000 OA
ATOM     42  H   UNL     1       0.443  15.385  19.097  0.00  0.00    +0.000 HD
ENDBRANCH  34  41
ENDBRANCH  26  29
ENDBRANCH  24  25
ENDBRANCH  23  24
ENDBRANCH  22  23
ENDBRANCH   1  22
TORSDOF 11
ENDMDL
MODEL 4
REMARK VINA RESULT:      -8.6      1.074     10.556
REMARK  Name = 
REMARK  11 active torsions:
REMARK  status: ('A' for Active; 'I' for Inactive)
REMARK    1  A    between atoms: C_6  and  O_7
REMARK    2  A    between atoms: C_12  and  C_13
REMARK    3  A    between atoms: N_15  and  C_16
REMARK    4  A    between atoms: C_16  and  C_17
REMARK    5  A    between atoms: C_17  and  C_18
REMARK    6  A    between atoms: C_18  and  C_19
REMARK    7  A    between atoms: C_19  and  C_20
REMARK    8  A    between atoms: C_20  and  C_21
REMARK    9  A    between atoms: C_21  and  N_22
REMARK   10  A    between atoms: C_23  and  C_25
REMARK   11  A    between atoms: C_30  and  O_31
REMARK                            x       y       z     vdW  Elec       q    Type
REMARK                         _______ _______ _______ _____ _____    ______ ____
ROOT
ATOM      1  C   UNL     1       9.487  11.383  19.052  0.00  0.00    +0.000 C 
ENDROOT
BRANCH   1   2
ATOM      2  C   UNL     1      10.237  11.940  17.840  0.00  0.00    +0.000 C 
BRANCH   2   3
ATOM      3  C   UNL     1      10.309  13.464  17.922  0.00  0.00    +0.000 C 
BRANCH   3   6
ATOM      4  C   UNL     1       8.780  15.396  17.873  0.00  0.00    +0.000 C 
ATOM      5  O   UNL     1       9.652  16.162  17.475  0.00  0.00    +0.000 OA
ATOM      6  N   UNL     1       9.013  14.065  18.117  0.00  0.00    +0.000 N 
ATOM      7  H   UNL     1       8.239  13.488  18.438  0.00  0.00    +0.000 HD
BRANCH   4  18
ATOM      8  N   UNL     1       7.884  18.072  19.025  0.00  0.00    +0.000 NA
ATOM      9  C   UNL     1       7.020  17.160  18.698  0.00  0.00    +0.000 A 
ATOM     10  O   UNL     1       5.689  17.474  18.879  0.00  0.00    +0.000 OA
ATOM     11  C   UNL     1       4.686  16.505  18.661  0.00  0.00    +0.000 A 
ATOM     12  C   UNL     1       3.377  16.846  18.990  0.00  0.00    +0.000 A 
ATOM     13  C   UNL     1       2.406  15.852  18.930  0.00  0.00    +0.000 A 
ATOM     14  C   UNL     1       2.728  14.562  18.513  0.00  0.00    +0.000 A 
ATOM     15  C   UNL     1       4.021  14.271  18.069  0.00  0.00    +0.000 A 
ATOM     16  C   UNL     1       5.022  15.238  18.183  0.00  0.00    +0.000 A 
ATOM     17  C   UNL     1       6.406  14.938  17.877  0.00  0.00    +0.000 A 
ATOM     18  C   UNL     1       7.373  15.842  18.144  0.00  0.00    +0.000 A 
ATOM     19  H   UNL     1       7.356  18.876  19.386  0.00  0.00    +0.000 HD
BRANCH  13  20
ATOM     20  O   UNL     1       1.110  16.096  19.273  0.00  0.00    +0.000 OA
ATOM     21  H   UNL     1       0.633  15.253  19.350  0.00  0.00    +0.000 HD
ENDBRANCH  13  20
ENDBRANCH   4  18
ENDBRANCH   3   6
ENDBRANCH   2   3
ENDBRANCH   1   2
BRANCH   1  22
ATOM     22  C   UNL     1       9.201   9.892  18.907  0.00  0.00    +0.000 C 
BRANCH  22  23
ATOM     23  C   UNL     1       8.045   9.642  17.937  0.00  0.00    +0.000 C 
BRANCH  23  24
ATOM     24  C   UNL     1       8.128   8.240  17.350  0.00  0.00    +0.000 C 
BRANCH  24  25
ATOM     25  N   UNL     1       7.291   7.318  18.065  0.00  0.00    +0.000 N 
ATOM     26  C   UNL     1       6.154   6.811  17.511  0.00  0.00    +0.000 C 
ATOM     27  O   UNL     1       5.747   7.166  16.405  0.00  0.00    +0.000 OA
ATOM     28  H   UNL     1       7.411   7.196  19.073  0.00  0.00    +0.000 HD
BRANCH  26  29
ATOM     29  C   UNL     1       5.389   5.833  18.315  0.00  0.00    +0.000 A 
ATOM     30  C   UNL     1       4.225   6.260  18.838  0.00  0.00    +0.000 A 
ATOM     31  C   UNL     1       3.369   5.328  19.548  0.00  0.00    +0.000 A 
ATOM     32  C   UNL     1       2.075   5.684  19.935  0.00  0.00    +0.000 A 
ATOM     33  C   UNL     1       1.223   4.718  20.477  0.00  0.00    +0.000 A 
ATOM     34  C   UNL     1       1.721   3.447  20.761  0.00  0.00    +0.000 A 
ATOM     35  C   UNL     1       3.030   3.100  20.444  0.00  0.00    +0.000 A 
ATOM     36  C   UNL     1       3.826   4.034  19.790  0.00  0.00    +0.000 A 
ATOM     37  O   UNL     1       5.092   3.619  19.326  0.00  0.00    +0.000 OA
ATOM     38  C   UNL     1       5.838   4.454  18.518  0.00  0.00    +0.000 A 
ATOM     39  N   UNL     1       6.934   3.983  18.005  0.00  0.00    +0.000 NA
ATOM     40  H   UNL     1       7.034   3.020  18.330  0.00  0.00    +0.000 HD
BRANCH  34  41
ATOM     41  O   UNL     1       0.934   2.504  21.355  0.00  0.00    +0.000 OA
ATOM     42  H   UNL     1       0.241   2.237  20.729  0.00  0.00    +0.000 HD
ENDBRANCH  34  41
ENDBRANCH  26  29
ENDBRANCH  24  25
ENDBRANCH  23  24
ENDBRANCH  22  23
ENDBRANCH   1  22
TORSDOF 11
ENDMDL
MODEL 5
REMARK VINA RESULT:      -8.6      5.803      7.960
REMARK  Name = 
REMARK  11 active torsions:
REMARK  status: ('A' for Active; 'I' for Inactive)
REMARK    1  A    between atoms: C_6  and  O_7
REMARK    2  A    between atoms: C_12  and  C_13
REMARK    3  A    between atoms: N_15  and  C_16
REMARK    4  A    between atoms: C_16  and  C_17
REMARK    5  A    between atoms: C_17  and  C_18
REMARK    6  A    between atoms: C_18  and  C_19
REMARK    7  A    between atoms: C_19  and  C_20
REMARK    8  A    between atoms: C_20  and  C_21
REMARK    9  A    between atoms: C_21  and  N_22
REMARK   10  A    between atoms: C_23  and  C_25
REMARK   11  A    between atoms: C_30  and  O_31
REMARK                            x       y       z     vdW  Elec       q    Type
REMARK                         _______ _______ _______ _____ _____    ______ ____
ROOT
ATOM      1  C   UNL     1       1.637   2.411  20.256  0.00  0.00    +0.000 C 
ENDROOT
BRANCH   1   2
ATOM      2  C   UNL     1       2.600   2.112  19.105  0.00  0.00    +0.000 C 
BRANCH   2   3
ATOM      3  C   UNL     1       3.998   2.625  19.445  0.00  0.00    +0.000 C 
BRANCH   3   6
ATOM      4  C   UNL     1       5.604   4.144  18.354  0.00  0.00    +0.000 C 
ATOM      5  O   UNL     1       5.873   4.722  19.402  0.00  0.00    +0.000 OA
ATOM      6  N   UNL     1       4.701   3.110  18.284  0.00  0.00    +0.000 N 
ATOM      7  H   UNL     1       4.534   2.673  17.380  0.00  0.00    +0.000 HD
BRANCH   4  18
ATOM      8  N   UNL     1       7.410   6.532  17.783  0.00  0.00    +0.000 NA
ATOM      9  C   UNL     1       7.098   5.688  16.847  0.00  0.00    +0.000 A 
ATOM     10  O   UNL     1       7.641   5.918  15.600  0.00  0.00    +0.000 OA
ATOM     11  C   UNL     1       7.267   5.123  14.495  0.00  0.00    +0.000 A 
ATOM     12  C   UNL     1       7.748   5.492  13.243  0.00  0.00    +0.000 A 
ATOM     13  C   UNL     1       7.262   4.815  12.128  0.00  0.00    +0.000 A 
ATOM     14  C   UNL     1       6.350   3.770  12.269  0.00  0.00    +0.000 A 
ATOM     15  C   UNL     1       5.974   3.333  13.542  0.00  0.00    +0.000 A 
ATOM     16  C   UNL     1       6.402   4.042  14.667  0.00  0.00    +0.000 A 
ATOM     17  C   UNL     1       5.921   3.720  15.995  0.00  0.00    +0.000 A 
ATOM     18  C   UNL     1       6.227   4.517  17.040  0.00  0.00    +0.000 A 
ATOM     19  H   UNL     1       8.020   7.243  17.362  0.00  0.00    +0.000 HD
BRANCH  13  20
ATOM     20  O   UNL     1       7.654   5.142  10.865  0.00  0.00    +0.000 OA
ATOM     21  H   UNL     1       8.288   5.878  10.906  0.00  0.00    +0.000 HD
ENDBRANCH  13  20
ENDBRANCH   4  18
ENDBRANCH   3   6
ENDBRANCH   2   3
ENDBRANCH   1   2
BRANCH   1  22
ATOM     22  C   UNL     1       0.791   3.650  19.983  0.00  0.00    +0.000 C 
BRANCH  22  23
ATOM     23  C   UNL     1       1.662   4.831  19.554  0.00  0.00    +0.000 C 
BRANCH  23  24
ATOM     24  C   UNL     1       2.231   5.551  20.770  0.00  0.00    +0.000 C 
BRANCH  24  25
ATOM     25  N   UNL     1       1.573   6.808  20.994  0.00  0.00    +0.000 N 
ATOM     26  C   UNL     1       1.754   7.866  20.153  0.00  0.00    +0.000 C 
ATOM     27  O   UNL     1       2.538   7.825  19.205  0.00  0.00    +0.000 OA
ATOM     28  H   UNL     1       1.137   7.002  21.898  0.00  0.00    +0.000 HD
BRANCH  26  29
ATOM     29  C   UNL     1       0.993   9.099  20.449  0.00  0.00    +0.000 A 
ATOM     30  C   UNL     1       0.216   9.581  19.461  0.00  0.00    +0.000 A 
ATOM     31  C   UNL     1      -0.640  10.724  19.710  0.00  0.00    +0.000 A 
ATOM     32  C   UNL     1      -1.596  11.132  18.776  0.00  0.00    +0.000 A 
ATOM     33  C   UNL     1      -2.508  12.136  19.109  0.00  0.00    +0.000 A 
ATOM     34  C   UNL     1      -2.362  12.822  20.314  0.00  0.00    +0.000 A 
ATOM     35  C   UNL     1      -1.370  12.473  21.224  0.00  0.00    +0.000 A 
ATOM     36  C   UNL     1      -0.551  11.388  20.932  0.00  0.00    +0.000 A 
ATOM     37  O   UNL     1       0.339  10.940  21.931  0.00  0.00    +0.000 OA
ATOM     38  C   UNL     1       1.038   9.762  21.753  0.00  0.00    +0.000 A 
ATOM     39  N   UNL     1       1.743   9.318  22.750  0.00  0.00    +0.000 NA
ATOM     40  H   UNL     1       1.633   9.980  23.520  0.00  0.00    +0.000 HD
BRANCH  34  41
ATOM     41  O   UNL     1      -3.192  13.855  20.635  0.00  0.00    +0.000 OA
ATOM     42  H   UNL     1      -3.933  13.867  20.006  0.00  0.00    +0.000 HD
ENDBRANCH  34  41
ENDBRANCH  26  29
ENDBRANCH  24  25
ENDBRANCH  23  24
ENDBRANCH  22  23
ENDBRANCH   1  22
TORSDOF 11
ENDMDL
MODEL 6
REMARK VINA RESULT:      -8.6      5.407      7.764
REMARK  Name = 
REMARK  11 active torsions:
REMARK  status: ('A' for Active; 'I' for Inactive)
REMARK    1  A    between atoms: C_6  and  O_7
REMARK    2  A    between atoms: C_12  and  C_13
REMARK    3  A    between atoms: N_15  and  C_16
REMARK    4  A    between atoms: C_16  and  C_17
REMARK    5  A    between atoms: C_17  and  C_18
REMARK    6  A    between atoms: C_18  and  C_19
REMARK    7  A    between atoms: C_19  and  C_20
REMARK    8  A    between atoms: C_20  and  C_21
REMARK    9  A    between atoms: C_21  and  N_22
REMARK   10  A    between atoms: C_23  and  C_25
REMARK   11  A    between atoms: C_30  and  O_31
REMARK                            x       y       z     vdW  Elec       q    Type
REMARK                         _______ _______ _______ _____ _____    ______ ____
ROOT
ATOM      1  C   UNL     1       0.665   3.599  19.625  0.00  0.00    +0.000 C 
ENDROOT
BRANCH   1   2
ATOM      2  C   UNL     1       0.298   2.284  18.932  0.00  0.00    +0.000 C 
BRANCH   2   3
ATOM      3  C   UNL     1       1.561   1.587  18.428  0.00  0.00    +0.000 C 
BRANCH   3   6
ATOM      4  C   UNL     1       3.183   3.270  17.647  0.00  0.00    +0.000 C 
ATOM      5  O   UNL     1       2.607   3.428  16.576  0.00  0.00    +0.000 OA
ATOM      6  N   UNL     1       2.742   2.393  18.609  0.00  0.00    +0.000 N 
ATOM      7  H   UNL     1       3.268   2.321  19.477  0.00  0.00    +0.000 HD
BRANCH   4  18
ATOM      8  N   UNL     1       5.127   2.613  19.902  0.00  0.00    +0.000 NA
ATOM      9  C   UNL     1       5.330   3.626  19.115  0.00  0.00    +0.000 A 
ATOM     10  O   UNL     1       6.472   4.366  19.340  0.00  0.00    +0.000 OA
ATOM     11  C   UNL     1       6.716   5.550  18.612  0.00  0.00    +0.000 A 
ATOM     12  C   UNL     1       7.817   6.319  18.981  0.00  0.00    +0.000 A 
ATOM     13  C   UNL     1       7.978   7.563  18.379  0.00  0.00    +0.000 A 
ATOM     14  C   UNL     1       7.086   8.007  17.405  0.00  0.00    +0.000 A 
ATOM     15  C   UNL     1       6.059   7.170  16.960  0.00  0.00    +0.000 A 
ATOM     16  C   UNL     1       5.844   5.946  17.597  0.00  0.00    +0.000 A 
ATOM     17  C   UNL     1       4.706   5.111  17.274  0.00  0.00    +0.000 A 
ATOM     18  C   UNL     1       4.436   4.013  18.010  0.00  0.00    +0.000 A 
ATOM     19  H   UNL     1       5.902   2.590  20.575  0.00  0.00    +0.000 HD
BRANCH  13  20
ATOM     20  O   UNL     1       9.008   8.391  18.713  0.00  0.00    +0.000 OA
ATOM     21  H   UNL     1       9.116   9.066  18.022  0.00  0.00    +0.000 HD
ENDBRANCH  13  20
ENDBRANCH   4  18
ENDBRANCH   3   6
ENDBRANCH   2   3
ENDBRANCH   1   2
BRANCH   1  22
ATOM     22  C   UNL     1       1.258   3.365  21.010  0.00  0.00    +0.000 C 
BRANCH  22  23
ATOM     23  C   UNL     1       2.220   4.488  21.398  0.00  0.00    +0.000 C 
BRANCH  23  24
ATOM     24  C   UNL     1       2.267   5.556  20.313  0.00  0.00    +0.000 C 
BRANCH  24  25
ATOM     25  N   UNL     1       1.652   6.778  20.749  0.00  0.00    +0.000 N 
ATOM     26  C   UNL     1       1.728   7.919  20.006  0.00  0.00    +0.000 C 
ATOM     27  O   UNL     1       2.381   7.982  18.965  0.00  0.00    +0.000 OA
ATOM     28  H   UNL     1       1.339   6.875  21.717  0.00  0.00    +0.000 HD
BRANCH  26  29
ATOM     29  C   UNL     1       1.020   9.109  20.524  0.00  0.00    +0.000 A 
ATOM     30  C   UNL     1       0.178   9.728  19.676  0.00  0.00    +0.000 A 
ATOM     31  C   UNL     1      -0.631  10.837  20.144  0.00  0.00    +0.000 A 
ATOM     32  C   UNL     1      -1.648  11.377  19.353  0.00  0.00    +0.000 A 
ATOM     33  C   UNL     1      -2.509  12.337  19.890  0.00  0.00    +0.000 A 
ATOM     34  C   UNL     1      -2.254  12.853  21.160  0.00  0.00    +0.000 A 
ATOM     35  C   UNL     1      -1.201  12.374  21.932  0.00  0.00    +0.000 A 
ATOM     36  C   UNL     1      -0.431  11.329  21.432  0.00  0.00    +0.000 A 
ATOM     37  O   UNL     1       0.525  10.740  22.287  0.00  0.00    +0.000 OA
ATOM     38  C   UNL     1       1.182   9.590  21.897  0.00  0.00    +0.000 A 
ATOM     39  N   UNL     1       1.953   9.008  22.765  0.00  0.00    +0.000 NA
ATOM     40  H   UNL     1       1.920   9.561  23.624  0.00  0.00    +0.000 HD
BRANCH  34  41
ATOM     41  O   UNL     1      -3.034  13.842  21.683  0.00  0.00    +0.000 OA
ATOM     42  H   UNL     1      -3.918  13.785  21.285  0.00  0.00    +0.000 HD
ENDBRANCH  34  41
ENDBRANCH  26  29
ENDBRANCH  24  25
ENDBRANCH  23  24
ENDBRANCH  22  23
ENDBRANCH   1  22
TORSDOF 11
ENDMDL
MODEL 7
REMARK VINA RESULT:      -8.4      4.968     10.658
REMARK  Name = 
REMARK  11 active torsions:
REMARK  status: ('A' for Active; 'I' for Inactive)
REMARK    1  A    between atoms: C_6  and  O_7
REMARK    2  A    between atoms: C_12  and  C_13
REMARK    3  A    between atoms: N_15  and  C_16
REMARK    4  A    between atoms: C_16  and  C_17
REMARK    5  A    between atoms: C_17  and  C_18
REMARK    6  A    between atoms: C_18  and  C_19
REMARK    7  A    between atoms: C_19  and  C_20
REMARK    8  A    between atoms: C_20  and  C_21
REMARK    9  A    between atoms: C_21  and  N_22
REMARK   10  A    between atoms: C_23  and  C_25
REMARK   11  A    between atoms: C_30  and  O_31
REMARK                            x       y       z     vdW  Elec       q    Type
REMARK                         _______ _______ _______ _____ _____    ______ ____
ROOT
ATOM      1  C   UNL     1       1.066   5.450  19.968  0.00  0.00    +0.000 C 
ENDROOT
BRANCH   1   2
ATOM      2  C   UNL     1       1.837   5.591  18.654  0.00  0.00    +0.000 C 
BRANCH   2   3
ATOM      3  C   UNL     1       2.858   6.722  18.763  0.00  0.00    +0.000 C 
BRANCH   3   6
ATOM      4  C   UNL     1       1.863   8.952  18.428  0.00  0.00    +0.000 C 
ATOM      5  O   UNL     1       1.962   8.888  17.207  0.00  0.00    +0.000 OA
ATOM      6  N   UNL     1       2.274   7.941  19.263  0.00  0.00    +0.000 N 
ATOM      7  H   UNL     1       2.153   8.062  20.267  0.00  0.00    +0.000 HD
BRANCH   4  18
ATOM      8  N   UNL     1       2.384  11.887  17.795  0.00  0.00    +0.000 NA
ATOM      9  C   UNL     1       1.587  11.541  18.760  0.00  0.00    +0.000 A 
ATOM     10  O   UNL     1       0.981  12.563  19.459  0.00  0.00    +0.000 OA
ATOM     11  C   UNL     1       0.191  12.286  20.596  0.00  0.00    +0.000 A 
ATOM     12  C   UNL     1      -0.281  13.369  21.333  0.00  0.00    +0.000 A 
ATOM     13  C   UNL     1      -0.924  13.110  22.539  0.00  0.00    +0.000 A 
ATOM     14  C   UNL     1      -1.125  11.802  22.976  0.00  0.00    +0.000 A 
ATOM     15  C   UNL     1      -0.754  10.727  22.164  0.00  0.00    +0.000 A 
ATOM     16  C   UNL     1      -0.051  10.968  20.981  0.00  0.00    +0.000 A 
ATOM     17  C   UNL     1       0.484   9.884  20.182  0.00  0.00    +0.000 A 
ATOM     18  C   UNL     1       1.290  10.147  19.132  0.00  0.00    +0.000 A 
ATOM     19  H   UNL     1       2.404  12.914  17.770  0.00  0.00    +0.000 HD
BRANCH  13  20
ATOM     20  O   UNL     1      -1.380  14.116  23.337  0.00  0.00    +0.000 OA
ATOM     21  H   UNL     1      -2.352  14.115  23.332  0.00  0.00    +0.000 HD
ENDBRANCH  13  20
ENDBRANCH   4  18
ENDBRANCH   3   6
ENDBRANCH   2   3
ENDBRANCH   1   2
BRANCH   1  22
ATOM     22  C   UNL     1       1.275   4.081  20.606  0.00  0.00    +0.000 C 
BRANCH  22  23
ATOM     23  C   UNL     1       0.799   2.960  19.681  0.00  0.00    +0.000 C 
BRANCH  23  24
ATOM     24  C   UNL     1       1.939   2.002  19.364  0.00  0.00    +0.000 C 
BRANCH  24  25
ATOM     25  N   UNL     1       2.926   2.618  18.523  0.00  0.00    +0.000 N 
ATOM     26  C   UNL     1       4.131   3.024  19.016  0.00  0.00    +0.000 C 
ATOM     27  O   UNL     1       4.408   2.951  20.213  0.00  0.00    +0.000 OA
ATOM     28  H   UNL     1       2.665   2.961  17.596  0.00  0.00    +0.000 HD
BRANCH  26  29
ATOM     29  C   UNL     1       5.093   3.603  18.055  0.00  0.00    +0.000 A 
ATOM     30  C   UNL     1       4.985   3.200  16.775  0.00  0.00    +0.000 A 
ATOM     31  C   UNL     1       5.823   3.803  15.756  0.00  0.00    +0.000 A 
ATOM     32  C   UNL     1       5.608   3.552  14.399  0.00  0.00    +0.000 A 
ATOM     33  C   UNL     1       6.329   4.267  13.439  0.00  0.00    +0.000 A 
ATOM     34  C   UNL     1       7.358   5.116  13.845  0.00  0.00    +0.000 A 
ATOM     35  C   UNL     1       7.629   5.322  15.194  0.00  0.00    +0.000 A 
ATOM     36  C   UNL     1       6.819   4.700  16.138  0.00  0.00    +0.000 A 
ATOM     37  O   UNL     1       6.996   5.045  17.495  0.00  0.00    +0.000 OA
ATOM     38  C   UNL     1       6.100   4.593  18.443  0.00  0.00    +0.000 A 
ATOM     39  N   UNL     1       6.222   5.040  19.656  0.00  0.00    +0.000 NA
ATOM     40  H   UNL     1       7.017   5.681  19.667  0.00  0.00    +0.000 HD
BRANCH  34  41
ATOM     41  O   UNL     1       8.126   5.772  12.929  0.00  0.00    +0.000 OA
ATOM     42  H   UNL     1       8.055   5.312  12.076  0.00  0.00    +0.000 HD
ENDBRANCH  34  41
ENDBRANCH  26  29
ENDBRANCH  24  25
ENDBRANCH  23  24
ENDBRANCH  22  23
ENDBRANCH   1  22
TORSDOF 11
ENDMDL
MODEL 8
REMARK VINA RESULT:      -8.4      6.326     12.245
REMARK  Name = 
REMARK  11 active torsions:
REMARK  status: ('A' for Active; 'I' for Inactive)
REMARK    1  A    between atoms: C_6  and  O_7
REMARK    2  A    between atoms: C_12  and  C_13
REMARK    3  A    between atoms: N_15  and  C_16
REMARK    4  A    between atoms: C_16  and  C_17
REMARK    5  A    between atoms: C_17  and  C_18
REMARK    6  A    between atoms: C_18  and  C_19
REMARK    7  A    between atoms: C_19  and  C_20
REMARK    8  A    between atoms: C_20  and  C_21
REMARK    9  A    between atoms: C_21  and  N_22
REMARK   10  A    between atoms: C_23  and  C_25
REMARK   11  A    between atoms: C_30  and  O_31
REMARK                            x       y       z     vdW  Elec       q    Type
REMARK                         _______ _______ _______ _____ _____    ______ ____
ROOT
ATOM      1  C   UNL     1      -1.944  10.157  17.230  0.00  0.00    +0.000 C 
ENDROOT
BRANCH   1   2
ATOM      2  C   UNL     1      -3.474  10.143  17.189  0.00  0.00    +0.000 C 
BRANCH   2   3
ATOM      3  C   UNL     1      -4.013  11.572  17.239  0.00  0.00    +0.000 C 
BRANCH   3   6
ATOM      4  C   UNL     1      -4.962  12.066  19.459  0.00  0.00    +0.000 C 
ATOM      5  O   UNL     1      -6.024  11.506  19.205  0.00  0.00    +0.000 OA
ATOM      6  N   UNL     1      -3.927  12.145  18.559  0.00  0.00    +0.000 N 
ATOM      7  H   UNL     1      -3.073  12.619  18.843  0.00  0.00    +0.000 HD
BRANCH   4  18
ATOM      8  N   UNL     1      -6.955  13.575  21.204  0.00  0.00    +0.000 NA
ATOM      9  C   UNL     1      -5.716  13.437  21.567  0.00  0.00    +0.000 A 
ATOM     10  O   UNL     1      -5.362  13.987  22.780  0.00  0.00    +0.000 OA
ATOM     11  C   UNL     1      -4.015  13.989  23.203  0.00  0.00    +0.000 A 
ATOM     12  C   UNL     1      -3.707  14.677  24.373  0.00  0.00    +0.000 A 
ATOM     13  C   UNL     1      -2.366  14.821  24.715  0.00  0.00    +0.000 A 
ATOM     14  C   UNL     1      -1.363  14.256  23.929  0.00  0.00    +0.000 A 
ATOM     15  C   UNL     1      -1.698  13.465  22.827  0.00  0.00    +0.000 A 
ATOM     16  C   UNL     1      -3.034  13.364  22.433  0.00  0.00    +0.000 A 
ATOM     17  C   UNL     1      -3.417  12.680  21.214  0.00  0.00    +0.000 A 
ATOM     18  C   UNL     1      -4.693  12.731  20.778  0.00  0.00    +0.000 A 
ATOM     19  H   UNL     1      -7.431  14.111  21.939  0.00  0.00    +0.000 HD
BRANCH  13  20
ATOM     20  O   UNL     1      -1.980  15.513  25.824  0.00  0.00    +0.000 OA
ATOM     21  H   UNL     1      -1.895  14.899  26.573  0.00  0.00    +0.000 HD
ENDBRANCH  13  20
ENDBRANCH   4  18
ENDBRANCH   3   6
ENDBRANCH   2   3
ENDBRANCH   1   2
BRANCH   1  22
ATOM     22  C   UNL     1      -1.413  10.048  18.655  0.00  0.00    +0.000 C 
BRANCH  22  23
ATOM     23  C   UNL     1      -0.514  11.235  19.003  0.00  0.00    +0.000 C 
BRANCH  23  24
ATOM     24  C   UNL     1       0.651  10.790  19.877  0.00  0.00    +0.000 C 
BRANCH  24  25
ATOM     25  N   UNL     1       1.134   9.493  19.492  0.00  0.00    +0.000 N 
ATOM     26  C   UNL     1       1.522   8.573  20.421  0.00  0.00    +0.000 C 
ATOM     27  O   UNL     1       1.547   8.826  21.625  0.00  0.00    +0.000 OA
ATOM     28  H   UNL     1       1.402   9.315  18.522  0.00  0.00    +0.000 HD
BRANCH  26  29
ATOM     29  C   UNL     1       1.958   7.252  19.920  0.00  0.00    +0.000 A 
ATOM     30  C   UNL     1       1.611   6.182  20.659  0.00  0.00    +0.000 A 
ATOM     31  C   UNL     1       1.910   4.846  20.177  0.00  0.00    +0.000 A 
ATOM     32  C   UNL     1       1.400   3.714  20.817  0.00  0.00    +0.000 A 
ATOM     33  C   UNL     1       1.577   2.454  20.241  0.00  0.00    +0.000 A 
ATOM     34  C   UNL     1       2.384   2.322  19.112  0.00  0.00    +0.000 A 
ATOM     35  C   UNL     1       2.957   3.435  18.505  0.00  0.00    +0.000 A 
ATOM     36  C   UNL     1       2.668   4.695  19.017  0.00  0.00    +0.000 A 
ATOM     37  O   UNL     1       3.116   5.824  18.298  0.00  0.00    +0.000 OA
ATOM     38  C   UNL     1       2.700   7.087  18.668  0.00  0.00    +0.000 A 
ATOM     39  N   UNL     1       3.027   8.083  17.902  0.00  0.00    +0.000 NA
ATOM     40  H   UNL     1       3.569   7.704  17.124  0.00  0.00    +0.000 HD
BRANCH  34  41
ATOM     41  O   UNL     1       2.633   1.097  18.569  0.00  0.00    +0.000 OA
ATOM     42  H   UNL     1       1.856   0.819  18.056  0.00  0.00    +0.000 HD
ENDBRANCH  34  41
ENDBRANCH  26  29
ENDBRANCH  24  25
ENDBRANCH  23  24
ENDBRANCH  22  23
ENDBRANCH   1  22
TORSDOF 11
ENDMDL
MODEL 9
REMARK VINA RESULT:      -8.3      5.896     10.886
REMARK  Name = 
REMARK  11 active torsions:
REMARK  status: ('A' for Active; 'I' for Inactive)
REMARK    1  A    between atoms: C_6  and  O_7
REMARK    2  A    between atoms: C_12  and  C_13
REMARK    3  A    between atoms: N_15  and  C_16
REMARK    4  A    between atoms: C_16  and  C_17
REMARK    5  A    between atoms: C_17  and  C_18
REMARK    6  A    between atoms: C_18  and  C_19
REMARK    7  A    between atoms: C_19  and  C_20
REMARK    8  A    between atoms: C_20  and  C_21
REMARK    9  A    between atoms: C_21  and  N_22
REMARK   10  A    between atoms: C_23  and  C_25
REMARK   11  A    between atoms: C_30  and  O_31
REMARK                            x       y       z     vdW  Elec       q    Type
REMARK                         _______ _______ _______ _____ _____    ______ ____
ROOT
ATOM      1  C   UNL     1       1.532   5.845  20.780  0.00  0.00    +0.000 C 
ENDROOT
BRANCH   1   2
ATOM      2  C   UNL     1       2.812   6.225  20.032  0.00  0.00    +0.000 C 
BRANCH   2   3
ATOM      3  C   UNL     1       2.485   7.171  18.878  0.00  0.00    +0.000 C 
BRANCH   3   6
ATOM      4  C   UNL     1       1.299   9.302  18.526  0.00  0.00    +0.000 C 
ATOM      5  O   UNL     1       1.988   9.605  17.558  0.00  0.00    +0.000 OA
ATOM      6  N   UNL     1       1.472   8.135  19.229  0.00  0.00    +0.000 N 
ATOM      7  H   UNL     1       0.857   7.948  20.018  0.00  0.00    +0.000 HD
BRANCH   4  18
ATOM      8  N   UNL     1      -1.244  10.137  17.068  0.00  0.00    +0.000 NA
ATOM      9  C   UNL     1      -1.004  10.538  18.280  0.00  0.00    +0.000 A 
ATOM     10  O   UNL     1      -1.962  11.335  18.870  0.00  0.00    +0.000 OA
ATOM     11  C   UNL     1      -1.736  11.912  20.138  0.00  0.00    +0.000 A 
ATOM     12  C   UNL     1      -2.684  12.811  20.616  0.00  0.00    +0.000 A 
ATOM     13  C   UNL     1      -2.397  13.505  21.788  0.00  0.00    +0.000 A 
ATOM     14  C   UNL     1      -1.212  13.274  22.483  0.00  0.00    +0.000 A 
ATOM     15  C   UNL     1      -0.330  12.279  22.054  0.00  0.00    +0.000 A 
ATOM     16  C   UNL     1      -0.571  11.619  20.847  0.00  0.00    +0.000 A 
ATOM     17  C   UNL     1       0.388  10.688  20.286  0.00  0.00    +0.000 A 
ATOM     18  C   UNL     1       0.202  10.185  19.047  0.00  0.00    +0.000 A 
ATOM     19  H   UNL     1      -2.146  10.540  16.787  0.00  0.00    +0.000 HD
BRANCH  13  20
ATOM     20  O   UNL     1      -3.257  14.430  22.300  0.00  0.00    +0.000 OA
ATOM     21  H   UNL     1      -3.799  14.017  22.993  0.00  0.00    +0.000 HD
ENDBRANCH  13  20
ENDBRANCH   4  18
ENDBRANCH   3   6
ENDBRANCH   2   3
ENDBRANCH   1   2
BRANCH   1  22
ATOM     22  C   UNL     1       1.011   4.477  20.354  0.00  0.00    +0.000 C 
BRANCH  22  23
ATOM     23  C   UNL     1       1.749   3.352  21.081  0.00  0.00    +0.000 C 
BRANCH  23  24
ATOM     24  C   UNL     1       2.205   2.283  20.097  0.00  0.00    +0.000 C 
BRANCH  24  25
ATOM     25  N   UNL     1       3.334   2.723  19.326  0.00  0.00    +0.000 N 
ATOM     26  C   UNL     1       3.200   3.116  18.027  0.00  0.00    +0.000 C 
ATOM     27  O   UNL     1       2.127   3.049  17.428  0.00  0.00    +0.000 OA
ATOM     28  H   UNL     1       4.283   2.543  19.661  0.00  0.00    +0.000 HD
BRANCH  26  29
ATOM     29  C   UNL     1       4.418   3.596  17.339  0.00  0.00    +0.000 A 
ATOM     30  C   UNL     1       4.457   3.441  16.002  0.00  0.00    +0.000 A 
ATOM     31  C   UNL     1       5.571   3.983  15.247  0.00  0.00    +0.000 A 
ATOM     32  C   UNL     1       5.553   4.011  13.850  0.00  0.00    +0.000 A 
ATOM     33  C   UNL     1       6.566   4.678  13.157  0.00  0.00    +0.000 A 
ATOM     34  C   UNL     1       7.661   5.181  13.859  0.00  0.00    +0.000 A 
ATOM     35  C   UNL     1       7.725   5.097  15.246  0.00  0.00    +0.000 A 
ATOM     36  C   UNL     1       6.648   4.543  15.929  0.00  0.00    +0.000 A 
ATOM     37  O   UNL     1       6.649   4.613  17.339  0.00  0.00    +0.000 OA
ATOM     38  C   UNL     1       5.524   4.242  18.048  0.00  0.00    +0.000 A 
ATOM     39  N   UNL     1       5.519   4.447  19.331  0.00  0.00    +0.000 NA
ATOM     40  H   UNL     1       6.417   4.870  19.576  0.00  0.00    +0.000 HD
BRANCH  34  41
ATOM     41  O   UNL     1       8.699   5.773  13.204  0.00  0.00    +0.000 OA
ATOM     42  H   UNL     1       8.680   5.496  12.273  0.00  0.00    +0.000 HD
ENDBRANCH  34  41
ENDBRANCH  26  29
ENDBRANCH  24  25
ENDBRANCH  23  24
ENDBRANCH  22  23
ENDBRANCH   1  22
TORSDOF 11
ENDMDL
