MODEL 1
REMARK VINA RESULT:      -7.8      0.000      0.000
REMARK  Name = 
REMARK  8 active torsions:
REMARK  status: ('A' for Active; 'I' for Inactive)
REMARK    1  A    between atoms: C_1  and  C_2
REMARK    2  A    between atoms: C_2  and  C_3
REMARK    3  A    between atoms: C_3  and  N_4
REMARK    4  A    between atoms: C_8  and  S_9
REMARK    5  A    between atoms: S_9  and  C_10
REMARK    6  A    between atoms: C_10  and  C_11
REMARK    7  A    between atoms: N_13  and  C_14
REMARK    8  A    between atoms: C_14  and  C_15
REMARK                            x       y       z     vdW  Elec       q    Type
REMARK                         _______ _______ _______ _____ _____    ______ ____
ROOT
ATOM      1  C   UNL     1       6.076   5.385  17.655  0.00  0.00    +0.000 C 
ATOM      2  O   UNL     1       6.225   5.316  18.877  0.00  0.00    +0.000 OA
ATOM      3  N   UNL     1       5.021   6.039  17.059  0.00  0.00    +0.000 N 
ATOM      4  H   UNL     1       4.787   5.776  16.105  0.00  0.00    +0.000 HD
ENDROOT
BRANCH   1   5
ATOM      5  C   UNL     1       7.049   4.736  16.687  0.00  0.00    +0.000 C 
BRANCH   5   6
ATOM      6  S   UNL     1       6.160   3.874  15.360  0.00  0.00    +0.000 S 
BRANCH   6  11
ATOM      7  N   UNL     1       6.738   4.028  12.687  0.00  0.00    +0.000 N 
ATOM      8  N   UNL     1       7.457   4.774  11.824  0.00  0.00    +0.000 NA
ATOM      9  N   UNL     1       8.096   5.662  12.574  0.00  0.00    +0.000 NA
ATOM     10  N   UNL     1       7.774   5.512  13.901  0.00  0.00    +0.000 NA
ATOM     11  C   UNL     1       6.932   4.504  13.953  0.00  0.00    +0.000 A 
BRANCH   7  12
ATOM     12  C   UNL     1       5.870   2.983  12.197  0.00  0.00    +0.000 C 
BRANCH  12  14
ATOM     13  C   UNL     1       3.869   3.481  10.702  0.00  0.00    +0.000 C 
ATOM     14  C   UNL     1       4.390   3.365  12.127  0.00  0.00    +0.000 C 
ENDBRANCH  12  14
ENDBRANCH   7  12
ENDBRANCH   6  11
ENDBRANCH   5   6
ENDBRANCH   1   5
BRANCH   3  15
ATOM     15  C   UNL     1       3.957   6.597  17.859  0.00  0.00    +0.000 C 
BRANCH  15  16
ATOM     16  C   UNL     1       3.095   5.518  18.461  0.00  0.00    +0.000 A 
ATOM     17  C   UNL     1       2.220   4.752  17.656  0.00  0.00    +0.000 A 
ATOM     18  C   UNL     1       1.443   3.728  18.212  0.00  0.00    +0.000 A 
ATOM     19  C   UNL     1       1.546   3.507  19.569  0.00  0.00    +0.000 A 
ATOM     20  C   UNL     1       2.377   4.261  20.362  0.00  0.00    +0.000 A 
ATOM     21  C   UNL     1       3.158   5.271  19.843  0.00  0.00    +0.000 A 
ATOM     22  O   UNL     1       2.331   3.886  21.668  0.00  0.00    +0.000 OA
ATOM     23  C   UNL     1       1.343   2.836  21.613  0.00  0.00    +0.000 C 
ATOM     24  O   UNL     1       0.874   2.560  20.276  0.00  0.00    +0.000 OA
ENDBRANCH  15  16
ENDBRANCH   3  15
TORSDOF 7
ENDMDL
MODEL 2
REMARK VINA RESULT:      -7.5      1.027      1.193
REMARK  Name = 
REMARK  8 active torsions:
REMARK  status: ('A' for Active; 'I' for Inactive)
REMARK    1  A    between atoms: C_1  and  C_2
REMARK    2  A    between atoms: C_2  and  C_3
REMARK    3  A    between atoms: C_3  and  N_4
REMARK    4  A    between atoms: C_8  and  S_9
REMARK    5  A    between atoms: S_9  and  C_10
REMARK    6  A    between atoms: C_10  and  C_11
REMARK    7  A    between atoms: N_13  and  C_14
REMARK    8  A    between atoms: C_14  and  C_15
REMARK                            x       y       z     vdW  Elec       q    Type
REMARK                         _______ _______ _______ _____ _____    ______ ____
ROOT
ATOM      1  C   UNL     1       6.571   5.551  17.531  0.00  0.00    +0.000 C 
ATOM      2  O   UNL     1       7.147   6.253  18.363  0.00  0.00    +0.000 OA
ATOM      3  N   UNL     1       5.226   5.658  17.254  0.00  0.00    +0.000 N 
ATOM      4  H   UNL     1       4.771   4.856  16.827  0.00  0.00    +0.000 HD
ENDROOT
BRANCH   1   5
ATOM      5  C   UNL     1       7.299   4.484  16.733  0.00  0.00    +0.000 C 
BRANCH   5   6
ATOM      6  S   UNL     1       6.255   3.862  15.385  0.00  0.00    +0.000 S 
BRANCH   6  11
ATOM      7  N   UNL     1       6.799   4.140  12.715  0.00  0.00    +0.000 N 
ATOM      8  N   UNL     1       7.530   4.909  11.881  0.00  0.00    +0.000 NA
ATOM      9  N   UNL     1       8.209   5.733  12.667  0.00  0.00    +0.000 NA
ATOM     10  N   UNL     1       7.901   5.523  13.989  0.00  0.00    +0.000 NA
ATOM     11  C   UNL     1       7.027   4.541  14.001  0.00  0.00    +0.000 A 
BRANCH   7  12
ATOM     12  C   UNL     1       5.890   3.152  12.184  0.00  0.00    +0.000 C 
BRANCH  12  14
ATOM     13  C   UNL     1       3.755   3.061  10.799  0.00  0.00    +0.000 C 
ATOM     14  C   UNL     1       4.446   3.633  12.028  0.00  0.00    +0.000 C 
ENDBRANCH  12  14
ENDBRANCH   7  12
ENDBRANCH   6  11
ENDBRANCH   5   6
ENDBRANCH   1   5
BRANCH   3  15
ATOM     15  C   UNL     1       4.387   6.547  18.023  0.00  0.00    +0.000 C 
BRANCH  15  16
ATOM     16  C   UNL     1       3.549   5.791  19.020  0.00  0.00    +0.000 A 
ATOM     17  C   UNL     1       2.455   6.410  19.668  0.00  0.00    +0.000 A 
ATOM     18  C   UNL     1       1.657   5.696  20.572  0.00  0.00    +0.000 A 
ATOM     19  C   UNL     1       1.986   4.381  20.819  0.00  0.00    +0.000 A 
ATOM     20  C   UNL     1       3.059   3.777  20.210  0.00  0.00    +0.000 A 
ATOM     21  C   UNL     1       3.859   4.452  19.313  0.00  0.00    +0.000 A 
ATOM     22  O   UNL     1       3.213   2.481  20.591  0.00  0.00    +0.000 OA
ATOM     23  C   UNL     1       2.137   2.350  21.542  0.00  0.00    +0.000 C 
ATOM     24  O   UNL     1       1.326   3.538  21.659  0.00  0.00    +0.000 OA
ENDBRANCH  15  16
ENDBRANCH   3  15
TORSDOF 7
ENDMDL
MODEL 3
REMARK VINA RESULT:      -7.2      4.765      5.736
REMARK  Name = 
REMARK  8 active torsions:
REMARK  status: ('A' for Active; 'I' for Inactive)
REMARK    1  A    between atoms: C_1  and  C_2
REMARK    2  A    between atoms: C_2  and  C_3
REMARK    3  A    between atoms: C_3  and  N_4
REMARK    4  A    between atoms: C_8  and  S_9
REMARK    5  A    between atoms: S_9  and  C_10
REMARK    6  A    between atoms: C_10  and  C_11
REMARK    7  A    between atoms: N_13  and  C_14
REMARK    8  A    between atoms: C_14  and  C_15
REMARK                            x       y       z     vdW  Elec       q    Type
REMARK                         _______ _______ _______ _____ _____    ______ ____
ROOT
ATOM      1  C   UNL     1       2.850   6.025  19.766  0.00  0.00    +0.000 C 
ATOM      2  O   UNL     1       2.601   4.998  20.400  0.00  0.00    +0.000 OA
ATOM      3  N   UNL     1       2.277   7.245  20.050  0.00  0.00    +0.000 N 
ATOM      4  H   UNL     1       2.267   7.940  19.308  0.00  0.00    +0.000 HD
ENDROOT
BRANCH   1   5
ATOM      5  C   UNL     1       3.816   6.035  18.594  0.00  0.00    +0.000 C 
BRANCH   5   6
ATOM      6  S   UNL     1       4.124   4.349  17.998  0.00  0.00    +0.000 S 
BRANCH   6  11
ATOM      7  N   UNL     1       6.395   4.174  16.476  0.00  0.00    +0.000 N 
ATOM      8  N   UNL     1       7.731   4.321  16.589  0.00  0.00    +0.000 NA
ATOM      9  N   UNL     1       7.950   4.586  17.869  0.00  0.00    +0.000 NA
ATOM     10  N   UNL     1       6.771   4.638  18.572  0.00  0.00    +0.000 NA
ATOM     11  C   UNL     1       5.822   4.387  17.698  0.00  0.00    +0.000 A 
BRANCH   7  12
ATOM     12  C   UNL     1       5.796   3.925  15.186  0.00  0.00    +0.000 C 
BRANCH  12  14
ATOM     13  C   UNL     1       6.310   3.688  12.703  0.00  0.00    +0.000 C 
ATOM     14  C   UNL     1       6.613   4.432  13.996  0.00  0.00    +0.000 C 
ENDBRANCH  12  14
ENDBRANCH   7  12
ENDBRANCH   6  11
ENDBRANCH   5   6
ENDBRANCH   1   5
BRANCH   3  15
ATOM     15  C   UNL     1       1.251   7.357  21.059  0.00  0.00    +0.000 C 
BRANCH  15  16
ATOM     16  C   UNL     1       0.672   8.746  21.107  0.00  0.00    +0.000 A 
ATOM     17  C   UNL     1       0.633   9.559  19.950  0.00  0.00    +0.000 A 
ATOM     18  C   UNL     1       0.067  10.839  19.989  0.00  0.00    +0.000 A 
ATOM     19  C   UNL     1      -0.434  11.284  21.194  0.00  0.00    +0.000 A 
ATOM     20  C   UNL     1      -0.383  10.510  22.328  0.00  0.00    +0.000 A 
ATOM     21  C   UNL     1       0.164   9.245  22.319  0.00  0.00    +0.000 A 
ATOM     22  O   UNL     1      -0.926  11.131  23.408  0.00  0.00    +0.000 OA
ATOM     23  C   UNL     1      -1.289  12.403  22.833  0.00  0.00    +0.000 C 
ATOM     24  O   UNL     1      -1.021  12.491  21.417  0.00  0.00    +0.000 OA
ENDBRANCH  15  16
ENDBRANCH   3  15
TORSDOF 7
ENDMDL
MODEL 4
REMARK VINA RESULT:      -7.2      3.502      4.731
REMARK  Name = 
REMARK  8 active torsions:
REMARK  status: ('A' for Active; 'I' for Inactive)
REMARK    1  A    between atoms: C_1  and  C_2
REMARK    2  A    between atoms: C_2  and  C_3
REMARK    3  A    between atoms: C_3  and  N_4
REMARK    4  A    between atoms: C_8  and  S_9
REMARK    5  A    between atoms: S_9  and  C_10
REMARK    6  A    between atoms: C_10  and  C_11
REMARK    7  A    between atoms: N_13  and  C_14
REMARK    8  A    between atoms: C_14  and  C_15
REMARK                            x       y       z     vdW  Elec       q    Type
REMARK                         _______ _______ _______ _____ _____    ______ ____
ROOT
ATOM      1  C   UNL     1       3.421   4.114  19.790  0.00  0.00    +0.000 C 
ATOM      2  O   UNL     1       2.652   3.377  20.410  0.00  0.00    +0.000 OA
ATOM      3  N   UNL     1       3.384   5.488  19.877  0.00  0.00    +0.000 N 
ATOM      4  H   UNL     1       3.799   6.016  19.114  0.00  0.00    +0.000 HD
ENDROOT
BRANCH   1   5
ATOM      5  C   UNL     1       4.485   3.566  18.856  0.00  0.00    +0.000 C 
BRANCH   5   6
ATOM      6  S   UNL     1       4.131   4.025  17.136  0.00  0.00    +0.000 S 
BRANCH   6  11
ATOM      7  N   UNL     1       6.363   4.989  15.874  0.00  0.00    +0.000 N 
ATOM      8  N   UNL     1       7.147   6.086  15.850  0.00  0.00    +0.000 NA
ATOM      9  N   UNL     1       6.659   6.887  16.786  0.00  0.00    +0.000 NA
ATOM     10  N   UNL     1       5.556   6.332  17.389  0.00  0.00    +0.000 NA
ATOM     11  C   UNL     1       5.384   5.163  16.811  0.00  0.00    +0.000 A 
BRANCH   7  12
ATOM     12  C   UNL     1       6.583   3.916  14.932  0.00  0.00    +0.000 C 
BRANCH  12  14
ATOM     13  C   UNL     1       6.474   3.634  12.404  0.00  0.00    +0.000 C 
ATOM     14  C   UNL     1       5.714   3.983  13.675  0.00  0.00    +0.000 C 
ENDBRANCH  12  14
ENDBRANCH   7  12
ENDBRANCH   6  11
ENDBRANCH   5   6
ENDBRANCH   1   5
BRANCH   3  15
ATOM     15  C   UNL     1       2.346   6.148  20.633  0.00  0.00    +0.000 C 
BRANCH  15  16
ATOM     16  C   UNL     1       1.956   7.462  20.008  0.00  0.00    +0.000 A 
ATOM     17  C   UNL     1       2.326   7.773  18.678  0.00  0.00    +0.000 A 
ATOM     18  C   UNL     1       1.937   8.982  18.088  0.00  0.00    +0.000 A 
ATOM     19  C   UNL     1       1.199   9.861  18.850  0.00  0.00    +0.000 A 
ATOM     20  C   UNL     1       0.852   9.577  20.149  0.00  0.00    +0.000 A 
ATOM     21  C   UNL     1       1.217   8.394  20.755  0.00  0.00    +0.000 A 
ATOM     22  O   UNL     1       0.129  10.573  20.725  0.00  0.00    +0.000 OA
ATOM     23  C   UNL     1       0.094  11.536  19.652  0.00  0.00    +0.000 C 
ATOM     24  O   UNL     1       0.732  11.073  18.444  0.00  0.00    +0.000 OA
ENDBRANCH  15  16
ENDBRANCH   3  15
TORSDOF 7
ENDMDL
MODEL 5
REMARK VINA RESULT:      -7.2      4.198      5.013
REMARK  Name = 
REMARK  8 active torsions:
REMARK  status: ('A' for Active; 'I' for Inactive)
REMARK    1  A    between atoms: C_1  and  C_2
REMARK    2  A    between atoms: C_2  and  C_3
REMARK    3  A    between atoms: C_3  and  N_4
REMARK    4  A    between atoms: C_8  and  S_9
REMARK    5  A    between atoms: S_9  and  C_10
REMARK    6  A    between atoms: C_10  and  C_11
REMARK    7  A    between atoms: N_13  and  C_14
REMARK    8  A    between atoms: C_14  and  C_15
REMARK                            x       y       z     vdW  Elec       q    Type
REMARK                         _______ _______ _______ _____ _____    ______ ____
ROOT
ATOM      1  C   UNL     1       3.483   6.690  18.159  0.00  0.00    +0.000 C 
ATOM      2  O   UNL     1       4.228   7.175  17.306  0.00  0.00    +0.000 OA
ATOM      3  N   UNL     1       2.334   7.311  18.600  0.00  0.00    +0.000 N 
ATOM      4  H   UNL     1       1.970   7.030  19.506  0.00  0.00    +0.000 HD
ENDROOT
BRANCH   1   5
ATOM      5  C   UNL     1       3.772   5.352  18.817  0.00  0.00    +0.000 C 
BRANCH   5   6
ATOM      6  S   UNL     1       4.066   4.069  17.567  0.00  0.00    +0.000 S 
BRANCH   6  11
ATOM      7  N   UNL     1       6.287   4.397  15.998  0.00  0.00    +0.000 N 
ATOM      8  N   UNL     1       7.618   4.580  16.113  0.00  0.00    +0.000 NA
ATOM      9  N   UNL     1       7.870   4.528  17.414  0.00  0.00    +0.000 NA
ATOM     10  N   UNL     1       6.715   4.342  18.134  0.00  0.00    +0.000 NA
ATOM     11  C   UNL     1       5.748   4.268  17.247  0.00  0.00    +0.000 A 
BRANCH   7  12
ATOM     12  C   UNL     1       5.654   4.447  14.701  0.00  0.00    +0.000 C 
BRANCH  12  14
ATOM     13  C   UNL     1       5.841   3.346  12.413  0.00  0.00    +0.000 C 
ATOM     14  C   UNL     1       6.569   4.076  13.531  0.00  0.00    +0.000 C 
ENDBRANCH  12  14
ENDBRANCH   7  12
ENDBRANCH   6  11
ENDBRANCH   5   6
ENDBRANCH   1   5
BRANCH   3  15
ATOM     15  C   UNL     1       2.001   8.641  18.150  0.00  0.00    +0.000 C 
BRANCH  15  16
ATOM     16  C   UNL     1       1.139   9.364  19.151  0.00  0.00    +0.000 A 
ATOM     17  C   UNL     1       0.347  10.470  18.765  0.00  0.00    +0.000 A 
ATOM     18  C   UNL     1      -0.479  11.122  19.690  0.00  0.00    +0.000 A 
ATOM     19  C   UNL     1      -0.478  10.659  20.989  0.00  0.00    +0.000 A 
ATOM     20  C   UNL     1       0.303   9.598  21.378  0.00  0.00    +0.000 A 
ATOM     21  C   UNL     1       1.121   8.935  20.489  0.00  0.00    +0.000 A 
ATOM     22  O   UNL     1       0.161   9.302  22.697  0.00  0.00    +0.000 OA
ATOM     23  C   UNL     1      -0.771  10.327  23.104  0.00  0.00    +0.000 C 
ATOM     24  O   UNL     1      -1.215  11.163  22.015  0.00  0.00    +0.000 OA
ENDBRANCH  15  16
ENDBRANCH   3  15
TORSDOF 7
ENDMDL
MODEL 6
REMARK VINA RESULT:      -7.1      5.912      8.572
REMARK  Name = 
REMARK  8 active torsions:
REMARK  status: ('A' for Active; 'I' for Inactive)
REMARK    1  A    between atoms: C_1  and  C_2
REMARK    2  A    between atoms: C_2  and  C_3
REMARK    3  A    between atoms: C_3  and  N_4
REMARK    4  A    between atoms: C_8  and  S_9
REMARK    5  A    between atoms: S_9  and  C_10
REMARK    6  A    between atoms: C_10  and  C_11
REMARK    7  A    between atoms: N_13  and  C_14
REMARK    8  A    between atoms: C_14  and  C_15
REMARK                            x       y       z     vdW  Elec       q    Type
REMARK                         _______ _______ _______ _____ _____    ______ ____
ROOT
ATOM      1  C   UNL     1       7.883   7.496  17.971  0.00  0.00    +0.000 C 
ATOM      2  O   UNL     1       7.528   7.434  16.793  0.00  0.00    +0.000 OA
ATOM      3  N   UNL     1       8.361   8.648  18.556  0.00  0.00    +0.000 N 
ATOM      4  H   UNL     1       8.930   8.546  19.393  0.00  0.00    +0.000 HD
ENDROOT
BRANCH   1   5
ATOM      5  C   UNL     1       7.835   6.290  18.893  0.00  0.00    +0.000 C 
BRANCH   5   6
ATOM      6  S   UNL     1       7.639   4.757  17.940  0.00  0.00    +0.000 S 
BRANCH   6  11
ATOM      7  N   UNL     1       5.024   4.631  17.136  0.00  0.00    +0.000 N 
ATOM      8  N   UNL     1       3.815   4.248  17.598  0.00  0.00    +0.000 NA
ATOM      9  N   UNL     1       4.022   3.870  18.852  0.00  0.00    +0.000 NA
ATOM     10  N   UNL     1       5.349   3.980  19.191  0.00  0.00    +0.000 NA
ATOM     11  C   UNL     1       5.953   4.445  18.120  0.00  0.00    +0.000 A 
BRANCH   7  12
ATOM     12  C   UNL     1       5.177   5.059  15.766  0.00  0.00    +0.000 C 
BRANCH  12  14
ATOM     13  C   UNL     1       6.813   4.649  13.858  0.00  0.00    +0.000 C 
ATOM     14  C   UNL     1       5.836   4.029  14.846  0.00  0.00    +0.000 C 
ENDBRANCH  12  14
ENDBRANCH   7  12
ENDBRANCH   6  11
ENDBRANCH   5   6
ENDBRANCH   1   5
BRANCH   3  15
ATOM     15  C   UNL     1       8.574   9.838  17.767  0.00  0.00    +0.000 C 
BRANCH  15  16
ATOM     16  C   UNL     1       9.204  10.937  18.581  0.00  0.00    +0.000 A 
ATOM     17  C   UNL     1       9.568  10.724  19.932  0.00  0.00    +0.000 A 
ATOM     18  C   UNL     1      10.182  11.737  20.679  0.00  0.00    +0.000 A 
ATOM     19  C   UNL     1      10.402  12.949  20.060  0.00  0.00    +0.000 A 
ATOM     20  C   UNL     1      10.033  13.172  18.755  0.00  0.00    +0.000 A 
ATOM     21  C   UNL     1       9.431  12.193  17.994  0.00  0.00    +0.000 A 
ATOM     22  O   UNL     1      10.334  14.429  18.336  0.00  0.00    +0.000 OA
ATOM     23  C   UNL     1      10.898  14.987  19.541  0.00  0.00    +0.000 C 
ATOM     24  O   UNL     1      10.986  14.039  20.626  0.00  0.00    +0.000 OA
ENDBRANCH  15  16
ENDBRANCH   3  15
TORSDOF 7
ENDMDL
MODEL 7
REMARK VINA RESULT:      -7.0      3.458      5.235
REMARK  Name = 
REMARK  8 active torsions:
REMARK  status: ('A' for Active; 'I' for Inactive)
REMARK    1  A    between atoms: C_1  and  C_2
REMARK    2  A    between atoms: C_2  and  C_3
REMARK    3  A    between atoms: C_3  and  N_4
REMARK    4  A    between atoms: C_8  and  S_9
REMARK    5  A    between atoms: S_9  and  C_10
REMARK    6  A    between atoms: C_10  and  C_11
REMARK    7  A    between atoms: N_13  and  C_14
REMARK    8  A    between atoms: C_14  and  C_15
REMARK                            x       y       z     vdW  Elec       q    Type
REMARK                         _______ _______ _______ _____ _____    ______ ____
ROOT
ATOM      1  C   UNL     1       2.599   3.365  20.679  0.00  0.00    +0.000 C 
ATOM      2  O   UNL     1       2.415   3.090  21.866  0.00  0.00    +0.000 OA
ATOM      3  N   UNL     1       2.398   4.623  20.155  0.00  0.00    +0.000 N 
ATOM      4  H   UNL     1       2.246   4.692  19.152  0.00  0.00    +0.000 HD
ENDROOT
BRANCH   1   5
ATOM      5  C   UNL     1       3.061   2.325  19.673  0.00  0.00    +0.000 C 
BRANCH   5   6
ATOM      6  S   UNL     1       3.272   3.067  18.030  0.00  0.00    +0.000 S 
BRANCH   6  11
ATOM      7  N   UNL     1       5.562   4.251  17.105  0.00  0.00    +0.000 N 
ATOM      8  N   UNL     1       6.717   4.774  17.566  0.00  0.00    +0.000 NA
ATOM      9  N   UNL     1       6.693   4.578  18.878  0.00  0.00    +0.000 NA
ATOM     10  N   UNL     1       5.527   3.963  19.265  0.00  0.00    +0.000 NA
ATOM     11  C   UNL     1       4.839   3.773  18.162  0.00  0.00    +0.000 A 
BRANCH   7  12
ATOM     12  C   UNL     1       5.232   4.339  15.702  0.00  0.00    +0.000 C 
BRANCH  12  14
ATOM     13  C   UNL     1       5.890   3.789  13.304  0.00  0.00    +0.000 C 
ATOM     14  C   UNL     1       6.336   3.858  14.757  0.00  0.00    +0.000 C 
ENDBRANCH  12  14
ENDBRANCH   7  12
ENDBRANCH   6  11
ENDBRANCH   5   6
ENDBRANCH   1   5
BRANCH   3  15
ATOM     15  C   UNL     1       1.843   5.677  20.970  0.00  0.00    +0.000 C 
BRANCH  15  16
ATOM     16  C   UNL     1       1.783   6.982  20.221  0.00  0.00    +0.000 A 
ATOM     17  C   UNL     1       2.374   7.114  18.942  0.00  0.00    +0.000 A 
ATOM     18  C   UNL     1       2.290   8.319  18.233  0.00  0.00    +0.000 A 
ATOM     19  C   UNL     1       1.630   9.372  18.830  0.00  0.00    +0.000 A 
ATOM     20  C   UNL     1       1.071   9.259  20.080  0.00  0.00    +0.000 A 
ATOM     21  C   UNL     1       1.133   8.085  20.800  0.00  0.00    +0.000 A 
ATOM     22  O   UNL     1       0.471  10.408  20.488  0.00  0.00    +0.000 OA
ATOM     23  C   UNL     1       0.752  11.272  19.367  0.00  0.00    +0.000 C 
ATOM     24  O   UNL     1       1.448  10.608  18.291  0.00  0.00    +0.000 OA
ENDBRANCH  15  16
ENDBRANCH   3  15
TORSDOF 7
ENDMDL
MODEL 8
REMARK VINA RESULT:      -6.9      2.914      4.597
REMARK  Name = 
REMARK  8 active torsions:
REMARK  status: ('A' for Active; 'I' for Inactive)
REMARK    1  A    between atoms: C_1  and  C_2
REMARK    2  A    between atoms: C_2  and  C_3
REMARK    3  A    between atoms: C_3  and  N_4
REMARK    4  A    between atoms: C_8  and  S_9
REMARK    5  A    between atoms: S_9  and  C_10
REMARK    6  A    between atoms: C_10  and  C_11
REMARK    7  A    between atoms: N_13  and  C_14
REMARK    8  A    between atoms: C_14  and  C_15
REMARK                            x       y       z     vdW  Elec       q    Type
REMARK                         _______ _______ _______ _____ _____    ______ ____
ROOT
ATOM      1  C   UNL     1       5.990   4.038  15.436  0.00  0.00    +0.000 C 
ATOM      2  O   UNL     1       5.469   4.150  14.325  0.00  0.00    +0.000 OA
ATOM      3  N   UNL     1       5.413   3.338  16.473  0.00  0.00    +0.000 N 
ATOM      4  H   UNL     1       5.718   3.564  17.416  0.00  0.00    +0.000 HD
ENDROOT
BRANCH   1   5
ATOM      5  C   UNL     1       7.326   4.678  15.769  0.00  0.00    +0.000 C 
BRANCH   5   6
ATOM      6  S   UNL     1       7.088   6.295  16.557  0.00  0.00    +0.000 S 
BRANCH   6  11
ATOM      7  N   UNL     1       4.969   6.207  18.290  0.00  0.00    +0.000 N 
ATOM      8  N   UNL     1       4.623   5.669  19.478  0.00  0.00    +0.000 NA
ATOM      9  N   UNL     1       5.708   5.039  19.907  0.00  0.00    +0.000 NA
ATOM     10  N   UNL     1       6.734   5.142  18.999  0.00  0.00    +0.000 NA
ATOM     11  C   UNL     1       6.260   5.861  18.006  0.00  0.00    +0.000 A 
BRANCH   7  12
ATOM     12  C   UNL     1       3.994   6.931  17.508  0.00  0.00    +0.000 C 
BRANCH  12  14
ATOM     13  C   UNL     1       2.179   8.686  17.835  0.00  0.00    +0.000 C 
ATOM     14  C   UNL     1       2.738   7.343  18.278  0.00  0.00    +0.000 C 
ENDBRANCH  12  14
ENDBRANCH   7  12
ENDBRANCH   6  11
ENDBRANCH   5   6
ENDBRANCH   1   5
BRANCH   3  15
ATOM     15  C   UNL     1       4.088   2.782  16.335  0.00  0.00    +0.000 C 
BRANCH  15  16
ATOM     16  C   UNL     1       3.258   3.017  17.569  0.00  0.00    +0.000 A 
ATOM     17  C   UNL     1       2.042   3.737  17.502  0.00  0.00    +0.000 A 
ATOM     18  C   UNL     1       1.256   3.928  18.646  0.00  0.00    +0.000 A 
ATOM     19  C   UNL     1       1.716   3.408  19.837  0.00  0.00    +0.000 A 
ATOM     20  C   UNL     1       2.906   2.726  19.915  0.00  0.00    +0.000 A 
ATOM     21  C   UNL     1       3.698   2.518  18.807  0.00  0.00    +0.000 A 
ATOM     22  O   UNL     1       3.179   2.299  21.177  0.00  0.00    +0.000 OA
ATOM     23  C   UNL     1       2.043   2.827  21.892  0.00  0.00    +0.000 C 
ATOM     24  O   UNL     1       1.087   3.493  21.040  0.00  0.00    +0.000 OA
ENDBRANCH  15  16
ENDBRANCH   3  15
TORSDOF 7
ENDMDL
MODEL 9
REMARK VINA RESULT:      -6.9      4.298      5.280
REMARK  Name = 
REMARK  8 active torsions:
REMARK  status: ('A' for Active; 'I' for Inactive)
REMARK    1  A    between atoms: C_1  and  C_2
REMARK    2  A    between atoms: C_2  and  C_3
REMARK    3  A    between atoms: C_3  and  N_4
REMARK    4  A    between atoms: C_8  and  S_9
REMARK    5  A    between atoms: S_9  and  C_10
REMARK    6  A    between atoms: C_10  and  C_11
REMARK    7  A    between atoms: N_13  and  C_14
REMARK    8  A    between atoms: C_14  and  C_15
REMARK                            x       y       z     vdW  Elec       q    Type
REMARK                         _______ _______ _______ _____ _____    ______ ____
ROOT
ATOM      1  C   UNL     1       3.609   6.471  18.188  0.00  0.00    +0.000 C 
ATOM      2  O   UNL     1       4.551   7.100  17.701  0.00  0.00    +0.000 OA
ATOM      3  N   UNL     1       2.331   6.977  18.280  0.00  0.00    +0.000 N 
ATOM      4  H   UNL     1       1.712   6.559  18.969  0.00  0.00    +0.000 HD
ENDROOT
BRANCH   1   5
ATOM      5  C   UNL     1       3.779   5.069  18.747  0.00  0.00    +0.000 C 
BRANCH   5   6
ATOM      6  S   UNL     1       4.100   3.879  17.415  0.00  0.00    +0.000 S 
BRANCH   6  11
ATOM      7  N   UNL     1       6.311   4.286  15.849  0.00  0.00    +0.000 N 
ATOM      8  N   UNL     1       7.632   4.532  15.966  0.00  0.00    +0.000 NA
ATOM      9  N   UNL     1       7.880   4.509  17.268  0.00  0.00    +0.000 NA
ATOM     10  N   UNL     1       6.732   4.280  17.987  0.00  0.00    +0.000 NA
ATOM     11  C   UNL     1       5.773   4.150  17.098  0.00  0.00    +0.000 A 
BRANCH   7  12
ATOM     12  C   UNL     1       5.682   4.290  14.549  0.00  0.00    +0.000 C 
BRANCH  12  14
ATOM     13  C   UNL     1       6.084   3.322  12.228  0.00  0.00    +0.000 C 
ATOM     14  C   UNL     1       6.650   4.150  13.372  0.00  0.00    +0.000 C 
ENDBRANCH  12  14
ENDBRANCH   7  12
ENDBRANCH   6  11
ENDBRANCH   5   6
ENDBRANCH   1   5
BRANCH   3  15
ATOM     15  C   UNL     1       2.053   8.341  17.899  0.00  0.00    +0.000 C 
BRANCH  15  16
ATOM     16  C   UNL     1       1.544   9.148  19.065  0.00  0.00    +0.000 A 
ATOM     17  C   UNL     1       1.395   8.563  20.344  0.00  0.00    +0.000 A 
ATOM     18  C   UNL     1       0.951   9.322  21.435  0.00  0.00    +0.000 A 
ATOM     19  C   UNL     1       0.649  10.648  21.214  0.00  0.00    +0.000 A 
ATOM     20  C   UNL     1       0.771  11.220  19.970  0.00  0.00    +0.000 A 
ATOM     21  C   UNL     1       1.209  10.500  18.880  0.00  0.00    +0.000 A 
ATOM     22  O   UNL     1       0.421  12.533  19.965  0.00  0.00    +0.000 OA
ATOM     23  C   UNL     1       0.026  12.713  21.341  0.00  0.00    +0.000 C 
ATOM     24  O   UNL     1       0.211  11.533  22.150  0.00  0.00    +0.000 OA
ENDBRANCH  15  16
ENDBRANCH   3  15
TORSDOF 7
ENDMDL
