MODEL 1
REMARK VINA RESULT:      -7.5      0.000      0.000
REMARK  Name = 
REMARK  3 active torsions:
REMARK  status: ('A' for Active; 'I' for Inactive)
REMARK    1  A    between atoms: C_2  and  C_4
REMARK    2  A    between atoms: C_11  and  C_12
REMARK    3  A    between atoms: C_18  and  C_19
REMARK                            x       y       z     vdW  Elec       q    Type
REMARK                         _______ _______ _______ _____ _____    ______ ____
ROOT
ATOM      1  C   UNL     1      -0.958  10.005  20.999  0.00  0.00    +0.000 C 
ATOM      2  C   UNL     1      -0.627   8.571  21.448  0.00  0.00    +0.000 C 
ATOM      3  C   UNL     1       0.879   8.288  21.460  0.00  0.00    +0.000 C 
ATOM      4  N   UNL     1       1.425   8.667  20.167  0.00  0.00    +0.000 N 
ATOM      5  C   UNL     1       2.253   7.826  19.472  0.00  0.00    +0.000 A 
ATOM      6  N   UNL     1       2.770   8.254  18.314  0.00  0.00    +0.000 NA
ATOM      7  C   UNL     1       3.556   7.406  17.627  0.00  0.00    +0.000 A 
ATOM      8  C   UNL     1       3.862   6.108  18.001  0.00  0.00    +0.000 A 
ATOM      9  C   UNL     1       3.258   5.728  19.199  0.00  0.00    +0.000 A 
ATOM     10  N   UNL     1       2.488   6.589  19.928  0.00  0.00    +0.000 NA
ATOM     11  C   UNL     1       1.259  10.052  19.763  0.00  0.00    +0.000 C 
ATOM     12  C   UNL     1      -0.238  10.351  19.685  0.00  0.00    +0.000 C 
ENDROOT
BRANCH   8  13
ATOM     13  C   UNL     1       4.769   5.286  17.190  0.00  0.00    +0.000 A 
ATOM     14  C   UNL     1       4.383   4.620  16.026  0.00  0.00    +0.000 A 
ATOM     15  N   UNL     1       5.242   3.927  15.237  0.00  0.00    +0.000 NA
ATOM     16  C   UNL     1       6.524   3.909  15.655  0.00  0.00    +0.000 A 
ATOM     17  C   UNL     1       6.926   4.549  16.810  0.00  0.00    +0.000 A 
ATOM     18  N   UNL     1       6.065   5.244  17.588  0.00  0.00    +0.000 NA
ENDBRANCH   8  13
BRANCH   1  20
ATOM     19  N   UNL     1      -0.726  12.328  21.717  0.00  0.00    +0.000 N 
ATOM     20  C   UNL     1      -0.651  11.019  22.095  0.00  0.00    +0.000 C 
ATOM     21  O   UNL     1      -0.377  10.731  23.253  0.00  0.00    +0.000 OA
ATOM     22  H   UNL     1      -0.606  13.020  22.445  0.00  0.00    +0.000 HD
ATOM     23  H   UNL     1      -1.163  12.619  20.852  0.00  0.00    +0.000 HD
ENDBRANCH   1  20
BRANCH   9  24
ATOM     24  C   UNL     1       3.404   4.311  19.755  0.00  0.00    +0.000 C 
ATOM     25  C   UNL     1       2.630   4.074  21.049  0.00  0.00    +0.000 C 
ATOM     26  C   UNL     1       1.335   3.471  20.574  0.00  0.00    +0.000 C 
ATOM     27  C   UNL     1       1.784   2.653  19.387  0.00  0.00    +0.000 C 
ATOM     28  O   UNL     1       2.913   3.322  18.813  0.00  0.00    +0.000 OA
ENDBRANCH   9  24
TORSDOF 3
ENDMDL
MODEL 2
REMARK VINA RESULT:      -7.4      0.967      1.249
REMARK  Name = 
REMARK  3 active torsions:
REMARK  status: ('A' for Active; 'I' for Inactive)
REMARK    1  A    between atoms: C_2  and  C_4
REMARK    2  A    between atoms: C_11  and  C_12
REMARK    3  A    between atoms: C_18  and  C_19
REMARK                            x       y       z     vdW  Elec       q    Type
REMARK                         _______ _______ _______ _____ _____    ______ ____
ROOT
ATOM      1  C   UNL     1      -0.812   9.532  20.961  0.00  0.00    +0.000 C 
ATOM      2  C   UNL     1      -0.412   8.083  21.293  0.00  0.00    +0.000 C 
ATOM      3  C   UNL     1       1.105   7.871  21.285  0.00  0.00    +0.000 C 
ATOM      4  N   UNL     1       1.630   8.380  20.028  0.00  0.00    +0.000 N 
ATOM      5  C   UNL     1       2.495   7.637  19.269  0.00  0.00    +0.000 A 
ATOM      6  N   UNL     1       2.990   8.181  18.151  0.00  0.00    +0.000 NA
ATOM      7  C   UNL     1       3.814   7.430  17.399  0.00  0.00    +0.000 A 
ATOM      8  C   UNL     1       4.181   6.121  17.666  0.00  0.00    +0.000 A 
ATOM      9  C   UNL     1       3.597   5.617  18.829  0.00  0.00    +0.000 A 
ATOM     10  N   UNL     1       2.789   6.379  19.623  0.00  0.00    +0.000 NA
ATOM     11  C   UNL     1       1.398   9.783  19.738  0.00  0.00    +0.000 C 
ATOM     12  C   UNL     1      -0.111  10.017  19.681  0.00  0.00    +0.000 C 
ENDROOT
BRANCH   8  13
ATOM     13  C   UNL     1       5.124   5.411  16.793  0.00  0.00    +0.000 A 
ATOM     14  C   UNL     1       6.485   5.275  17.067  0.00  0.00    +0.000 A 
ATOM     15  N   UNL     1       7.337   4.550  16.299  0.00  0.00    +0.000 NA
ATOM     16  C   UNL     1       6.783   3.959  15.221  0.00  0.00    +0.000 A 
ATOM     17  C   UNL     1       5.442   4.092  14.923  0.00  0.00    +0.000 A 
ATOM     18  N   UNL     1       4.596   4.809  15.698  0.00  0.00    +0.000 NA
ENDBRANCH   8  13
BRANCH   1  20
ATOM     19  N   UNL     1      -0.866   9.963  23.365  0.00  0.00    +0.000 N 
ATOM     20  C   UNL     1      -0.550  10.467  22.136  0.00  0.00    +0.000 C 
ATOM     21  O   UNL     1      -0.067  11.588  22.040  0.00  0.00    +0.000 OA
ATOM     22  H   UNL     1      -0.626  10.533  24.166  0.00  0.00    +0.000 HD
ATOM     23  H   UNL     1      -1.048   8.980  23.517  0.00  0.00    +0.000 HD
ENDBRANCH   1  20
BRANCH   9  24
ATOM     24  C   UNL     1       3.811   4.168  19.268  0.00  0.00    +0.000 C 
ATOM     25  C   UNL     1       3.003   3.773  20.501  0.00  0.00    +0.000 C 
ATOM     26  C   UNL     1       1.768   3.139  19.920  0.00  0.00    +0.000 C 
ATOM     27  C   UNL     1       2.314   2.456  18.689  0.00  0.00    +0.000 C 
ATOM     28  O   UNL     1       3.420   3.238  18.224  0.00  0.00    +0.000 OA
ENDBRANCH   9  24
TORSDOF 3
ENDMDL
MODEL 3
REMARK VINA RESULT:      -6.9      2.255      7.379
REMARK  Name = 
REMARK  3 active torsions:
REMARK  status: ('A' for Active; 'I' for Inactive)
REMARK    1  A    between atoms: C_2  and  C_4
REMARK    2  A    between atoms: C_11  and  C_12
REMARK    3  A    between atoms: C_18  and  C_19
REMARK                            x       y       z     vdW  Elec       q    Type
REMARK                         _______ _______ _______ _____ _____    ______ ____
ROOT
ATOM      1  C   UNL     1       3.427   3.765  19.471  0.00  0.00    +0.000 C 
ATOM      2  C   UNL     1       3.040   4.634  20.680  0.00  0.00    +0.000 C 
ATOM      3  C   UNL     1       1.811   5.509  20.411  0.00  0.00    +0.000 C 
ATOM      4  N   UNL     1       2.036   6.242  19.175  0.00  0.00    +0.000 N 
ATOM      5  C   UNL     1       1.810   7.591  19.100  0.00  0.00    +0.000 A 
ATOM      6  N   UNL     1       1.979   8.201  17.921  0.00  0.00    +0.000 NA
ATOM      7  C   UNL     1       1.785   9.531  17.869  0.00  0.00    +0.000 A 
ATOM      8  C   UNL     1       1.447  10.339  18.941  0.00  0.00    +0.000 A 
ATOM      9  C   UNL     1       1.324   9.634  20.139  0.00  0.00    +0.000 A 
ATOM     10  N   UNL     1       1.480   8.279  20.201  0.00  0.00    +0.000 NA
ATOM     11  C   UNL     1       2.266   5.456  17.976  0.00  0.00    +0.000 C 
ATOM     12  C   UNL     1       3.522   4.613  18.191  0.00  0.00    +0.000 C 
ENDROOT
BRANCH   8  13
ATOM     13  C   UNL     1       1.219  11.777  18.757  0.00  0.00    +0.000 A 
ATOM     14  C   UNL     1      -0.041  12.347  18.568  0.00  0.00    +0.000 A 
ATOM     15  N   UNL     1      -0.255  13.683  18.478  0.00  0.00    +0.000 NA
ATOM     16  C   UNL     1       0.848  14.453  18.575  0.00  0.00    +0.000 A 
ATOM     17  C   UNL     1       2.105  13.912  18.748  0.00  0.00    +0.000 A 
ATOM     18  N   UNL     1       2.311  12.578  18.845  0.00  0.00    +0.000 NA
ENDBRANCH   8  13
BRANCH   1  20
ATOM     19  N   UNL     1       2.666   1.840  18.174  0.00  0.00    +0.000 N 
ATOM     20  C   UNL     1       2.474   2.589  19.299  0.00  0.00    +0.000 C 
ATOM     21  O   UNL     1       1.599   2.279  20.099  0.00  0.00    +0.000 OA
ATOM     22  H   UNL     1       2.100   1.008  18.079  0.00  0.00    +0.000 HD
ATOM     23  H   UNL     1       3.503   1.914  17.611  0.00  0.00    +0.000 HD
ENDBRANCH   1  20
BRANCH   9  24
ATOM     24  C   UNL     1       1.030  10.345  21.460  0.00  0.00    +0.000 C 
ATOM     25  C   UNL     1      -0.458  10.449  21.786  0.00  0.00    +0.000 C 
ATOM     26  C   UNL     1      -0.702   9.259  22.675  0.00  0.00    +0.000 C 
ATOM     27  C   UNL     1       0.594   9.167  23.442  0.00  0.00    +0.000 C 
ATOM     28  O   UNL     1       1.633   9.648  22.580  0.00  0.00    +0.000 OA
ENDBRANCH   9  24
TORSDOF 3
ENDMDL
MODEL 4
REMARK VINA RESULT:      -6.9      1.051      1.308
REMARK  Name = 
REMARK  3 active torsions:
REMARK  status: ('A' for Active; 'I' for Inactive)
REMARK    1  A    between atoms: C_2  and  C_4
REMARK    2  A    between atoms: C_11  and  C_12
REMARK    3  A    between atoms: C_18  and  C_19
REMARK                            x       y       z     vdW  Elec       q    Type
REMARK                         _______ _______ _______ _____ _____    ______ ____
ROOT
ATOM      1  C   UNL     1      -1.153  10.637  20.197  0.00  0.00    +0.000 C 
ATOM      2  C   UNL     1      -0.883   9.234  20.770  0.00  0.00    +0.000 C 
ATOM      3  C   UNL     1       0.611   8.940  20.936  0.00  0.00    +0.000 C 
ATOM      4  N   UNL     1       1.275   9.225  19.674  0.00  0.00    +0.000 N 
ATOM      5  C   UNL     1       2.149   8.330  19.115  0.00  0.00    +0.000 A 
ATOM      6  N   UNL     1       2.773   8.674  17.982  0.00  0.00    +0.000 NA
ATOM      7  C   UNL     1       3.604   7.773  17.427  0.00  0.00    +0.000 A 
ATOM      8  C   UNL     1       3.857   6.502  17.913  0.00  0.00    +0.000 A 
ATOM      9  C   UNL     1       3.143   6.210  19.076  0.00  0.00    +0.000 A 
ATOM     10  N   UNL     1       2.325   7.125  19.673  0.00  0.00    +0.000 NA
ATOM     11  C   UNL     1       1.165  10.580  19.164  0.00  0.00    +0.000 C 
ATOM     12  C   UNL     1      -0.314  10.886  18.932  0.00  0.00    +0.000 C 
ENDROOT
BRANCH   8  13
ATOM     13  C   UNL     1       4.820   5.618  17.244  0.00  0.00    +0.000 A 
ATOM     14  C   UNL     1       6.146   5.464  17.650  0.00  0.00    +0.000 A 
ATOM     15  N   UNL     1       7.010   4.588  17.079  0.00  0.00    +0.000 NA
ATOM     16  C   UNL     1       6.505   3.858  16.063  0.00  0.00    +0.000 A 
ATOM     17  C   UNL     1       5.200   4.003  15.636  0.00  0.00    +0.000 A 
ATOM     18  N   UNL     1       4.342   4.873  16.215  0.00  0.00    +0.000 NA
ENDBRANCH   8  13
BRANCH   1  20
ATOM     19  N   UNL     1      -1.156  11.341  22.536  0.00  0.00    +0.000 N 
ATOM     20  C   UNL     1      -0.929  11.721  21.245  0.00  0.00    +0.000 C 
ATOM     21  O   UNL     1      -0.546  12.858  20.999  0.00  0.00    +0.000 OA
ATOM     22  H   UNL     1      -0.936  12.018  23.255  0.00  0.00    +0.000 HD
ATOM     23  H   UNL     1      -1.248  10.371  22.808  0.00  0.00    +0.000 HD
ENDBRANCH   1  20
BRANCH   9  24
ATOM     24  C   UNL     1       3.219   4.833  19.737  0.00  0.00    +0.000 C 
ATOM     25  C   UNL     1       2.372   4.710  21.000  0.00  0.00    +0.000 C 
ATOM     26  C   UNL     1       1.086   4.108  20.499  0.00  0.00    +0.000 C 
ATOM     27  C   UNL     1       1.573   3.195  19.400  0.00  0.00    +0.000 C 
ATOM     28  O   UNL     1       2.749   3.792  18.842  0.00  0.00    +0.000 OA
ENDBRANCH   9  24
TORSDOF 3
ENDMDL
MODEL 5
REMARK VINA RESULT:      -6.6      2.213      3.863
REMARK  Name = 
REMARK  3 active torsions:
REMARK  status: ('A' for Active; 'I' for Inactive)
REMARK    1  A    between atoms: C_2  and  C_4
REMARK    2  A    between atoms: C_11  and  C_12
REMARK    3  A    between atoms: C_18  and  C_19
REMARK                            x       y       z     vdW  Elec       q    Type
REMARK                         _______ _______ _______ _____ _____    ______ ____
ROOT
ATOM      1  C   UNL     1       1.231  11.793  19.667  0.00  0.00    +0.000 C 
ATOM      2  C   UNL     1       2.164  11.257  18.567  0.00  0.00    +0.000 C 
ATOM      3  C   UNL     1       1.696   9.914  17.995  0.00  0.00    +0.000 C 
ATOM      4  N   UNL     1       1.468   9.002  19.105  0.00  0.00    +0.000 N 
ATOM      5  C   UNL     1       1.976   7.730  19.092  0.00  0.00    +0.000 A 
ATOM      6  N   UNL     1       1.684   6.918  20.115  0.00  0.00    +0.000 NA
ATOM      7  C   UNL     1       2.215   5.682  20.105  0.00  0.00    +0.000 A 
ATOM      8  C   UNL     1       3.066   5.178  19.136  0.00  0.00    +0.000 A 
ATOM      9  C   UNL     1       3.347   6.096  18.124  0.00  0.00    +0.000 A 
ATOM     10  N   UNL     1       2.786   7.341  18.099  0.00  0.00    +0.000 NA
ATOM     11  C   UNL     1       0.487   9.404  20.097  0.00  0.00    +0.000 C 
ATOM     12  C   UNL     1       0.955  10.715  20.728  0.00  0.00    +0.000 C 
ENDROOT
BRANCH   8  13
ATOM     13  C   UNL     1       3.552   3.794  19.208  0.00  0.00    +0.000 A 
ATOM     14  C   UNL     1       4.496   3.349  20.134  0.00  0.00    +0.000 A 
ATOM     15  N   UNL     1       4.883   2.054  20.249  0.00  0.00    +0.000 NA
ATOM     16  C   UNL     1       4.296   1.197  19.390  0.00  0.00    +0.000 A 
ATOM     17  C   UNL     1       3.370   1.617  18.456  0.00  0.00    +0.000 A 
ATOM     18  N   UNL     1       2.983   2.908  18.352  0.00  0.00    +0.000 NA
ENDBRANCH   8  13
BRANCH   1  20
ATOM     19  N   UNL     1       0.067  12.975  17.873  0.00  0.00    +0.000 N 
ATOM     20  C   UNL     1      -0.061  12.351  19.081  0.00  0.00    +0.000 C 
ATOM     21  O   UNL     1      -1.164  12.250  19.604  0.00  0.00    +0.000 OA
ATOM     22  H   UNL     1      -0.787  13.281  17.427  0.00  0.00    +0.000 HD
ATOM     23  H   UNL     1       0.897  12.886  17.303  0.00  0.00    +0.000 HD
ENDBRANCH   1  20
BRANCH   9  24
ATOM     24  C   UNL     1       4.324   5.768  16.995  0.00  0.00    +0.000 C 
ATOM     25  C   UNL     1       4.941   7.000  16.338  0.00  0.00    +0.000 C 
ATOM     26  C   UNL     1       6.248   7.164  17.066  0.00  0.00    +0.000 C 
ATOM     27  C   UNL     1       6.647   5.732  17.325  0.00  0.00    +0.000 C 
ATOM     28  O   UNL     1       5.440   4.975  17.476  0.00  0.00    +0.000 OA
ENDBRANCH   9  24
TORSDOF 3
ENDMDL
MODEL 6
REMARK VINA RESULT:      -6.6      8.185     11.147
REMARK  Name = 
REMARK  3 active torsions:
REMARK  status: ('A' for Active; 'I' for Inactive)
REMARK    1  A    between atoms: C_2  and  C_4
REMARK    2  A    between atoms: C_11  and  C_12
REMARK    3  A    between atoms: C_18  and  C_19
REMARK                            x       y       z     vdW  Elec       q    Type
REMARK                         _______ _______ _______ _____ _____    ______ ____
ROOT
ATOM      1  C   UNL     1      10.045  12.185  17.749  0.00  0.00    +0.000 C 
ATOM      2  C   UNL     1       8.846  13.110  18.021  0.00  0.00    +0.000 C 
ATOM      3  C   UNL     1       8.912  13.775  19.400  0.00  0.00    +0.000 C 
ATOM      4  N   UNL     1       9.125  12.737  20.396  0.00  0.00    +0.000 N 
ATOM      5  C   UNL     1       8.362  12.678  21.532  0.00  0.00    +0.000 A 
ATOM      6  N   UNL     1       8.644  11.735  22.440  0.00  0.00    +0.000 NA
ATOM      7  C   UNL     1       7.867  11.668  23.536  0.00  0.00    +0.000 A 
ATOM      8  C   UNL     1       6.776  12.479  23.801  0.00  0.00    +0.000 A 
ATOM      9  C   UNL     1       6.529  13.411  22.793  0.00  0.00    +0.000 A 
ATOM     10  N   UNL     1       7.331  13.517  21.693  0.00  0.00    +0.000 NA
ATOM     11  C   UNL     1      10.324  11.929  20.259  0.00  0.00    +0.000 C 
ATOM     12  C   UNL     1      10.261  11.205  18.914  0.00  0.00    +0.000 C 
ENDROOT
BRANCH   8  13
ATOM     13  C   UNL     1       6.025  12.341  25.055  0.00  0.00    +0.000 A 
ATOM     14  C   UNL     1       5.641  13.420  25.854  0.00  0.00    +0.000 A 
ATOM     15  N   UNL     1       4.879  13.295  26.970  0.00  0.00    +0.000 NA
ATOM     16  C   UNL     1       4.508  12.035  27.278  0.00  0.00    +0.000 A 
ATOM     17  C   UNL     1       4.887  10.952  26.511  0.00  0.00    +0.000 A 
ATOM     18  N   UNL     1       5.641  11.085  25.395  0.00  0.00    +0.000 NA
ENDBRANCH   8  13
BRANCH   1  20
ATOM     19  N   UNL     1      11.244  13.770  16.328  0.00  0.00    +0.000 N 
ATOM     20  C   UNL     1      11.307  12.982  17.441  0.00  0.00    +0.000 C 
ATOM     21  O   UNL     1      12.321  12.973  18.128  0.00  0.00    +0.000 OA
ATOM     22  H   UNL     1      12.039  14.369  16.149  0.00  0.00    +0.000 HD
ATOM     23  H   UNL     1      10.371  13.986  15.865  0.00  0.00    +0.000 HD
ENDBRANCH   1  20
BRANCH   9  24
ATOM     24  C   UNL     1       5.328  14.354  22.852  0.00  0.00    +0.000 C 
ATOM     25  C   UNL     1       5.473  15.592  21.971  0.00  0.00    +0.000 C 
ATOM     26  C   UNL     1       4.769  15.199  20.700  0.00  0.00    +0.000 C 
ATOM     27  C   UNL     1       3.645  14.334  21.216  0.00  0.00    +0.000 C 
ATOM     28  O   UNL     1       4.115  13.692  22.407  0.00  0.00    +0.000 OA
ENDBRANCH   9  24
TORSDOF 3
ENDMDL
MODEL 7
REMARK VINA RESULT:      -6.5      2.011      7.497
REMARK  Name = 
REMARK  3 active torsions:
REMARK  status: ('A' for Active; 'I' for Inactive)
REMARK    1  A    between atoms: C_2  and  C_4
REMARK    2  A    between atoms: C_11  and  C_12
REMARK    3  A    between atoms: C_18  and  C_19
REMARK                            x       y       z     vdW  Elec       q    Type
REMARK                         _______ _______ _______ _____ _____    ______ ____
ROOT
ATOM      1  C   UNL     1       6.903   4.850  15.800  0.00  0.00    +0.000 C 
ATOM      2  C   UNL     1       6.097   4.088  16.867  0.00  0.00    +0.000 C 
ATOM      3  C   UNL     1       4.609   4.457  16.860  0.00  0.00    +0.000 C 
ATOM      4  N   UNL     1       4.499   5.905  16.926  0.00  0.00    +0.000 N 
ATOM      5  C   UNL     1       3.652   6.511  17.815  0.00  0.00    +0.000 A 
ATOM      6  N   UNL     1       3.550   7.846  17.789  0.00  0.00    +0.000 NA
ATOM      7  C   UNL     1       2.739   8.430  18.689  0.00  0.00    +0.000 A 
ATOM      8  C   UNL     1       2.011   7.772  19.666  0.00  0.00    +0.000 A 
ATOM      9  C   UNL     1       2.198   6.389  19.648  0.00  0.00    +0.000 A 
ATOM     10  N   UNL     1       2.988   5.778  18.718  0.00  0.00    +0.000 NA
ATOM     11  C   UNL     1       5.126   6.662  15.858  0.00  0.00    +0.000 C 
ATOM     12  C   UNL     1       6.625   6.361  15.874  0.00  0.00    +0.000 C 
ENDROOT
BRANCH   8  13
ATOM     13  C   UNL     1       1.123   8.513  20.570  0.00  0.00    +0.000 A 
ATOM     14  C   UNL     1       1.262   8.527  21.958  0.00  0.00    +0.000 A 
ATOM     15  N   UNL     1       0.488   9.276  22.783  0.00  0.00    +0.000 NA
ATOM     16  C   UNL     1      -0.455  10.022  22.172  0.00  0.00    +0.000 A 
ATOM     17  C   UNL     1      -0.620  10.013  20.802  0.00  0.00    +0.000 A 
ATOM     18  N   UNL     1       0.160   9.269  19.985  0.00  0.00    +0.000 NA
ENDBRANCH   8  13
BRANCH   1  20
ATOM     19  N   UNL     1       7.234   4.986  13.384  0.00  0.00    +0.000 N 
ATOM     20  C   UNL     1       6.645   4.296  14.404  0.00  0.00    +0.000 C 
ATOM     21  O   UNL     1       5.986   3.292  14.164  0.00  0.00    +0.000 OA
ATOM     22  H   UNL     1       7.145   4.592  12.457  0.00  0.00    +0.000 HD
ATOM     23  H   UNL     1       7.961   5.672  13.542  0.00  0.00    +0.000 HD
ENDBRANCH   1  20
BRANCH   9  24
ATOM     24  C   UNL     1       1.546   5.480  20.690  0.00  0.00    +0.000 C 
ATOM     25  C   UNL     1       0.695   4.365  20.088  0.00  0.00    +0.000 C 
ATOM     26  C   UNL     1       1.639   3.194  20.041  0.00  0.00    +0.000 C 
ATOM     27  C   UNL     1       2.465   3.405  21.286  0.00  0.00    +0.000 C 
ATOM     28  O   UNL     1       2.543   4.818  21.510  0.00  0.00    +0.000 OA
ENDBRANCH   9  24
TORSDOF 3
ENDMDL
MODEL 8
REMARK VINA RESULT:      -6.5      2.068      8.320
REMARK  Name = 
REMARK  3 active torsions:
REMARK  status: ('A' for Active; 'I' for Inactive)
REMARK    1  A    between atoms: C_2  and  C_4
REMARK    2  A    between atoms: C_11  and  C_12
REMARK    3  A    between atoms: C_18  and  C_19
REMARK                            x       y       z     vdW  Elec       q    Type
REMARK                         _______ _______ _______ _____ _____    ______ ____
ROOT
ATOM      1  C   UNL     1       2.583   4.124  18.707  0.00  0.00    +0.000 C 
ATOM      2  C   UNL     1       1.947   5.217  17.831  0.00  0.00    +0.000 C 
ATOM      3  C   UNL     1       2.440   6.624  18.187  0.00  0.00    +0.000 C 
ATOM      4  N   UNL     1       2.277   6.814  19.619  0.00  0.00    +0.000 N 
ATOM      5  C   UNL     1       1.688   7.944  20.121  0.00  0.00    +0.000 A 
ATOM      6  N   UNL     1       1.618   8.089  21.450  0.00  0.00    +0.000 NA
ATOM      7  C   UNL     1       1.008   9.188  21.930  0.00  0.00    +0.000 A 
ATOM      8  C   UNL     1       0.418  10.180  21.166  0.00  0.00    +0.000 A 
ATOM      9  C   UNL     1       0.503   9.938  19.795  0.00  0.00    +0.000 A 
ATOM     10  N   UNL     1       1.152   8.847  19.291  0.00  0.00    +0.000 NA
ATOM     11  C   UNL     1       2.978   5.887  20.491  0.00  0.00    +0.000 C 
ATOM     12  C   UNL     1       2.466   4.477  20.200  0.00  0.00    +0.000 C 
ENDROOT
BRANCH   8  13
ATOM     13  C   UNL     1      -0.184  11.360  21.801  0.00  0.00    +0.000 A 
ATOM     14  C   UNL     1      -1.303  11.309  22.633  0.00  0.00    +0.000 A 
ATOM     15  N   UNL     1      -1.807  12.390  23.280  0.00  0.00    +0.000 NA
ATOM     16  C   UNL     1      -1.154  13.550  23.063  0.00  0.00    +0.000 A 
ATOM     17  C   UNL     1      -0.054  13.626  22.233  0.00  0.00    +0.000 A 
ATOM     18  N   UNL     1       0.448  12.543  21.597  0.00  0.00    +0.000 NA
ENDBRANCH   8  13
BRANCH   1  20
ATOM     19  N   UNL     1       4.780   3.193  19.231  0.00  0.00    +0.000 N 
ATOM     20  C   UNL     1       4.028   3.855  18.304  0.00  0.00    +0.000 C 
ATOM     21  O   UNL     1       4.519   4.165  17.225  0.00  0.00    +0.000 OA
ATOM     22  H   UNL     1       5.717   2.931  18.954  0.00  0.00    +0.000 HD
ATOM     23  H   UNL     1       4.368   2.721  20.026  0.00  0.00    +0.000 HD
ENDBRANCH   1  20
BRANCH   9  24
ATOM     24  C   UNL     1      -0.149  10.872  18.775  0.00  0.00    +0.000 C 
ATOM     25  C   UNL     1      -0.632  10.164  17.513  0.00  0.00    +0.000 C 
ATOM     26  C   UNL     1      -2.085   9.892  17.801  0.00  0.00    +0.000 C 
ATOM     27  C   UNL     1      -2.478  11.105  18.608  0.00  0.00    +0.000 C 
ATOM     28  O   UNL     1      -1.317  11.528  19.333  0.00  0.00    +0.000 OA
ENDBRANCH   9  24
TORSDOF 3
ENDMDL
MODEL 9
REMARK VINA RESULT:      -6.4      2.200      7.436
REMARK  Name = 
REMARK  3 active torsions:
REMARK  status: ('A' for Active; 'I' for Inactive)
REMARK    1  A    between atoms: C_2  and  C_4
REMARK    2  A    between atoms: C_11  and  C_12
REMARK    3  A    between atoms: C_18  and  C_19
REMARK                            x       y       z     vdW  Elec       q    Type
REMARK                         _______ _______ _______ _____ _____    ______ ____
ROOT
ATOM      1  C   UNL     1       6.953   4.844  15.884  0.00  0.00    +0.000 C 
ATOM      2  C   UNL     1       6.173   3.998  16.906  0.00  0.00    +0.000 C 
ATOM      3  C   UNL     1       4.677   4.329  16.930  0.00  0.00    +0.000 C 
ATOM      4  N   UNL     1       4.532   5.768  17.086  0.00  0.00    +0.000 N 
ATOM      5  C   UNL     1       3.677   6.296  18.017  0.00  0.00    +0.000 A 
ATOM      6  N   UNL     1       3.543   7.627  18.075  0.00  0.00    +0.000 NA
ATOM      7  C   UNL     1       2.724   8.134  19.014  0.00  0.00    +0.000 A 
ATOM      8  C   UNL     1       2.020   7.399  19.952  0.00  0.00    +0.000 A 
ATOM      9  C   UNL     1       2.239   6.025  19.846  0.00  0.00    +0.000 A 
ATOM     10  N   UNL     1       3.037   5.492  18.875  0.00  0.00    +0.000 NA
ATOM     11  C   UNL     1       5.134   6.605  16.065  0.00  0.00    +0.000 C 
ATOM     12  C   UNL     1       6.639   6.340  16.054  0.00  0.00    +0.000 C 
ENDROOT
BRANCH   8  13
ATOM     13  C   UNL     1       1.120   8.060  20.905  0.00  0.00    +0.000 A 
ATOM     14  C   UNL     1      -0.244   7.782  21.008  0.00  0.00    +0.000 A 
ATOM     15  N   UNL     1      -1.055   8.337  21.943  0.00  0.00    +0.000 NA
ATOM     16  C   UNL     1      -0.457   9.203  22.786  0.00  0.00    +0.000 A 
ATOM     17  C   UNL     1       0.887   9.504  22.694  0.00  0.00    +0.000 A 
ATOM     18  N   UNL     1       1.691   8.941  21.764  0.00  0.00    +0.000 NA
ENDBRANCH   8  13
BRANCH   1  20
ATOM     19  N   UNL     1       5.993   3.210  14.343  0.00  0.00    +0.000 N 
ATOM     20  C   UNL     1       6.699   4.373  14.457  0.00  0.00    +0.000 C 
ATOM     21  O   UNL     1       7.059   4.972  13.452  0.00  0.00    +0.000 OA
ATOM     22  H   UNL     1       5.741   2.921  13.407  0.00  0.00    +0.000 HD
ATOM     23  H   UNL     1       5.485   2.806  15.119  0.00  0.00    +0.000 HD
ENDBRANCH   1  20
BRANCH   9  24
ATOM     24  C   UNL     1       1.616   5.037  20.832  0.00  0.00    +0.000 C 
ATOM     25  C   UNL     1       0.784   3.944  20.167  0.00  0.00    +0.000 C 
ATOM     26  C   UNL     1       1.753   2.799  20.037  0.00  0.00    +0.000 C 
ATOM     27  C   UNL     1       2.586   2.949  21.287  0.00  0.00    +0.000 C 
ATOM     28  O   UNL     1       2.635   4.346  21.601  0.00  0.00    +0.000 OA
ENDBRANCH   9  24
TORSDOF 3
ENDMDL
