MODEL 1
REMARK VINA RESULT:      -9.1      0.000      0.000
REMARK  Name = 
REMARK  2 active torsions:
REMARK  status: ('A' for Active; 'I' for Inactive)
REMARK    1  A    between atoms: C_5  and  C_6
REMARK    2  A    between atoms: N_12  and  C_13
REMARK                            x       y       z     vdW  Elec       q    Type
REMARK                         _______ _______ _______ _____ _____    ______ ____
ROOT
ATOM      1  C   UNL     1       1.919   6.975  20.254  0.00  0.00    +0.000 A 
ATOM      2  N   UNL     1       2.602   6.839  19.104  0.00  0.00    +0.000 NA
ATOM      3  C   UNL     1       3.118   5.621  18.828  0.00  0.00    +0.000 A 
ATOM      4  N   UNL     1       3.818   5.457  17.648  0.00  0.00    +0.000 N 
ATOM      5  C   UNL     1       4.514   6.587  17.021  0.00  0.00    +0.000 C 
ATOM      6  C   UNL     1       5.825   6.044  16.378  0.00  0.00    +0.000 C 
ATOM      7  N   UNL     1       5.511   4.923  15.463  0.00  0.00    +0.000 N 
ATOM      8  C   UNL     1       4.722   3.832  16.070  0.00  0.00    +0.000 C 
ATOM      9  C   UNL     1       3.427   4.417  16.678  0.00  0.00    +0.000 C 
ATOM     10  C   UNL     1       3.006   4.544  19.739  0.00  0.00    +0.000 A 
ATOM     11  C   UNL     1       3.619   3.266  19.606  0.00  0.00    +0.000 A 
ATOM     12  C   UNL     1       3.417   2.251  20.535  0.00  0.00    +0.000 A 
ATOM     13  C   UNL     1       2.637   2.512  21.646  0.00  0.00    +0.000 A 
ATOM     14  C   UNL     1       2.082   3.783  21.815  0.00  0.00    +0.000 A 
ATOM     15  C   UNL     1       2.259   4.800  20.886  0.00  0.00    +0.000 A 
ATOM     16  N   UNL     1       1.717   5.989  21.144  0.00  0.00    +0.000 NA
ENDROOT
BRANCH   1  21
ATOM     17 CL   UNL     1      -0.571  12.285  21.683  0.00  0.00    +0.000 Cl
ATOM     18  C   UNL     1       0.154  10.780  21.271  0.00  0.00    +0.000 A 
ATOM     19  C   UNL     1       0.527  10.521  19.954  0.00  0.00    +0.000 A 
ATOM     20  C   UNL     1       1.108   9.290  19.619  0.00  0.00    +0.000 A 
ATOM     21  C   UNL     1       1.326   8.292  20.588  0.00  0.00    +0.000 A 
ATOM     22  C   UNL     1       0.943   8.597  21.914  0.00  0.00    +0.000 A 
ATOM     23  C   UNL     1       0.363   9.823  22.256  0.00  0.00    +0.000 A 
ENDBRANCH   1  21
BRANCH   7  24
ATOM     24  C   UNL     1       6.223   4.680  14.307  0.00  0.00    +0.000 A 
ATOM     25  C   UNL     1       7.370   5.399  13.949  0.00  0.00    +0.000 A 
ATOM     26  C   UNL     1       8.026   5.164  12.735  0.00  0.00    +0.000 A 
ATOM     27  C   UNL     1       7.543   4.205  11.849  0.00  0.00    +0.000 A 
ATOM     28  C   UNL     1       6.411   3.473  12.184  0.00  0.00    +0.000 A 
ATOM     29  C   UNL     1       5.766   3.712  13.398  0.00  0.00    +0.000 A 
ENDBRANCH   7  24
TORSDOF 2
ENDMDL
MODEL 2
REMARK VINA RESULT:      -8.8      3.027      8.503
REMARK  Name = 
REMARK  2 active torsions:
REMARK  status: ('A' for Active; 'I' for Inactive)
REMARK    1  A    between atoms: C_5  and  C_6
REMARK    2  A    between atoms: N_12  and  C_13
REMARK                            x       y       z     vdW  Elec       q    Type
REMARK                         _______ _______ _______ _____ _____    ______ ____
ROOT
ATOM      1  C   UNL     1       4.094   4.877  17.251  0.00  0.00    +0.000 A 
ATOM      2  N   UNL     1       3.631   6.029  17.764  0.00  0.00    +0.000 NA
ATOM      3  C   UNL     1       2.702   5.946  18.742  0.00  0.00    +0.000 A 
ATOM      4  N   UNL     1       2.218   7.119  19.289  0.00  0.00    +0.000 N 
ATOM      5  C   UNL     1       2.192   8.361  18.507  0.00  0.00    +0.000 C 
ATOM      6  C   UNL     1       0.910   9.151  18.906  0.00  0.00    +0.000 C 
ATOM      7  N   UNL     1       0.871   9.341  20.374  0.00  0.00    +0.000 N 
ATOM      8  C   UNL     1       1.000   8.097  21.161  0.00  0.00    +0.000 C 
ATOM      9  C   UNL     1       2.291   7.360  20.742  0.00  0.00    +0.000 C 
ATOM     10  C   UNL     1       2.182   4.701  19.167  0.00  0.00    +0.000 A 
ATOM     11  C   UNL     1       1.116   4.509  20.091  0.00  0.00    +0.000 A 
ATOM     12  C   UNL     1       0.699   3.241  20.482  0.00  0.00    +0.000 A 
ATOM     13  C   UNL     1       1.309   2.136  19.917  0.00  0.00    +0.000 A 
ATOM     14  C   UNL     1       2.313   2.317  18.963  0.00  0.00    +0.000 A 
ATOM     15  C   UNL     1       2.753   3.576  18.577  0.00  0.00    +0.000 A 
ATOM     16  N   UNL     1       3.696   3.654  17.639  0.00  0.00    +0.000 NA
ENDROOT
BRANCH   1  21
ATOM     17 CL   UNL     1       8.285   5.184  12.918  0.00  0.00    +0.000 Cl
ATOM     18  C   UNL     1       7.095   5.079  14.156  0.00  0.00    +0.000 A 
ATOM     19  C   UNL     1       6.022   4.201  14.022  0.00  0.00    +0.000 A 
ATOM     20  C   UNL     1       5.048   4.125  15.028  0.00  0.00    +0.000 A 
ATOM     21  C   UNL     1       5.122   4.924  16.185  0.00  0.00    +0.000 A 
ATOM     22  C   UNL     1       6.231   5.795  16.287  0.00  0.00    +0.000 A 
ATOM     23  C   UNL     1       7.206   5.876  15.289  0.00  0.00    +0.000 A 
ENDBRANCH   1  21
BRANCH   7  24
ATOM     24  C   UNL     1       0.338  10.465  20.969  0.00  0.00    +0.000 A 
ATOM     25  C   UNL     1       0.600  11.765  20.521  0.00  0.00    +0.000 A 
ATOM     26  C   UNL     1       0.092  12.883  21.193  0.00  0.00    +0.000 A 
ATOM     27  C   UNL     1      -0.689  12.720  22.334  0.00  0.00    +0.000 A 
ATOM     28  C   UNL     1      -0.969  11.441  22.795  0.00  0.00    +0.000 A 
ATOM     29  C   UNL     1      -0.460  10.334  22.116  0.00  0.00    +0.000 A 
ENDBRANCH   7  24
TORSDOF 2
ENDMDL
MODEL 3
REMARK VINA RESULT:      -8.8      3.558      6.800
REMARK  Name = 
REMARK  2 active torsions:
REMARK  status: ('A' for Active; 'I' for Inactive)
REMARK    1  A    between atoms: C_5  and  C_6
REMARK    2  A    between atoms: N_12  and  C_13
REMARK                            x       y       z     vdW  Elec       q    Type
REMARK                         _______ _______ _______ _____ _____    ______ ____
ROOT
ATOM      1  C   UNL     1      -1.685  11.974  20.667  0.00  0.00    +0.000 A 
ATOM      2  N   UNL     1      -0.633  11.148  20.543  0.00  0.00    +0.000 NA
ATOM      3  C   UNL     1      -0.522  10.450  19.391  0.00  0.00    +0.000 A 
ATOM      4  N   UNL     1       0.556   9.600  19.239  0.00  0.00    +0.000 N 
ATOM      5  C   UNL     1       1.201   8.984  20.407  0.00  0.00    +0.000 C 
ATOM      6  C   UNL     1       1.648   7.547  20.004  0.00  0.00    +0.000 C 
ATOM      7  N   UNL     1       2.491   7.604  18.787  0.00  0.00    +0.000 N 
ATOM      8  C   UNL     1       1.879   8.313  17.645  0.00  0.00    +0.000 C 
ATOM      9  C   UNL     1       1.468   9.735  18.089  0.00  0.00    +0.000 C 
ATOM     10  C   UNL     1      -1.506  10.530  18.378  0.00  0.00    +0.000 A 
ATOM     11  C   UNL     1      -1.552   9.747  17.190  0.00  0.00    +0.000 A 
ATOM     12  C   UNL     1      -2.540   9.926  16.227  0.00  0.00    +0.000 A 
ATOM     13  C   UNL     1      -3.532  10.860  16.457  0.00  0.00    +0.000 A 
ATOM     14  C   UNL     1      -3.528  11.589  17.649  0.00  0.00    +0.000 A 
ATOM     15  C   UNL     1      -2.538  11.435  18.611  0.00  0.00    +0.000 A 
ATOM     16  N   UNL     1      -2.631  12.152  19.730  0.00  0.00    +0.000 NA
ENDROOT
BRANCH   1  21
ATOM     17 CL   UNL     1      -2.413  15.220  25.703  0.00  0.00    +0.000 Cl
ATOM     18  C   UNL     1      -2.191  14.287  24.276  0.00  0.00    +0.000 A 
ATOM     19  C   UNL     1      -1.033  14.436  23.516  0.00  0.00    +0.000 A 
ATOM     20  C   UNL     1      -0.859  13.682  22.346  0.00  0.00    +0.000 A 
ATOM     21  C   UNL     1      -1.837  12.766  21.910  0.00  0.00    +0.000 A 
ATOM     22  C   UNL     1      -2.992  12.637  22.713  0.00  0.00    +0.000 A 
ATOM     23  C   UNL     1      -3.173  13.386  23.881  0.00  0.00    +0.000 A 
ENDBRANCH   1  21
BRANCH   7  24
ATOM     24  C   UNL     1       3.537   6.734  18.561  0.00  0.00    +0.000 A 
ATOM     25  C   UNL     1       4.374   6.818  17.442  0.00  0.00    +0.000 A 
ATOM     26  C   UNL     1       5.383   5.874  17.216  0.00  0.00    +0.000 A 
ATOM     27  C   UNL     1       5.572   4.822  18.108  0.00  0.00    +0.000 A 
ATOM     28  C   UNL     1       4.759   4.720  19.229  0.00  0.00    +0.000 A 
ATOM     29  C   UNL     1       3.758   5.667  19.447  0.00  0.00    +0.000 A 
ENDBRANCH   7  24
TORSDOF 2
ENDMDL
MODEL 4
REMARK VINA RESULT:      -8.8      3.587      6.883
REMARK  Name = 
REMARK  2 active torsions:
REMARK  status: ('A' for Active; 'I' for Inactive)
REMARK    1  A    between atoms: C_5  and  C_6
REMARK    2  A    between atoms: N_12  and  C_13
REMARK                            x       y       z     vdW  Elec       q    Type
REMARK                         _______ _______ _______ _____ _____    ______ ____
ROOT
ATOM      1  C   UNL     1      -1.725  12.034  20.660  0.00  0.00    +0.000 A 
ATOM      2  N   UNL     1      -0.677  11.202  20.536  0.00  0.00    +0.000 NA
ATOM      3  C   UNL     1      -0.575  10.497  19.388  0.00  0.00    +0.000 A 
ATOM      4  N   UNL     1       0.499   9.641  19.236  0.00  0.00    +0.000 N 
ATOM      5  C   UNL     1       1.147   9.031  20.404  0.00  0.00    +0.000 C 
ATOM      6  C   UNL     1       1.586   7.589  20.008  0.00  0.00    +0.000 C 
ATOM      7  N   UNL     1       2.422   7.635  18.786  0.00  0.00    +0.000 N 
ATOM      8  C   UNL     1       1.808   8.339  17.643  0.00  0.00    +0.000 C 
ATOM      9  C   UNL     1       1.405   9.766  18.079  0.00  0.00    +0.000 C 
ATOM     10  C   UNL     1      -1.564  10.574  18.380  0.00  0.00    +0.000 A 
ATOM     11  C   UNL     1      -1.620   9.784  17.197  0.00  0.00    +0.000 A 
ATOM     12  C   UNL     1      -2.613   9.960  16.239  0.00  0.00    +0.000 A 
ATOM     13  C   UNL     1      -3.600  10.900  16.468  0.00  0.00    +0.000 A 
ATOM     14  C   UNL     1      -3.586  11.637  17.655  0.00  0.00    +0.000 A 
ATOM     15  C   UNL     1      -2.592  11.485  18.612  0.00  0.00    +0.000 A 
ATOM     16  N   UNL     1      -2.676  12.210  19.727  0.00  0.00    +0.000 NA
ENDROOT
BRANCH   1  21
ATOM     17 CL   UNL     1      -2.192  15.274  25.731  0.00  0.00    +0.000 Cl
ATOM     18  C   UNL     1      -2.073  14.360  24.279  0.00  0.00    +0.000 A 
ATOM     19  C   UNL     1      -3.104  13.499  23.909  0.00  0.00    +0.000 A 
ATOM     20  C   UNL     1      -3.000  12.746  22.730  0.00  0.00    +0.000 A 
ATOM     21  C   UNL     1      -1.867  12.835  21.899  0.00  0.00    +0.000 A 
ATOM     22  C   UNL     1      -0.848  13.727  22.304  0.00  0.00    +0.000 A 
ATOM     23  C   UNL     1      -0.945  14.480  23.479  0.00  0.00    +0.000 A 
ENDBRANCH   1  21
BRANCH   7  24
ATOM     24  C   UNL     1       3.463   6.759  18.560  0.00  0.00    +0.000 A 
ATOM     25  C   UNL     1       3.778   5.704  19.426  0.00  0.00    +0.000 A 
ATOM     26  C   UNL     1       4.884   4.877  19.194  0.00  0.00    +0.000 A 
ATOM     27  C   UNL     1       5.703   5.095  18.089  0.00  0.00    +0.000 A 
ATOM     28  C   UNL     1       5.408   6.130  17.212  0.00  0.00    +0.000 A 
ATOM     29  C   UNL     1       4.302   6.946  17.450  0.00  0.00    +0.000 A 
ENDBRANCH   7  24
TORSDOF 2
ENDMDL
MODEL 5
REMARK VINA RESULT:      -8.7      3.032      8.556
REMARK  Name = 
REMARK  2 active torsions:
REMARK  status: ('A' for Active; 'I' for Inactive)
REMARK    1  A    between atoms: C_5  and  C_6
REMARK    2  A    between atoms: N_12  and  C_13
REMARK                            x       y       z     vdW  Elec       q    Type
REMARK                         _______ _______ _______ _____ _____    ______ ____
ROOT
ATOM      1  C   UNL     1       4.093   4.926  17.292  0.00  0.00    +0.000 A 
ATOM      2  N   UNL     1       3.621   6.067  17.823  0.00  0.00    +0.000 NA
ATOM      3  C   UNL     1       2.694   5.961  18.799  0.00  0.00    +0.000 A 
ATOM      4  N   UNL     1       2.200   7.121  19.364  0.00  0.00    +0.000 N 
ATOM      5  C   UNL     1       2.163   8.375  18.601  0.00  0.00    +0.000 C 
ATOM      6  C   UNL     1       0.875   9.148  19.012  0.00  0.00    +0.000 C 
ATOM      7  N   UNL     1       0.836   9.315  20.484  0.00  0.00    +0.000 N 
ATOM      8  C   UNL     1       0.975   8.062  21.252  0.00  0.00    +0.000 C 
ATOM      9  C   UNL     1       2.273   7.341  20.821  0.00  0.00    +0.000 C 
ATOM     10  C   UNL     1       2.185   4.706  19.207  0.00  0.00    +0.000 A 
ATOM     11  C   UNL     1       1.121   4.491  20.128  0.00  0.00    +0.000 A 
ATOM     12  C   UNL     1       0.715   3.213  20.501  0.00  0.00    +0.000 A 
ATOM     13  C   UNL     1       1.333   2.122  19.919  0.00  0.00    +0.000 A 
ATOM     14  C   UNL     1       2.336   2.326  18.966  0.00  0.00    +0.000 A 
ATOM     15  C   UNL     1       2.765   3.595  18.599  0.00  0.00    +0.000 A 
ATOM     16  N   UNL     1       3.706   3.694  17.662  0.00  0.00    +0.000 NA
ENDROOT
BRANCH   1  21
ATOM     17 CL   UNL     1       8.273   5.105  12.941  0.00  0.00    +0.000 Cl
ATOM     18  C   UNL     1       7.078   5.071  14.177  0.00  0.00    +0.000 A 
ATOM     19  C   UNL     1       7.231   5.855  15.319  0.00  0.00    +0.000 A 
ATOM     20  C   UNL     1       6.261   5.818  16.331  0.00  0.00    +0.000 A 
ATOM     21  C   UNL     1       5.121   4.998  16.226  0.00  0.00    +0.000 A 
ATOM     22  C   UNL     1       4.998   4.225  15.049  0.00  0.00    +0.000 A 
ATOM     23  C   UNL     1       5.961   4.257  14.036  0.00  0.00    +0.000 A 
ENDBRANCH   1  21
BRANCH   7  24
ATOM     24  C   UNL     1       0.294  10.426  21.095  0.00  0.00    +0.000 A 
ATOM     25  C   UNL     1      -0.434  10.364  22.289  0.00  0.00    +0.000 A 
ATOM     26  C   UNL     1      -1.024  11.507  22.843  0.00  0.00    +0.000 A 
ATOM     27  C   UNL     1      -0.901  12.738  22.206  0.00  0.00    +0.000 A 
ATOM     28  C   UNL     1      -0.178  12.828  21.023  0.00  0.00    +0.000 A 
ATOM     29  C   UNL     1       0.409  11.684  20.482  0.00  0.00    +0.000 A 
ENDBRANCH   7  24
TORSDOF 2
ENDMDL
MODEL 6
REMARK VINA RESULT:      -8.6      0.089      1.264
REMARK  Name = 
REMARK  2 active torsions:
REMARK  status: ('A' for Active; 'I' for Inactive)
REMARK    1  A    between atoms: C_5  and  C_6
REMARK    2  A    between atoms: N_12  and  C_13
REMARK                            x       y       z     vdW  Elec       q    Type
REMARK                         _______ _______ _______ _____ _____    ______ ____
ROOT
ATOM      1  C   UNL     1       1.907   6.956  20.278  0.00  0.00    +0.000 A 
ATOM      2  N   UNL     1       2.563   6.821  19.113  0.00  0.00    +0.000 NA
ATOM      3  C   UNL     1       3.075   5.604  18.824  0.00  0.00    +0.000 A 
ATOM      4  N   UNL     1       3.747   5.441  17.628  0.00  0.00    +0.000 N 
ATOM      5  C   UNL     1       4.427   6.573  16.986  0.00  0.00    +0.000 C 
ATOM      6  C   UNL     1       5.724   6.032  16.312  0.00  0.00    +0.000 C 
ATOM      7  N   UNL     1       5.389   4.911  15.404  0.00  0.00    +0.000 N 
ATOM      8  C   UNL     1       4.616   3.818  16.028  0.00  0.00    +0.000 C 
ATOM      9  C   UNL     1       3.335   4.401  16.667  0.00  0.00    +0.000 C 
ATOM     10  C   UNL     1       2.985   4.527  19.736  0.00  0.00    +0.000 A 
ATOM     11  C   UNL     1       3.596   3.249  19.588  0.00  0.00    +0.000 A 
ATOM     12  C   UNL     1       3.418   2.234  20.522  0.00  0.00    +0.000 A 
ATOM     13  C   UNL     1       2.662   2.493  21.650  0.00  0.00    +0.000 A 
ATOM     14  C   UNL     1       2.110   3.764  21.833  0.00  0.00    +0.000 A 
ATOM     15  C   UNL     1       2.264   4.781  20.901  0.00  0.00    +0.000 A 
ATOM     16  N   UNL     1       1.727   5.969  21.172  0.00  0.00    +0.000 NA
ENDROOT
BRANCH   1  21
ATOM     17 CL   UNL     1      -0.403  12.365  21.631  0.00  0.00    +0.000 Cl
ATOM     18  C   UNL     1       0.239  10.816  21.250  0.00  0.00    +0.000 A 
ATOM     19  C   UNL     1       0.404   9.862  22.252  0.00  0.00    +0.000 A 
ATOM     20  C   UNL     1       0.938   8.603  21.940  0.00  0.00    +0.000 A 
ATOM     21  C   UNL     1       1.320   8.272  20.627  0.00  0.00    +0.000 A 
ATOM     22  C   UNL     1       1.129   9.263  19.638  0.00  0.00    +0.000 A 
ATOM     23  C   UNL     1       0.597  10.520  19.940  0.00  0.00    +0.000 A 
ENDBRANCH   1  21
BRANCH   7  24
ATOM     24  C   UNL     1       6.075   4.669  14.232  0.00  0.00    +0.000 A 
ATOM     25  C   UNL     1       5.678   3.705  13.297  0.00  0.00    +0.000 A 
ATOM     26  C   UNL     1       6.439   3.445  12.151  0.00  0.00    +0.000 A 
ATOM     27  C   UNL     1       7.621   4.145  11.920  0.00  0.00    +0.000 A 
ATOM     28  C   UNL     1       8.033   5.111  12.829  0.00  0.00    +0.000 A 
ATOM     29  C   UNL     1       7.266   5.365  13.966  0.00  0.00    +0.000 A 
ENDBRANCH   7  24
TORSDOF 2
ENDMDL
MODEL 7
REMARK VINA RESULT:      -6.9      5.390     12.263
REMARK  Name = 
REMARK  2 active torsions:
REMARK  status: ('A' for Active; 'I' for Inactive)
REMARK    1  A    between atoms: C_5  and  C_6
REMARK    2  A    between atoms: N_12  and  C_13
REMARK                            x       y       z     vdW  Elec       q    Type
REMARK                         _______ _______ _______ _____ _____    ______ ____
ROOT
ATOM      1  C   UNL     1       0.905  10.876  19.498  0.00  0.00    +0.000 A 
ATOM      2  N   UNL     1      -0.254  11.088  20.146  0.00  0.00    +0.000 NA
ATOM      3  C   UNL     1      -0.692  12.362  20.235  0.00  0.00    +0.000 A 
ATOM      4  N   UNL     1      -1.885  12.602  20.891  0.00  0.00    +0.000 N 
ATOM      5  C   UNL     1      -2.354  11.704  21.954  0.00  0.00    +0.000 C 
ATOM      6  C   UNL     1      -3.066  12.572  23.034  0.00  0.00    +0.000 C 
ATOM      7  N   UNL     1      -4.125  13.393  22.402  0.00  0.00    +0.000 N 
ATOM      8  C   UNL     1      -3.669  14.221  21.266  0.00  0.00    +0.000 C 
ATOM      9  C   UNL     1      -2.986  13.315  20.218  0.00  0.00    +0.000 C 
ATOM     10  C   UNL     1       0.064  13.445  19.728  0.00  0.00    +0.000 A 
ATOM     11  C   UNL     1      -0.241  14.826  19.882  0.00  0.00    +0.000 A 
ATOM     12  C   UNL     1       0.543  15.823  19.310  0.00  0.00    +0.000 A 
ATOM     13  C   UNL     1       1.680  15.458  18.613  0.00  0.00    +0.000 A 
ATOM     14  C   UNL     1       2.020  14.106  18.511  0.00  0.00    +0.000 A 
ATOM     15  C   UNL     1       1.236  13.099  19.060  0.00  0.00    +0.000 A 
ATOM     16  N   UNL     1       1.654  11.840  18.938  0.00  0.00    +0.000 NA
ENDROOT
BRANCH   1  21
ATOM     17 CL   UNL     1       2.928   5.225  18.866  0.00  0.00    +0.000 Cl
ATOM     18  C   UNL     1       2.365   6.838  19.058  0.00  0.00    +0.000 A 
ATOM     19  C   UNL     1       1.898   7.273  20.296  0.00  0.00    +0.000 A 
ATOM     20  C   UNL     1       1.429   8.586  20.447  0.00  0.00    +0.000 A 
ATOM     21  C   UNL     1       1.415   9.490  19.367  0.00  0.00    +0.000 A 
ATOM     22  C   UNL     1       1.906   9.014  18.131  0.00  0.00    +0.000 A 
ATOM     23  C   UNL     1       2.375   7.706  17.973  0.00  0.00    +0.000 A 
ENDBRANCH   1  21
BRANCH   7  24
ATOM     24  C   UNL     1      -5.303  13.714  23.042  0.00  0.00    +0.000 A 
ATOM     25  C   UNL     1      -6.199  12.752  23.524  0.00  0.00    +0.000 A 
ATOM     26  C   UNL     1      -7.416  13.119  24.110  0.00  0.00    +0.000 A 
ATOM     27  C   UNL     1      -7.765  14.463  24.220  0.00  0.00    +0.000 A 
ATOM     28  C   UNL     1      -6.891  15.437  23.756  0.00  0.00    +0.000 A 
ATOM     29  C   UNL     1      -5.679  15.060  23.177  0.00  0.00    +0.000 A 
ENDBRANCH   7  24
TORSDOF 2
ENDMDL
