MODEL 1
REMARK VINA RESULT:      -8.0      0.000      0.000
REMARK  Name = 
REMARK  3 active torsions:
REMARK  status: ('A' for Active; 'I' for Inactive)
REMARK    1  A    between atoms: C_1  and  C_2
REMARK    2  A    between atoms: C_6  and  N_7
REMARK    3  A    between atoms: C_8  and  C_10
REMARK                            x       y       z     vdW  Elec       q    Type
REMARK                         _______ _______ _______ _____ _____    ______ ____
ROOT
ATOM      1  N   UNL     1       6.210   4.896  15.820  0.00  0.00    +0.000 N 
ATOM      2  C   UNL     1       5.546   5.976  16.396  0.00  0.00    +0.000 C 
ATOM      3  O   UNL     1       5.068   6.944  15.812  0.00  0.00    +0.000 OA
ATOM      4  H   UNL     1       6.604   4.243  16.493  0.00  0.00    +0.000 HD
ENDROOT
BRANCH   2   5
ATOM      5  C   UNL     1       5.430   5.793  17.931  0.00  0.00    +0.000 C 
ATOM      6  C   UNL     1       5.608   4.347  18.420  0.00  0.00    +0.000 C 
ATOM      7  C   UNL     1       4.189   3.919  18.332  0.00  0.00    +0.000 A 
ATOM      8  C   UNL     1       3.632   2.655  18.315  0.00  0.00    +0.000 A 
ATOM      9  C   UNL     1       2.264   2.547  18.049  0.00  0.00    +0.000 A 
ATOM     10  C   UNL     1       1.482   3.695  17.823  0.00  0.00    +0.000 A 
ATOM     11  C   UNL     1       2.042   4.967  17.930  0.00  0.00    +0.000 A 
ATOM     12  C   UNL     1       3.387   5.046  18.207  0.00  0.00    +0.000 A 
ATOM     13  O   UNL     1       4.091   6.222  18.301  0.00  0.00    +0.000 OA
ENDBRANCH   2   5
BRANCH   1  19
ATOM     14  C   UNL     1       5.360   2.418  11.650  0.00  0.00    +0.000 C 
ATOM     15  C   UNL     1       6.133   3.457  12.410  0.00  0.00    +0.000 A 
ATOM     16  C   UNL     1       7.163   4.168  11.786  0.00  0.00    +0.000 A 
ATOM     17  C   UNL     1       7.876   5.133  12.492  0.00  0.00    +0.000 A 
ATOM     18  C   UNL     1       7.575   5.394  13.831  0.00  0.00    +0.000 A 
ATOM     19  C   UNL     1       6.561   4.692  14.475  0.00  0.00    +0.000 A 
ATOM     20  C   UNL     1       5.844   3.720  13.756  0.00  0.00    +0.000 A 
ENDBRANCH   1  19
TORSDOF 2
ENDMDL
MODEL 2
REMARK VINA RESULT:      -7.8      1.136      1.244
REMARK  Name = 
REMARK  3 active torsions:
REMARK  status: ('A' for Active; 'I' for Inactive)
REMARK    1  A    between atoms: C_1  and  C_2
REMARK    2  A    between atoms: C_6  and  N_7
REMARK    3  A    between atoms: C_8  and  C_10
REMARK                            x       y       z     vdW  Elec       q    Type
REMARK                         _______ _______ _______ _____ _____    ______ ____
ROOT
ATOM      1  N   UNL     1       5.820   5.250  15.669  0.00  0.00    +0.000 N 
ATOM      2  C   UNL     1       6.367   5.008  16.926  0.00  0.00    +0.000 C 
ATOM      3  O   UNL     1       7.448   4.479  17.169  0.00  0.00    +0.000 OA
ATOM      4  H   UNL     1       4.873   5.621  15.692  0.00  0.00    +0.000 HD
ENDROOT
BRANCH   2   5
ATOM      5  C   UNL     1       5.437   5.546  18.042  0.00  0.00    +0.000 C 
ATOM      6  C   UNL     1       5.452   4.727  19.343  0.00  0.00    +0.000 C 
ATOM      7  C   UNL     1       4.372   3.768  19.000  0.00  0.00    +0.000 A 
ATOM      8  C   UNL     1       4.045   2.548  19.559  0.00  0.00    +0.000 A 
ATOM      9  C   UNL     1       3.075   1.774  18.916  0.00  0.00    +0.000 A 
ATOM     10  C   UNL     1       2.443   2.237  17.747  0.00  0.00    +0.000 A 
ATOM     11  C   UNL     1       2.721   3.507  17.246  0.00  0.00    +0.000 A 
ATOM     12  C   UNL     1       3.670   4.254  17.906  0.00  0.00    +0.000 A 
ATOM     13  O   UNL     1       4.084   5.503  17.511  0.00  0.00    +0.000 OA
ENDBRANCH   2   5
BRANCH   1  19
ATOM     14  C   UNL     1       5.294   2.424  11.670  0.00  0.00    +0.000 C 
ATOM     15  C   UNL     1       6.049   3.480  12.425  0.00  0.00    +0.000 A 
ATOM     16  C   UNL     1       7.202   4.051  11.878  0.00  0.00    +0.000 A 
ATOM     17  C   UNL     1       7.897   5.033  12.580  0.00  0.00    +0.000 A 
ATOM     18  C   UNL     1       7.455   5.449  13.838  0.00  0.00    +0.000 A 
ATOM     19  C   UNL     1       6.316   4.886  14.405  0.00  0.00    +0.000 A 
ATOM     20  C   UNL     1       5.618   3.897  13.692  0.00  0.00    +0.000 A 
ENDBRANCH   1  19
TORSDOF 2
ENDMDL
MODEL 3
REMARK VINA RESULT:      -7.5      3.369      4.771
REMARK  Name = 
REMARK  3 active torsions:
REMARK  status: ('A' for Active; 'I' for Inactive)
REMARK    1  A    between atoms: C_1  and  C_2
REMARK    2  A    between atoms: C_6  and  N_7
REMARK    3  A    between atoms: C_8  and  C_10
REMARK                            x       y       z     vdW  Elec       q    Type
REMARK                         _______ _______ _______ _____ _____    ______ ____
ROOT
ATOM      1  N   UNL     1       4.286   5.292  17.634  0.00  0.00    +0.000 N 
ATOM      2  C   UNL     1       3.989   4.046  17.088  0.00  0.00    +0.000 C 
ATOM      3  O   UNL     1       4.790   3.180  16.751  0.00  0.00    +0.000 OA
ATOM      4  H   UNL     1       3.477   5.894  17.762  0.00  0.00    +0.000 HD
ENDROOT
BRANCH   2   5
ATOM      5  C   UNL     1       2.456   3.844  16.988  0.00  0.00    +0.000 C 
ATOM      6  C   UNL     1       1.621   4.836  17.815  0.00  0.00    +0.000 C 
ATOM      7  C   UNL     1       1.571   4.063  19.082  0.00  0.00    +0.000 A 
ATOM      8  C   UNL     1       1.258   4.466  20.366  0.00  0.00    +0.000 A 
ATOM      9  C   UNL     1       1.461   3.552  21.404  0.00  0.00    +0.000 A 
ATOM     10  C   UNL     1       1.954   2.260  21.141  0.00  0.00    +0.000 A 
ATOM     11  C   UNL     1       2.182   1.842  19.831  0.00  0.00    +0.000 A 
ATOM     12  C   UNL     1       1.960   2.755  18.827  0.00  0.00    +0.000 A 
ATOM     13  O   UNL     1       2.179   2.508  17.493  0.00  0.00    +0.000 OA
ENDBRANCH   2   5
BRANCH   1  19
ATOM     14  C   UNL     1       8.429   5.350  20.295  0.00  0.00    +0.000 C 
ATOM     15  C   UNL     1       7.595   5.906  19.178  0.00  0.00    +0.000 A 
ATOM     16  C   UNL     1       8.065   6.976  18.411  0.00  0.00    +0.000 A 
ATOM     17  C   UNL     1       7.289   7.487  17.373  0.00  0.00    +0.000 A 
ATOM     18  C   UNL     1       6.034   6.942  17.094  0.00  0.00    +0.000 A 
ATOM     19  C   UNL     1       5.543   5.883  17.852  0.00  0.00    +0.000 A 
ATOM     20  C   UNL     1       6.330   5.371  18.897  0.00  0.00    +0.000 A 
ENDBRANCH   1  19
TORSDOF 2
ENDMDL
MODEL 4
REMARK VINA RESULT:      -7.4      3.202      6.820
REMARK  Name = 
REMARK  3 active torsions:
REMARK  status: ('A' for Active; 'I' for Inactive)
REMARK    1  A    between atoms: C_1  and  C_2
REMARK    2  A    between atoms: C_6  and  N_7
REMARK    3  A    between atoms: C_8  and  C_10
REMARK                            x       y       z     vdW  Elec       q    Type
REMARK                         _______ _______ _______ _____ _____    ______ ____
ROOT
ATOM      1  N   UNL     1       3.068   6.259  19.116  0.00  0.00    +0.000 N 
ATOM      2  C   UNL     1       2.783   5.069  18.450  0.00  0.00    +0.000 C 
ATOM      3  O   UNL     1       1.844   4.858  17.688  0.00  0.00    +0.000 OA
ATOM      4  H   UNL     1       3.846   6.195  19.768  0.00  0.00    +0.000 HD
ENDROOT
BRANCH   2   5
ATOM      5  C   UNL     1       3.860   3.998  18.757  0.00  0.00    +0.000 C 
ATOM      6  C   UNL     1       5.229   4.563  19.171  0.00  0.00    +0.000 C 
ATOM      7  C   UNL     1       5.827   4.678  17.816  0.00  0.00    +0.000 A 
ATOM      8  C   UNL     1       6.920   5.399  17.377  0.00  0.00    +0.000 A 
ATOM      9  C   UNL     1       7.154   5.455  16.000  0.00  0.00    +0.000 A 
ATOM     10  C   UNL     1       6.309   4.783  15.097  0.00  0.00    +0.000 A 
ATOM     11  C   UNL     1       5.263   3.989  15.563  0.00  0.00    +0.000 A 
ATOM     12  C   UNL     1       5.062   3.939  16.924  0.00  0.00    +0.000 A 
ATOM     13  O   UNL     1       4.050   3.237  17.533  0.00  0.00    +0.000 OA
ENDBRANCH   2   5
BRANCH   1  19
ATOM     14  C   UNL     1       0.320   9.366  21.770  0.00  0.00    +0.000 C 
ATOM     15  C   UNL     1       0.964   8.989  20.467  0.00  0.00    +0.000 A 
ATOM     16  C   UNL     1       0.808   9.802  19.341  0.00  0.00    +0.000 A 
ATOM     17  C   UNL     1       1.410   9.451  18.135  0.00  0.00    +0.000 A 
ATOM     18  C   UNL     1       2.167   8.282  18.038  0.00  0.00    +0.000 A 
ATOM     19  C   UNL     1       2.328   7.453  19.144  0.00  0.00    +0.000 A 
ATOM     20  C   UNL     1       1.719   7.813  20.358  0.00  0.00    +0.000 A 
ENDBRANCH   1  19
TORSDOF 2
ENDMDL
MODEL 5
REMARK VINA RESULT:      -7.2      1.289      1.367
REMARK  Name = 
REMARK  3 active torsions:
REMARK  status: ('A' for Active; 'I' for Inactive)
REMARK    1  A    between atoms: C_1  and  C_2
REMARK    2  A    between atoms: C_6  and  N_7
REMARK    3  A    between atoms: C_8  and  C_10
REMARK                            x       y       z     vdW  Elec       q    Type
REMARK                         _______ _______ _______ _____ _____    ______ ____
ROOT
ATOM      1  N   UNL     1       5.639   5.298  15.717  0.00  0.00    +0.000 N 
ATOM      2  C   UNL     1       5.117   4.504  16.736  0.00  0.00    +0.000 C 
ATOM      3  O   UNL     1       5.092   3.278  16.774  0.00  0.00    +0.000 OA
ATOM      4  H   UNL     1       5.482   6.294  15.845  0.00  0.00    +0.000 HD
ENDROOT
BRANCH   2   5
ATOM      5  C   UNL     1       4.586   5.382  17.897  0.00  0.00    +0.000 C 
ATOM      6  C   UNL     1       4.724   4.754  19.293  0.00  0.00    +0.000 C 
ATOM      7  C   UNL     1       3.423   4.038  19.331  0.00  0.00    +0.000 A 
ATOM      8  C   UNL     1       2.989   3.009  20.144  0.00  0.00    +0.000 A 
ATOM      9  C   UNL     1       1.764   2.408  19.838  0.00  0.00    +0.000 A 
ATOM     10  C   UNL     1       0.995   2.854  18.747  0.00  0.00    +0.000 A 
ATOM     11  C   UNL     1       1.407   3.951  17.991  0.00  0.00    +0.000 A 
ATOM     12  C   UNL     1       2.609   4.533  18.321  0.00  0.00    +0.000 A 
ATOM     13  O   UNL     1       3.169   5.590  17.646  0.00  0.00    +0.000 OA
ENDBRANCH   2   5
BRANCH   1  19
ATOM     14  C   UNL     1       5.099   2.583  11.645  0.00  0.00    +0.000 C 
ATOM     15  C   UNL     1       5.901   3.554  12.462  0.00  0.00    +0.000 A 
ATOM     16  C   UNL     1       7.132   4.022  11.995  0.00  0.00    +0.000 A 
ATOM     17  C   UNL     1       7.871   4.926  12.754  0.00  0.00    +0.000 A 
ATOM     18  C   UNL     1       7.394   5.366  13.991  0.00  0.00    +0.000 A 
ATOM     19  C   UNL     1       6.175   4.905  14.479  0.00  0.00    +0.000 A 
ATOM     20  C   UNL     1       5.433   3.995  13.708  0.00  0.00    +0.000 A 
ENDBRANCH   1  19
TORSDOF 2
ENDMDL
MODEL 6
REMARK VINA RESULT:      -7.1      3.448      4.819
REMARK  Name = 
REMARK  3 active torsions:
REMARK  status: ('A' for Active; 'I' for Inactive)
REMARK    1  A    between atoms: C_1  and  C_2
REMARK    2  A    between atoms: C_6  and  N_7
REMARK    3  A    between atoms: C_8  and  C_10
REMARK                            x       y       z     vdW  Elec       q    Type
REMARK                         _______ _______ _______ _____ _____    ______ ____
ROOT
ATOM      1  N   UNL     1       4.451   5.181  17.904  0.00  0.00    +0.000 N 
ATOM      2  C   UNL     1       4.122   4.079  17.119  0.00  0.00    +0.000 C 
ATOM      3  O   UNL     1       4.899   3.258  16.641  0.00  0.00    +0.000 OA
ATOM      4  H   UNL     1       3.663   5.783  18.127  0.00  0.00    +0.000 HD
ENDROOT
BRANCH   2   5
ATOM      5  C   UNL     1       2.587   3.970  16.944  0.00  0.00    +0.000 C 
ATOM      6  C   UNL     1       1.771   4.967  17.782  0.00  0.00    +0.000 C 
ATOM      7  C   UNL     1       1.621   4.138  19.006  0.00  0.00    +0.000 A 
ATOM      8  C   UNL     1       1.272   4.496  20.294  0.00  0.00    +0.000 A 
ATOM      9  C   UNL     1       1.377   3.523  21.292  0.00  0.00    +0.000 A 
ATOM     10  C   UNL     1       1.809   2.220  20.985  0.00  0.00    +0.000 A 
ATOM     11  C   UNL     1       2.073   1.852  19.667  0.00  0.00    +0.000 A 
ATOM     12  C   UNL     1       1.948   2.824  18.701  0.00  0.00    +0.000 A 
ATOM     13  O   UNL     1       2.214   2.630  17.368  0.00  0.00    +0.000 OA
ENDBRANCH   2   5
BRANCH   1  19
ATOM     14  C   UNL     1       7.881   8.666  17.321  0.00  0.00    +0.000 C 
ATOM     15  C   UNL     1       7.420   7.393  17.969  0.00  0.00    +0.000 A 
ATOM     16  C   UNL     1       8.244   6.724  18.878  0.00  0.00    +0.000 A 
ATOM     17  C   UNL     1       7.811   5.544  19.479  0.00  0.00    +0.000 A 
ATOM     18  C   UNL     1       6.555   5.016  19.174  0.00  0.00    +0.000 A 
ATOM     19  C   UNL     1       5.722   5.660  18.264  0.00  0.00    +0.000 A 
ATOM     20  C   UNL     1       6.164   6.850  17.662  0.00  0.00    +0.000 A 
ENDBRANCH   1  19
TORSDOF 2
ENDMDL
MODEL 7
REMARK VINA RESULT:      -7.1      4.466      6.427
REMARK  Name = 
REMARK  3 active torsions:
REMARK  status: ('A' for Active; 'I' for Inactive)
REMARK    1  A    between atoms: C_1  and  C_2
REMARK    2  A    between atoms: C_6  and  N_7
REMARK    3  A    between atoms: C_8  and  C_10
REMARK                            x       y       z     vdW  Elec       q    Type
REMARK                         _______ _______ _______ _____ _____    ______ ____
ROOT
ATOM      1  N   UNL     1       8.570   7.998  18.867  0.00  0.00    +0.000 N 
ATOM      2  C   UNL     1       7.790   7.152  18.083  0.00  0.00    +0.000 C 
ATOM      3  O   UNL     1       7.159   7.456  17.075  0.00  0.00    +0.000 OA
ATOM      4  H   UNL     1       8.939   7.562  19.709  0.00  0.00    +0.000 HD
ENDROOT
BRANCH   2   5
ATOM      5  C   UNL     1       7.844   5.701  18.622  0.00  0.00    +0.000 C 
ATOM      6  C   UNL     1       7.518   4.616  17.583  0.00  0.00    +0.000 C 
ATOM      7  C   UNL     1       6.048   4.564  17.788  0.00  0.00    +0.000 A 
ATOM      8  C   UNL     1       5.049   4.044  16.989  0.00  0.00    +0.000 A 
ATOM      9  C   UNL     1       3.723   4.290  17.357  0.00  0.00    +0.000 A 
ATOM     10  C   UNL     1       3.423   5.032  18.515  0.00  0.00    +0.000 A 
ATOM     11  C   UNL     1       4.442   5.474  19.357  0.00  0.00    +0.000 A 
ATOM     12  C   UNL     1       5.737   5.206  18.979  0.00  0.00    +0.000 A 
ATOM     13  O   UNL     1       6.848   5.613  19.678  0.00  0.00    +0.000 OA
ENDBRANCH   2   5
BRANCH   1  19
ATOM     14  C   UNL     1      10.542  12.086  20.779  0.00  0.00    +0.000 C 
ATOM     15  C   UNL     1       9.737  11.410  19.707  0.00  0.00    +0.000 A 
ATOM     16  C   UNL     1       9.197  12.155  18.655  0.00  0.00    +0.000 A 
ATOM     17  C   UNL     1       8.454  11.524  17.660  0.00  0.00    +0.000 A 
ATOM     18  C   UNL     1       8.236  10.146  17.708  0.00  0.00    +0.000 A 
ATOM     19  C   UNL     1       8.757   9.386  18.751  0.00  0.00    +0.000 A 
ATOM     20  C   UNL     1       9.507  10.028  19.751  0.00  0.00    +0.000 A 
ENDBRANCH   1  19
TORSDOF 2
ENDMDL
MODEL 8
REMARK VINA RESULT:      -7.1      1.827      2.647
REMARK  Name = 
REMARK  3 active torsions:
REMARK  status: ('A' for Active; 'I' for Inactive)
REMARK    1  A    between atoms: C_1  and  C_2
REMARK    2  A    between atoms: C_6  and  N_7
REMARK    3  A    between atoms: C_8  and  C_10
REMARK                            x       y       z     vdW  Elec       q    Type
REMARK                         _______ _______ _______ _____ _____    ______ ____
ROOT
ATOM      1  N   UNL     1       4.217   5.748  16.797  0.00  0.00    +0.000 N 
ATOM      2  C   UNL     1       4.143   5.792  18.187  0.00  0.00    +0.000 C 
ATOM      3  O   UNL     1       5.049   5.554  18.980  0.00  0.00    +0.000 OA
ATOM      4  H   UNL     1       3.327   5.896  16.328  0.00  0.00    +0.000 HD
ENDROOT
BRANCH   2   5
ATOM      5  C   UNL     1       2.733   6.241  18.646  0.00  0.00    +0.000 C 
ATOM      6  C   UNL     1       2.489   6.143  20.161  0.00  0.00    +0.000 C 
ATOM      7  C   UNL     1       1.983   4.747  20.202  0.00  0.00    +0.000 A 
ATOM      8  C   UNL     1       1.856   3.870  21.261  0.00  0.00    +0.000 A 
ATOM      9  C   UNL     1       1.506   2.547  20.975  0.00  0.00    +0.000 A 
ATOM     10  C   UNL     1       1.274   2.133  19.650  0.00  0.00    +0.000 A 
ATOM     11  C   UNL     1       1.320   3.052  18.603  0.00  0.00    +0.000 A 
ATOM     12  C   UNL     1       1.653   4.350  18.913  0.00  0.00    +0.000 A 
ATOM     13  O   UNL     1       1.782   5.359  17.989  0.00  0.00    +0.000 OA
ENDBRANCH   2   5
BRANCH   1  19
ATOM     14  C   UNL     1       5.676   3.455  12.690  0.00  0.00    +0.000 C 
ATOM     15  C   UNL     1       6.008   4.211  13.944  0.00  0.00    +0.000 A 
ATOM     16  C   UNL     1       7.339   4.486  14.271  0.00  0.00    +0.000 A 
ATOM     17  C   UNL     1       7.643   5.192  15.433  0.00  0.00    +0.000 A 
ATOM     18  C   UNL     1       6.623   5.623  16.284  0.00  0.00    +0.000 A 
ATOM     19  C   UNL     1       5.292   5.352  15.982  0.00  0.00    +0.000 A 
ATOM     20  C   UNL     1       4.992   4.641  14.808  0.00  0.00    +0.000 A 
ENDBRANCH   1  19
TORSDOF 2
ENDMDL
MODEL 9
REMARK VINA RESULT:      -7.1      3.784      6.458
REMARK  Name = 
REMARK  3 active torsions:
REMARK  status: ('A' for Active; 'I' for Inactive)
REMARK    1  A    between atoms: C_1  and  C_2
REMARK    2  A    between atoms: C_6  and  N_7
REMARK    3  A    between atoms: C_8  and  C_10
REMARK                            x       y       z     vdW  Elec       q    Type
REMARK                         _______ _______ _______ _____ _____    ______ ____
ROOT
ATOM      1  N   UNL     1       2.493   6.197  18.221  0.00  0.00    +0.000 N 
ATOM      2  C   UNL     1       3.762   5.729  17.886  0.00  0.00    +0.000 C 
ATOM      3  O   UNL     1       4.814   6.359  17.929  0.00  0.00    +0.000 OA
ATOM      4  H   UNL     1       1.743   5.537  18.032  0.00  0.00    +0.000 HD
ENDROOT
BRANCH   2   5
ATOM      5  C   UNL     1       3.704   4.236  17.475  0.00  0.00    +0.000 C 
ATOM      6  C   UNL     1       2.285   3.653  17.369  0.00  0.00    +0.000 C 
ATOM      7  C   UNL     1       2.139   3.200  18.776  0.00  0.00    +0.000 A 
ATOM      8  C   UNL     1       1.009   2.864  19.497  0.00  0.00    +0.000 A 
ATOM      9  C   UNL     1       1.155   2.636  20.869  0.00  0.00    +0.000 A 
ATOM     10  C   UNL     1       2.416   2.730  21.485  0.00  0.00    +0.000 A 
ATOM     11  C   UNL     1       3.558   2.984  20.728  0.00  0.00    +0.000 A 
ATOM     12  C   UNL     1       3.390   3.191  19.378  0.00  0.00    +0.000 A 
ATOM     13  O   UNL     1       4.409   3.493  18.507  0.00  0.00    +0.000 OA
ENDBRANCH   2   5
BRANCH   1  19
ATOM     14  C   UNL     1       0.999   9.176  21.847  0.00  0.00    +0.000 C 
ATOM     15  C   UNL     1       1.361   8.964  20.405  0.00  0.00    +0.000 A 
ATOM     16  C   UNL     1       1.290  10.024  19.496  0.00  0.00    +0.000 A 
ATOM     17  C   UNL     1       1.630   9.824  18.160  0.00  0.00    +0.000 A 
ATOM     18  C   UNL     1       2.035   8.564  17.715  0.00  0.00    +0.000 A 
ATOM     19  C   UNL     1       2.103   7.493  18.601  0.00  0.00    +0.000 A 
ATOM     20  C   UNL     1       1.761   7.701  19.947  0.00  0.00    +0.000 A 
ENDBRANCH   1  19
TORSDOF 2
ENDMDL
