MODEL 1
REMARK VINA RESULT:      -8.6      0.000      0.000
REMARK  Name = 
REMARK  7 active torsions:
REMARK  status: ('A' for Active; 'I' for Inactive)
REMARK    1  A    between atoms: C_1  and  C_2
REMARK    2  A    between atoms: C_5  and  C_6
REMARK    3  A    between atoms: C_7  and  C_8
REMARK    4  A    between atoms: C_12  and  N_13
REMARK    5  A    between atoms: N_13  and  C_14
REMARK    6  A    between atoms: C_17  and  C_18
REMARK    7  A    between atoms: C_22  and  C_23
REMARK                            x       y       z     vdW  Elec       q    Type
REMARK                         _______ _______ _______ _____ _____    ______ ____
ROOT
ATOM      1  C   UNL     1       2.723   6.875  18.249  0.00  0.00    +0.000 A 
ATOM      2  C   UNL     1       2.257   7.906  17.446  0.00  0.00    +0.000 A 
ATOM      3  C   UNL     1       1.597   8.996  18.012  0.00  0.00    +0.000 A 
ATOM      4  C   UNL     1       1.253   9.049  19.384  0.00  0.00    +0.000 A 
ATOM      5  C   UNL     1       0.451  10.069  20.015  0.00  0.00    +0.000 A 
ATOM      6  C   UNL     1       0.342  10.058  21.422  0.00  0.00    +0.000 A 
ATOM      7  C   UNL     1       0.925   8.997  22.104  0.00  0.00    +0.000 A 
ATOM      8  N   UNL     1       1.599   7.982  21.519  0.00  0.00    +0.000 NA
ATOM      9  C   UNL     1       1.764   8.014  20.195  0.00  0.00    +0.000 A 
ATOM     10  C   UNL     1       2.491   6.972  19.624  0.00  0.00    +0.000 A 
ENDROOT
BRANCH   1  17
ATOM     11  C   UNL     1       5.799   6.792  16.984  0.00  0.00    +0.000 C 
ATOM     12  C   UNL     1       4.779   5.720  17.094  0.00  0.00    +0.000 A 
ATOM     13  N   UNL     1       5.074   4.497  16.643  0.00  0.00    +0.000 NA
ATOM     14  O   UNL     1       3.970   3.720  16.910  0.00  0.00    +0.000 OA
ATOM     15  C   UNL     1       3.010   4.469  17.516  0.00  0.00    +0.000 A 
ATOM     16  C   UNL     1       1.768   3.739  17.844  0.00  0.00    +0.000 C 
ATOM     17  C   UNL     1       3.466   5.768  17.659  0.00  0.00    +0.000 A 
ENDBRANCH   1  17
BRANCH   6  18
ATOM     18  C   UNL     1      -0.318  11.081  22.279  0.00  0.00    +0.000 C 
ATOM     19  N   UNL     1      -1.235  10.677  23.207  0.00  0.00    +0.000 N 
ATOM     20  O   UNL     1      -0.057  12.273  22.168  0.00  0.00    +0.000 OA
ATOM     21  H   UNL     1      -1.218   9.726  23.553  0.00  0.00    +0.000 HD
ATOM     22  H   UNL     1      -1.568  11.400  23.835  0.00  0.00    +0.000 HD
ENDBRANCH   6  18
BRANCH   5  23
ATOM     23  N   UNL     1      -0.167  11.130  19.266  0.00  0.00    +0.000 N 
ATOM     24  H   UNL     1       0.468  11.410  18.517  0.00  0.00    +0.000 HD
BRANCH  23  25
ATOM     25  C   UNL     1      -1.525  11.264  18.890  0.00  0.00    +0.000 A 
ATOM     26  C   UNL     1      -2.360  12.249  19.443  0.00  0.00    +0.000 A 
ATOM     27  C   UNL     1      -3.743  12.220  19.225  0.00  0.00    +0.000 A 
ATOM     28  C   UNL     1      -4.299  11.256  18.382  0.00  0.00    +0.000 A 
ATOM     29  C   UNL     1      -3.459  10.349  17.730  0.00  0.00    +0.000 A 
ATOM     30  C   UNL     1      -2.081  10.361  17.975  0.00  0.00    +0.000 A 
BRANCH  28  31
ATOM     31  C   UNL     1      -5.719  11.178  18.206  0.00  0.00    +0.000 C 
ATOM     32  N   UNL     1      -6.873  11.138  18.060  0.00  0.00    +0.000 NA
ENDBRANCH  28  31
ENDBRANCH  23  25
ENDBRANCH   5  23
TORSDOF 5
ENDMDL
MODEL 2
REMARK VINA RESULT:      -8.6      0.374      1.513
REMARK  Name = 
REMARK  7 active torsions:
REMARK  status: ('A' for Active; 'I' for Inactive)
REMARK    1  A    between atoms: C_1  and  C_2
REMARK    2  A    between atoms: C_5  and  C_6
REMARK    3  A    between atoms: C_7  and  C_8
REMARK    4  A    between atoms: C_12  and  N_13
REMARK    5  A    between atoms: N_13  and  C_14
REMARK    6  A    between atoms: C_17  and  C_18
REMARK    7  A    between atoms: C_22  and  C_23
REMARK                            x       y       z     vdW  Elec       q    Type
REMARK                         _______ _______ _______ _____ _____    ______ ____
ROOT
ATOM      1  C   UNL     1       2.731   6.806  18.283  0.00  0.00    +0.000 A 
ATOM      2  C   UNL     1       2.280   7.823  17.454  0.00  0.00    +0.000 A 
ATOM      3  C   UNL     1       1.627   8.932  17.990  0.00  0.00    +0.000 A 
ATOM      4  C   UNL     1       1.274   9.020  19.358  0.00  0.00    +0.000 A 
ATOM      5  C   UNL     1       0.479  10.062  19.960  0.00  0.00    +0.000 A 
ATOM      6  C   UNL     1       0.360  10.086  21.365  0.00  0.00    +0.000 A 
ATOM      7  C   UNL     1       0.928   9.035  22.076  0.00  0.00    +0.000 A 
ATOM      8  N   UNL     1       1.596   8.001  21.520  0.00  0.00    +0.000 NA
ATOM      9  C   UNL     1       1.770   7.999  20.196  0.00  0.00    +0.000 A 
ATOM     10  C   UNL     1       2.490   6.938  19.655  0.00  0.00    +0.000 A 
ENDROOT
BRANCH   1  17
ATOM     11  C   UNL     1       1.801   3.640  17.863  0.00  0.00    +0.000 C 
ATOM     12  C   UNL     1       3.089   4.310  17.556  0.00  0.00    +0.000 A 
ATOM     13  N   UNL     1       4.078   3.593  17.012  0.00  0.00    +0.000 NA
ATOM     14  O   UNL     1       5.114   4.474  16.807  0.00  0.00    +0.000 OA
ATOM     15  C   UNL     1       4.757   5.717  17.227  0.00  0.00    +0.000 A 
ATOM     16  C   UNL     1       5.800   6.751  17.064  0.00  0.00    +0.000 C 
ATOM     17  C   UNL     1       3.466   5.679  17.725  0.00  0.00    +0.000 A 
ENDBRANCH   1  17
BRANCH   6  18
ATOM     18  C   UNL     1      -0.296  11.135  22.194  0.00  0.00    +0.000 C 
ATOM     19  N   UNL     1      -1.230  10.762  23.119  0.00  0.00    +0.000 N 
ATOM     20  O   UNL     1      -0.017  12.320  22.063  0.00  0.00    +0.000 OA
ATOM     21  H   UNL     1      -1.230   9.818  23.483  0.00  0.00    +0.000 HD
ATOM     22  H   UNL     1      -1.559  11.502  23.728  0.00  0.00    +0.000 HD
ENDBRANCH   6  18
BRANCH   5  23
ATOM     23  N   UNL     1      -0.125  11.111  19.182  0.00  0.00    +0.000 N 
ATOM     24  H   UNL     1       0.505  11.348  18.413  0.00  0.00    +0.000 HD
BRANCH  23  25
ATOM     25  C   UNL     1      -1.485  11.268  18.823  0.00  0.00    +0.000 A 
ATOM     26  C   UNL     1      -2.292  12.275  19.375  0.00  0.00    +0.000 A 
ATOM     27  C   UNL     1      -3.679  12.271  19.176  0.00  0.00    +0.000 A 
ATOM     28  C   UNL     1      -4.265  11.308  18.352  0.00  0.00    +0.000 A 
ATOM     29  C   UNL     1      -3.452  10.377  17.699  0.00  0.00    +0.000 A 
ATOM     30  C   UNL     1      -2.070  10.365  17.926  0.00  0.00    +0.000 A 
BRANCH  28  31
ATOM     31  C   UNL     1      -5.688  11.257  18.197  0.00  0.00    +0.000 C 
ATOM     32  N   UNL     1      -6.847  11.235  18.081  0.00  0.00    +0.000 NA
ENDBRANCH  28  31
ENDBRANCH  23  25
ENDBRANCH   5  23
TORSDOF 5
ENDMDL
MODEL 3
REMARK VINA RESULT:      -8.4      0.636      1.818
REMARK  Name = 
REMARK  7 active torsions:
REMARK  status: ('A' for Active; 'I' for Inactive)
REMARK    1  A    between atoms: C_1  and  C_2
REMARK    2  A    between atoms: C_5  and  C_6
REMARK    3  A    between atoms: C_7  and  C_8
REMARK    4  A    between atoms: C_12  and  N_13
REMARK    5  A    between atoms: N_13  and  C_14
REMARK    6  A    between atoms: C_17  and  C_18
REMARK    7  A    between atoms: C_22  and  C_23
REMARK                            x       y       z     vdW  Elec       q    Type
REMARK                         _______ _______ _______ _____ _____    ______ ____
ROOT
ATOM      1  C   UNL     1       2.555   7.031  18.398  0.00  0.00    +0.000 A 
ATOM      2  C   UNL     1       2.060   8.028  17.569  0.00  0.00    +0.000 A 
ATOM      3  C   UNL     1       1.398   9.129  18.110  0.00  0.00    +0.000 A 
ATOM      4  C   UNL     1       1.080   9.227  19.485  0.00  0.00    +0.000 A 
ATOM      5  C   UNL     1       0.279  10.259  20.096  0.00  0.00    +0.000 A 
ATOM      6  C   UNL     1       0.199  10.298  21.504  0.00  0.00    +0.000 A 
ATOM      7  C   UNL     1       0.807   9.268  22.212  0.00  0.00    +0.000 A 
ATOM      8  N   UNL     1       1.483   8.241  21.649  0.00  0.00    +0.000 NA
ATOM      9  C   UNL     1       1.621   8.227  20.321  0.00  0.00    +0.000 A 
ATOM     10  C   UNL     1       2.349   7.175  19.774  0.00  0.00    +0.000 A 
ENDROOT
BRANCH   1  17
ATOM     11  C   UNL     1       1.639   3.867  17.931  0.00  0.00    +0.000 C 
ATOM     12  C   UNL     1       2.927   4.544  17.644  0.00  0.00    +0.000 A 
ATOM     13  N   UNL     1       3.924   3.837  17.101  0.00  0.00    +0.000 NA
ATOM     14  O   UNL     1       4.959   4.724  16.916  0.00  0.00    +0.000 OA
ATOM     15  C   UNL     1       4.594   5.961  17.348  0.00  0.00    +0.000 A 
ATOM     16  C   UNL     1       5.635   7.000  17.207  0.00  0.00    +0.000 C 
ATOM     17  C   UNL     1       3.299   5.912  17.833  0.00  0.00    +0.000 A 
ENDBRANCH   1  17
BRANCH   6  18
ATOM     18  C   UNL     1      -0.457  11.343  22.338  0.00  0.00    +0.000 C 
ATOM     19  N   UNL     1      -1.427  10.972  23.226  0.00  0.00    +0.000 N 
ATOM     20  O   UNL     1      -0.147  12.524  22.243  0.00  0.00    +0.000 OA
ATOM     21  H   UNL     1      -1.459  10.019  23.568  0.00  0.00    +0.000 HD
ATOM     22  H   UNL     1      -1.757  11.705  23.842  0.00  0.00    +0.000 HD
ENDBRANCH   6  18
BRANCH   5  23
ATOM     23  N   UNL     1      -0.367  11.286  19.323  0.00  0.00    +0.000 N 
ATOM     24  H   UNL     1       0.273  11.587  18.586  0.00  0.00    +0.000 HD
BRANCH  23  25
ATOM     25  C   UNL     1      -1.720  11.358  18.914  0.00  0.00    +0.000 A 
ATOM     26  C   UNL     1      -2.170  10.788  17.713  0.00  0.00    +0.000 A 
ATOM     27  C   UNL     1      -3.454  11.063  17.225  0.00  0.00    +0.000 A 
ATOM     28  C   UNL     1      -4.335  11.843  17.977  0.00  0.00    +0.000 A 
ATOM     29  C   UNL     1      -3.937  12.311  19.232  0.00  0.00    +0.000 A 
ATOM     30  C   UNL     1      -2.642  12.061  19.701  0.00  0.00    +0.000 A 
BRANCH  28  31
ATOM     31  C   UNL     1      -5.626  12.184  17.455  0.00  0.00    +0.000 C 
ATOM     32  N   UNL     1      -6.683  12.452  17.050  0.00  0.00    +0.000 NA
ENDBRANCH  28  31
ENDBRANCH  23  25
ENDBRANCH   5  23
TORSDOF 5
ENDMDL
MODEL 4
REMARK VINA RESULT:      -8.4      2.612      3.902
REMARK  Name = 
REMARK  7 active torsions:
REMARK  status: ('A' for Active; 'I' for Inactive)
REMARK    1  A    between atoms: C_1  and  C_2
REMARK    2  A    between atoms: C_5  and  C_6
REMARK    3  A    between atoms: C_7  and  C_8
REMARK    4  A    between atoms: C_12  and  N_13
REMARK    5  A    between atoms: N_13  and  C_14
REMARK    6  A    between atoms: C_17  and  C_18
REMARK    7  A    between atoms: C_22  and  C_23
REMARK                            x       y       z     vdW  Elec       q    Type
REMARK                         _______ _______ _______ _____ _____    ______ ____
ROOT
ATOM      1  C   UNL     1       2.586   7.042  18.400  0.00  0.00    +0.000 A 
ATOM      2  C   UNL     1       2.282   8.117  17.576  0.00  0.00    +0.000 A 
ATOM      3  C   UNL     1       1.674   9.256  18.100  0.00  0.00    +0.000 A 
ATOM      4  C   UNL     1       1.218   9.329  19.438  0.00  0.00    +0.000 A 
ATOM      5  C   UNL     1       0.457  10.410  20.014  0.00  0.00    +0.000 A 
ATOM      6  C   UNL     1       0.227  10.399  21.406  0.00  0.00    +0.000 A 
ATOM      7  C   UNL     1       0.653   9.286  22.119  0.00  0.00    +0.000 A 
ATOM      8  N   UNL     1       1.285   8.220  21.579  0.00  0.00    +0.000 NA
ATOM      9  C   UNL     1       1.565   8.246  20.274  0.00  0.00    +0.000 A 
ATOM     10  C   UNL     1       2.245   7.149  19.752  0.00  0.00    +0.000 A 
ENDROOT
BRANCH   1  17
ATOM     11  C   UNL     1       5.685   6.746  17.226  0.00  0.00    +0.000 C 
ATOM     12  C   UNL     1       4.600   5.739  17.333  0.00  0.00    +0.000 A 
ATOM     13  N   UNL     1       4.834   4.489  16.921  0.00  0.00    +0.000 NA
ATOM     14  O   UNL     1       3.680   3.786  17.176  0.00  0.00    +0.000 OA
ATOM     15  C   UNL     1       2.749   4.605  17.735  0.00  0.00    +0.000 A 
ATOM     16  C   UNL     1       1.458   3.958  18.045  0.00  0.00    +0.000 C 
ATOM     17  C   UNL     1       3.277   5.878  17.859  0.00  0.00    +0.000 A 
ENDBRANCH   1  17
BRANCH   6  18
ATOM     18  C   UNL     1      -0.414  11.470  22.219  0.00  0.00    +0.000 C 
ATOM     19  N   UNL     1      -1.462  11.148  23.033  0.00  0.00    +0.000 N 
ATOM     20  O   UNL     1      -0.022  12.629  22.171  0.00  0.00    +0.000 OA
ATOM     21  H   UNL     1      -1.580  10.193  23.350  0.00  0.00    +0.000 HD
ATOM     22  H   UNL     1      -1.784  11.889  23.643  0.00  0.00    +0.000 HD
ENDBRANCH   6  18
BRANCH   5  23
ATOM     23  N   UNL     1       0.001  11.528  19.231  0.00  0.00    +0.000 N 
ATOM     24  H   UNL     1      -0.971  11.722  19.480  0.00  0.00    +0.000 HD
BRANCH  23  25
ATOM     25  C   UNL     1       0.706  12.704  18.885  0.00  0.00    +0.000 A 
ATOM     26  C   UNL     1       2.048  12.678  18.473  0.00  0.00    +0.000 A 
ATOM     27  C   UNL     1       2.785  13.863  18.353  0.00  0.00    +0.000 A 
ATOM     28  C   UNL     1       2.165  15.097  18.560  0.00  0.00    +0.000 A 
ATOM     29  C   UNL     1       0.798  15.137  18.849  0.00  0.00    +0.000 A 
ATOM     30  C   UNL     1       0.073  13.949  19.000  0.00  0.00    +0.000 A 
BRANCH  28  31
ATOM     31  C   UNL     1       2.927  16.309  18.504  0.00  0.00    +0.000 C 
ATOM     32  N   UNL     1       3.535  17.301  18.477  0.00  0.00    +0.000 NA
ENDBRANCH  28  31
ENDBRANCH  23  25
ENDBRANCH   5  23
TORSDOF 5
ENDMDL
MODEL 5
REMARK VINA RESULT:      -8.4      2.639      4.186
REMARK  Name = 
REMARK  7 active torsions:
REMARK  status: ('A' for Active; 'I' for Inactive)
REMARK    1  A    between atoms: C_1  and  C_2
REMARK    2  A    between atoms: C_5  and  C_6
REMARK    3  A    between atoms: C_7  and  C_8
REMARK    4  A    between atoms: C_12  and  N_13
REMARK    5  A    between atoms: N_13  and  C_14
REMARK    6  A    between atoms: C_17  and  C_18
REMARK    7  A    between atoms: C_22  and  C_23
REMARK                            x       y       z     vdW  Elec       q    Type
REMARK                         _______ _______ _______ _____ _____    ______ ____
ROOT
ATOM      1  C   UNL     1       2.564   7.023  18.410  0.00  0.00    +0.000 A 
ATOM      2  C   UNL     1       2.265   8.094  17.580  0.00  0.00    +0.000 A 
ATOM      3  C   UNL     1       1.663   9.240  18.098  0.00  0.00    +0.000 A 
ATOM      4  C   UNL     1       1.210   9.324  19.436  0.00  0.00    +0.000 A 
ATOM      5  C   UNL     1       0.456  10.413  20.006  0.00  0.00    +0.000 A 
ATOM      6  C   UNL     1       0.227  10.412  21.398  0.00  0.00    +0.000 A 
ATOM      7  C   UNL     1       0.649   9.301  22.118  0.00  0.00    +0.000 A 
ATOM      8  N   UNL     1       1.274   8.228  21.583  0.00  0.00    +0.000 NA
ATOM      9  C   UNL     1       1.553   8.245  20.278  0.00  0.00    +0.000 A 
ATOM     10  C   UNL     1       2.226   7.141  19.762  0.00  0.00    +0.000 A 
ENDROOT
BRANCH   1  17
ATOM     11  C   UNL     1       1.486   3.898  18.034  0.00  0.00    +0.000 C 
ATOM     12  C   UNL     1       2.807   4.500  17.726  0.00  0.00    +0.000 A 
ATOM     13  N   UNL     1       3.764   3.728  17.202  0.00  0.00    +0.000 NA
ATOM     14  O   UNL     1       4.843   4.555  16.991  0.00  0.00    +0.000 OA
ATOM     15  C   UNL     1       4.543   5.821  17.388  0.00  0.00    +0.000 A 
ATOM     16  C   UNL     1       5.635   6.800  17.216  0.00  0.00    +0.000 C 
ATOM     17  C   UNL     1       3.248   5.852  17.876  0.00  0.00    +0.000 A 
ENDBRANCH   1  17
BRANCH   6  18
ATOM     18  C   UNL     1      -0.406  11.491  22.205  0.00  0.00    +0.000 C 
ATOM     19  N   UNL     1      -1.461  11.182  23.015  0.00  0.00    +0.000 N 
ATOM     20  O   UNL     1      -0.002  12.646  22.156  0.00  0.00    +0.000 OA
ATOM     21  H   UNL     1      -1.589  10.229  23.335  0.00  0.00    +0.000 HD
ATOM     22  H   UNL     1      -1.779  11.928  23.622  0.00  0.00    +0.000 HD
ENDBRANCH   6  18
BRANCH   5  23
ATOM     23  N   UNL     1       0.004  11.528  19.217  0.00  0.00    +0.000 N 
ATOM     24  H   UNL     1      -0.969  11.723  19.459  0.00  0.00    +0.000 HD
BRANCH  23  25
ATOM     25  C   UNL     1       0.712  12.703  18.870  0.00  0.00    +0.000 A 
ATOM     26  C   UNL     1       2.061  12.677  18.482  0.00  0.00    +0.000 A 
ATOM     27  C   UNL     1       2.796  13.863  18.363  0.00  0.00    +0.000 A 
ATOM     28  C   UNL     1       2.168  15.097  18.547  0.00  0.00    +0.000 A 
ATOM     29  C   UNL     1       0.796  15.135  18.813  0.00  0.00    +0.000 A 
ATOM     30  C   UNL     1       0.073  13.947  18.962  0.00  0.00    +0.000 A 
BRANCH  28  31
ATOM     31  C   UNL     1       2.927  16.311  18.492  0.00  0.00    +0.000 C 
ATOM     32  N   UNL     1       3.558  17.289  18.463  0.00  0.00    +0.000 NA
ENDBRANCH  28  31
ENDBRANCH  23  25
ENDBRANCH   5  23
TORSDOF 5
ENDMDL
MODEL 6
REMARK VINA RESULT:      -8.1      2.769      9.010
REMARK  Name = 
REMARK  7 active torsions:
REMARK  status: ('A' for Active; 'I' for Inactive)
REMARK    1  A    between atoms: C_1  and  C_2
REMARK    2  A    between atoms: C_5  and  C_6
REMARK    3  A    between atoms: C_7  and  C_8
REMARK    4  A    between atoms: C_12  and  N_13
REMARK    5  A    between atoms: N_13  and  C_14
REMARK    6  A    between atoms: C_17  and  C_18
REMARK    7  A    between atoms: C_22  and  C_23
REMARK                            x       y       z     vdW  Elec       q    Type
REMARK                         _______ _______ _______ _____ _____    ______ ____
ROOT
ATOM      1  C   UNL     1       1.424   8.002  20.070  0.00  0.00    +0.000 A 
ATOM      2  C   UNL     1       2.549   8.162  19.272  0.00  0.00    +0.000 A 
ATOM      3  C   UNL     1       3.371   7.073  18.987  0.00  0.00    +0.000 A 
ATOM      4  C   UNL     1       3.190   5.804  19.588  0.00  0.00    +0.000 A 
ATOM      5  C   UNL     1       4.075   4.673  19.456  0.00  0.00    +0.000 A 
ATOM      6  C   UNL     1       3.660   3.433  19.986  0.00  0.00    +0.000 A 
ATOM      7  C   UNL     1       2.470   3.407  20.702  0.00  0.00    +0.000 A 
ATOM      8  N   UNL     1       1.675   4.479  20.915  0.00  0.00    +0.000 NA
ATOM      9  C   UNL     1       2.024   5.644  20.365  0.00  0.00    +0.000 A 
ATOM     10  C   UNL     1       1.169   6.723  20.575  0.00  0.00    +0.000 A 
ENDROOT
BRANCH   1  17
ATOM     11  C   UNL     1      -0.286   9.885  17.926  0.00  0.00    +0.000 C 
ATOM     12  C   UNL     1      -0.191   9.961  19.405  0.00  0.00    +0.000 A 
ATOM     13  N   UNL     1      -0.884  10.905  20.050  0.00  0.00    +0.000 NA
ATOM     14  O   UNL     1      -0.635  10.707  21.388  0.00  0.00    +0.000 OA
ATOM     15  C   UNL     1       0.207   9.651  21.554  0.00  0.00    +0.000 A 
ATOM     16  C   UNL     1       0.555   9.349  22.957  0.00  0.00    +0.000 C 
ATOM     17  C   UNL     1       0.535   9.130  20.314  0.00  0.00    +0.000 A 
ENDBRANCH   1  17
BRANCH   6  18
ATOM     18  C   UNL     1       4.350   2.121  19.848  0.00  0.00    +0.000 C 
ATOM     19  N   UNL     1       4.064   1.331  18.770  0.00  0.00    +0.000 N 
ATOM     20  O   UNL     1       5.164   1.736  20.678  0.00  0.00    +0.000 OA
ATOM     21  H   UNL     1       3.684   1.745  17.928  0.00  0.00    +0.000 HD
ATOM     22  H   UNL     1       4.642   0.505  18.670  0.00  0.00    +0.000 HD
ENDBRANCH   6  18
BRANCH   5  23
ATOM     23  N   UNL     1       5.319   4.753  18.737  0.00  0.00    +0.000 N 
ATOM     24  H   UNL     1       6.027   4.230  19.256  0.00  0.00    +0.000 HD
BRANCH  23  25
ATOM     25  C   UNL     1       5.532   4.694  17.339  0.00  0.00    +0.000 A 
ATOM     26  C   UNL     1       4.522   4.304  16.445  0.00  0.00    +0.000 A 
ATOM     27  C   UNL     1       4.818   4.039  15.102  0.00  0.00    +0.000 A 
ATOM     28  C   UNL     1       6.111   4.243  14.616  0.00  0.00    +0.000 A 
ATOM     29  C   UNL     1       7.093   4.749  15.472  0.00  0.00    +0.000 A 
ATOM     30  C   UNL     1       6.801   4.983  16.821  0.00  0.00    +0.000 A 
BRANCH  28  31
ATOM     31  C   UNL     1       6.436   3.910  13.261  0.00  0.00    +0.000 C 
ATOM     32  N   UNL     1       6.705   3.662  12.156  0.00  0.00    +0.000 NA
ENDBRANCH  28  31
ENDBRANCH  23  25
ENDBRANCH   5  23
TORSDOF 5
ENDMDL
MODEL 7
REMARK VINA RESULT:      -8.0      2.651      3.860
REMARK  Name = 
REMARK  7 active torsions:
REMARK  status: ('A' for Active; 'I' for Inactive)
REMARK    1  A    between atoms: C_1  and  C_2
REMARK    2  A    between atoms: C_5  and  C_6
REMARK    3  A    between atoms: C_7  and  C_8
REMARK    4  A    between atoms: C_12  and  N_13
REMARK    5  A    between atoms: N_13  and  C_14
REMARK    6  A    between atoms: C_17  and  C_18
REMARK    7  A    between atoms: C_22  and  C_23
REMARK                            x       y       z     vdW  Elec       q    Type
REMARK                         _______ _______ _______ _____ _____    ______ ____
ROOT
ATOM      1  C   UNL     1       3.142   6.783  18.203  0.00  0.00    +0.000 A 
ATOM      2  C   UNL     1       2.993   7.916  17.416  0.00  0.00    +0.000 A 
ATOM      3  C   UNL     1       2.259   9.006  17.882  0.00  0.00    +0.000 A 
ATOM      4  C   UNL     1       1.528   8.970  19.094  0.00  0.00    +0.000 A 
ATOM      5  C   UNL     1       0.636   9.997  19.574  0.00  0.00    +0.000 A 
ATOM      6  C   UNL     1       0.117   9.875  20.880  0.00  0.00    +0.000 A 
ATOM      7  C   UNL     1       0.410   8.713  21.582  0.00  0.00    +0.000 A 
ATOM      8  N   UNL     1       1.168   7.698  21.111  0.00  0.00    +0.000 NA
ATOM      9  C   UNL     1       1.718   7.829  19.901  0.00  0.00    +0.000 A 
ATOM     10  C   UNL     1       2.520   6.782  19.456  0.00  0.00    +0.000 A 
ENDROOT
BRANCH   1  17
ATOM     11  C   UNL     1       6.400   6.652  17.543  0.00  0.00    +0.000 C 
ATOM     12  C   UNL     1       5.356   5.604  17.430  0.00  0.00    +0.000 A 
ATOM     13  N   UNL     1       5.707   4.383  17.013  0.00  0.00    +0.000 NA
ATOM     14  O   UNL     1       4.557   3.628  17.046  0.00  0.00    +0.000 OA
ATOM     15  C   UNL     1       3.514   4.387  17.478  0.00  0.00    +0.000 A 
ATOM     16  C   UNL     1       2.219   3.681  17.546  0.00  0.00    +0.000 C 
ATOM     17  C   UNL     1       3.961   5.671  17.737  0.00  0.00    +0.000 A 
ENDBRANCH   1  17
BRANCH   6  18
ATOM     18  C   UNL     1      -0.707  10.874  21.615  0.00  0.00    +0.000 C 
ATOM     19  N   UNL     1      -0.635  10.919  22.978  0.00  0.00    +0.000 N 
ATOM     20  O   UNL     1      -1.447  11.652  21.025  0.00  0.00    +0.000 OA
ATOM     21  H   UNL     1       0.182  10.555  23.452  0.00  0.00    +0.000 HD
ATOM     22  H   UNL     1      -1.129  11.688  23.416  0.00  0.00    +0.000 HD
ENDBRANCH   6  18
BRANCH   5  23
ATOM     23  N   UNL     1       0.328  11.168  18.797  0.00  0.00    +0.000 N 
ATOM     24  H   UNL     1      -0.687  11.276  18.761  0.00  0.00    +0.000 HD
BRANCH  23  25
ATOM     25  C   UNL     1       0.996  12.416  18.786  0.00  0.00    +0.000 A 
ATOM     26  C   UNL     1       0.338  13.618  19.092  0.00  0.00    +0.000 A 
ATOM     27  C   UNL     1       0.957  14.853  18.859  0.00  0.00    +0.000 A 
ATOM     28  C   UNL     1       2.274  14.900  18.396  0.00  0.00    +0.000 A 
ATOM     29  C   UNL     1       2.977  13.707  18.207  0.00  0.00    +0.000 A 
ATOM     30  C   UNL     1       2.345  12.475  18.411  0.00  0.00    +0.000 A 
BRANCH  28  31
ATOM     31  C   UNL     1       2.890  16.157  18.092  0.00  0.00    +0.000 C 
ATOM     32  N   UNL     1       3.411  17.168  17.844  0.00  0.00    +0.000 NA
ENDBRANCH  28  31
ENDBRANCH  23  25
ENDBRANCH   5  23
TORSDOF 5
ENDMDL
MODEL 8
REMARK VINA RESULT:      -8.0      2.671      4.125
REMARK  Name = 
REMARK  7 active torsions:
REMARK  status: ('A' for Active; 'I' for Inactive)
REMARK    1  A    between atoms: C_1  and  C_2
REMARK    2  A    between atoms: C_5  and  C_6
REMARK    3  A    between atoms: C_7  and  C_8
REMARK    4  A    between atoms: C_12  and  N_13
REMARK    5  A    between atoms: N_13  and  C_14
REMARK    6  A    between atoms: C_17  and  C_18
REMARK    7  A    between atoms: C_22  and  C_23
REMARK                            x       y       z     vdW  Elec       q    Type
REMARK                         _______ _______ _______ _____ _____    ______ ____
ROOT
ATOM      1  C   UNL     1       3.060   6.856  18.230  0.00  0.00    +0.000 A 
ATOM      2  C   UNL     1       2.902   7.988  17.443  0.00  0.00    +0.000 A 
ATOM      3  C   UNL     1       2.174   9.079  17.916  0.00  0.00    +0.000 A 
ATOM      4  C   UNL     1       1.458   9.045  19.136  0.00  0.00    +0.000 A 
ATOM      5  C   UNL     1       0.572  10.072  19.625  0.00  0.00    +0.000 A 
ATOM      6  C   UNL     1       0.068   9.953  20.937  0.00  0.00    +0.000 A 
ATOM      7  C   UNL     1       0.370   8.792  21.639  0.00  0.00    +0.000 A 
ATOM      8  N   UNL     1       1.122   7.776  21.160  0.00  0.00    +0.000 NA
ATOM      9  C   UNL     1       1.657   7.905  19.943  0.00  0.00    +0.000 A 
ATOM     10  C   UNL     1       2.454   6.857  19.490  0.00  0.00    +0.000 A 
ENDROOT
BRANCH   1  17
ATOM     11  C   UNL     1       2.206   3.710  17.565  0.00  0.00    +0.000 C 
ATOM     12  C   UNL     1       3.526   4.382  17.485  0.00  0.00    +0.000 A 
ATOM     13  N   UNL     1       4.588   3.678  17.078  0.00  0.00    +0.000 NA
ATOM     14  O   UNL     1       5.644   4.560  17.067  0.00  0.00    +0.000 OA
ATOM     15  C   UNL     1       5.226   5.791  17.467  0.00  0.00    +0.000 A 
ATOM     16  C   UNL     1       6.282   6.824  17.503  0.00  0.00    +0.000 C 
ATOM     17  C   UNL     1       3.873   5.743  17.756  0.00  0.00    +0.000 A 
ENDBRANCH   1  17
BRANCH   6  18
ATOM     18  C   UNL     1      -0.747  10.953  21.681  0.00  0.00    +0.000 C 
ATOM     19  N   UNL     1      -0.670  10.990  23.044  0.00  0.00    +0.000 N 
ATOM     20  O   UNL     1      -1.483  11.739  21.097  0.00  0.00    +0.000 OA
ATOM     21  H   UNL     1       0.147  10.618  23.514  0.00  0.00    +0.000 HD
ATOM     22  H   UNL     1      -1.157  11.759  23.488  0.00  0.00    +0.000 HD
ENDBRANCH   6  18
BRANCH   5  23
ATOM     23  N   UNL     1       0.254  11.242  18.850  0.00  0.00    +0.000 N 
ATOM     24  H   UNL     1      -0.761  11.355  18.835  0.00  0.00    +0.000 HD
BRANCH  23  25
ATOM     25  C   UNL     1       0.928  12.486  18.820  0.00  0.00    +0.000 A 
ATOM     26  C   UNL     1       0.279  13.695  19.114  0.00  0.00    +0.000 A 
ATOM     27  C   UNL     1       0.903  14.924  18.862  0.00  0.00    +0.000 A 
ATOM     28  C   UNL     1       2.217  14.958  18.392  0.00  0.00    +0.000 A 
ATOM     29  C   UNL     1       2.913  13.759  18.214  0.00  0.00    +0.000 A 
ATOM     30  C   UNL     1       2.275  12.533  18.437  0.00  0.00    +0.000 A 
BRANCH  28  31
ATOM     31  C   UNL     1       2.839  16.208  18.068  0.00  0.00    +0.000 C 
ATOM     32  N   UNL     1       3.351  17.225  17.827  0.00  0.00    +0.000 NA
ENDBRANCH  28  31
ENDBRANCH  23  25
ENDBRANCH   5  23
TORSDOF 5
ENDMDL
MODEL 9
REMARK VINA RESULT:      -8.0      2.841      9.019
REMARK  Name = 
REMARK  7 active torsions:
REMARK  status: ('A' for Active; 'I' for Inactive)
REMARK    1  A    between atoms: C_1  and  C_2
REMARK    2  A    between atoms: C_5  and  C_6
REMARK    3  A    between atoms: C_7  and  C_8
REMARK    4  A    between atoms: C_12  and  N_13
REMARK    5  A    between atoms: N_13  and  C_14
REMARK    6  A    between atoms: C_17  and  C_18
REMARK    7  A    between atoms: C_22  and  C_23
REMARK                            x       y       z     vdW  Elec       q    Type
REMARK                         _______ _______ _______ _____ _____    ______ ____
ROOT
ATOM      1  C   UNL     1       1.374   8.007  20.188  0.00  0.00    +0.000 A 
ATOM      2  C   UNL     1       2.496   8.190  19.393  0.00  0.00    +0.000 A 
ATOM      3  C   UNL     1       3.317   7.109  19.074  0.00  0.00    +0.000 A 
ATOM      4  C   UNL     1       3.137   5.824  19.639  0.00  0.00    +0.000 A 
ATOM      5  C   UNL     1       4.021   4.696  19.472  0.00  0.00    +0.000 A 
ATOM      6  C   UNL     1       3.607   3.442  19.967  0.00  0.00    +0.000 A 
ATOM      7  C   UNL     1       2.418   3.396  20.685  0.00  0.00    +0.000 A 
ATOM      8  N   UNL     1       1.624   4.461  20.931  0.00  0.00    +0.000 NA
ATOM      9  C   UNL     1       1.973   5.642  20.414  0.00  0.00    +0.000 A 
ATOM     10  C   UNL     1       1.119   6.714  20.657  0.00  0.00    +0.000 A 
ENDROOT
BRANCH   1  17
ATOM     11  C   UNL     1       0.441   9.327  23.096  0.00  0.00    +0.000 C 
ATOM     12  C   UNL     1       0.059   9.694  21.710  0.00  0.00    +0.000 A 
ATOM     13  N   UNL     1      -0.783  10.715  21.520  0.00  0.00    +0.000 NA
ATOM     14  O   UNL     1      -0.918  10.843  20.157  0.00  0.00    +0.000 OA
ATOM     15  C   UNL     1      -0.166   9.904  19.524  0.00  0.00    +0.000 A 
ATOM     16  C   UNL     1      -0.239   9.939  18.049  0.00  0.00    +0.000 C 
ATOM     17  C   UNL     1       0.485   9.128  20.468  0.00  0.00    +0.000 A 
ENDBRANCH   1  17
BRANCH   6  18
ATOM     18  C   UNL     1       4.296   2.134  19.790  0.00  0.00    +0.000 C 
ATOM     19  N   UNL     1       3.879   1.294  18.796  0.00  0.00    +0.000 N 
ATOM     20  O   UNL     1       5.223   1.796  20.514  0.00  0.00    +0.000 OA
ATOM     21  H   UNL     1       3.379   1.666  17.997  0.00  0.00    +0.000 HD
ATOM     22  H   UNL     1       4.453   0.472  18.651  0.00  0.00    +0.000 HD
ENDBRANCH   6  18
BRANCH   5  23
ATOM     23  N   UNL     1       5.264   4.797  18.753  0.00  0.00    +0.000 N 
ATOM     24  H   UNL     1       5.985   4.302  19.282  0.00  0.00    +0.000 HD
BRANCH  23  25
ATOM     25  C   UNL     1       5.479   4.718  17.357  0.00  0.00    +0.000 A 
ATOM     26  C   UNL     1       4.456   4.371  16.460  0.00  0.00    +0.000 A 
ATOM     27  C   UNL     1       4.744   4.082  15.120  0.00  0.00    +0.000 A 
ATOM     28  C   UNL     1       6.048   4.220  14.640  0.00  0.00    +0.000 A 
ATOM     29  C   UNL     1       7.049   4.684  15.497  0.00  0.00    +0.000 A 
ATOM     30  C   UNL     1       6.764   4.941  16.843  0.00  0.00    +0.000 A 
BRANCH  28  31
ATOM     31  C   UNL     1       6.363   3.863  13.288  0.00  0.00    +0.000 C 
ATOM     32  N   UNL     1       6.632   3.557  12.197  0.00  0.00    +0.000 NA
ENDBRANCH  28  31
ENDBRANCH  23  25
ENDBRANCH   5  23
TORSDOF 5
ENDMDL
