MODEL 1
REMARK VINA RESULT:      -7.8      0.000      0.000
REMARK  Name = 
REMARK  11 active torsions:
REMARK  status: ('A' for Active; 'I' for Inactive)
REMARK    1  A    between atoms: C_1  and  C_2
REMARK    2  A    between atoms: C_2  and  C_3
REMARK    3  A    between atoms: C_2  and  C_4
REMARK    4  A    between atoms: C_10  and  O_11
REMARK    5  A    between atoms: O_11  and  C_12
REMARK    6  A    between atoms: C_13  and  C_14
REMARK    7  A    between atoms: C_19  and  C_20
REMARK    8  A    between atoms: C_20  and  C_21
REMARK    9  A    between atoms: C_21  and  C_22
REMARK   10  A    between atoms: C_22  and  O_24
REMARK   11  A    between atoms: C_26  and  C_27
REMARK                            x       y       z     vdW  Elec       q    Type
REMARK                         _______ _______ _______ _____ _____    ______ ____
ROOT
ATOM      1  C   UNL     1       4.455   5.565  17.802  0.00  0.00    +0.000 A 
ATOM      2  C   UNL     1       5.708   5.894  17.249  0.00  0.00    +0.000 A 
ATOM      3  C   UNL     1       6.134   5.215  16.088  0.00  0.00    +0.000 A 
ATOM      4  C   UNL     1       5.445   4.127  15.561  0.00  0.00    +0.000 A 
ATOM      5  C   UNL     1       4.251   3.748  16.170  0.00  0.00    +0.000 A 
ATOM      6  C   UNL     1       3.741   4.451  17.287  0.00  0.00    +0.000 A 
ENDROOT
BRANCH   2   7
ATOM      7  C   UNL     1       6.713   6.907  17.765  0.00  0.00    +0.000 C 
ATOM      8  F   UNL     1       7.283   6.640  18.964  0.00  0.00    +0.000 F 
ATOM      9  F   UNL     1       7.780   7.017  16.909  0.00  0.00    +0.000 F 
ATOM     10  F   UNL     1       6.194   8.166  17.823  0.00  0.00    +0.000 F 
ENDBRANCH   2   7
BRANCH   6  11
ATOM     11  C   UNL     1       2.444   3.931  17.877  0.00  0.00    +0.000 C 
ATOM     12  F   UNL     1       2.388   3.845  19.233  0.00  0.00    +0.000 F 
ATOM     13  F   UNL     1       1.376   4.696  17.509  0.00  0.00    +0.000 F 
ATOM     14  F   UNL     1       2.157   2.673  17.424  0.00  0.00    +0.000 F 
ENDBRANCH   6  11
BRANCH   1  15
ATOM     15  O   UNL     1       3.853   6.179  18.883  0.00  0.00    +0.000 OA
BRANCH  15  22
ATOM     16  C   UNL     1       0.687   9.469  20.786  0.00  0.00    +0.000 A 
ATOM     17  C   UNL     1       0.253  10.628  20.167  0.00  0.00    +0.000 A 
ATOM     18  N   UNL     1       0.701  10.627  18.875  0.00  0.00    +0.000 N 
ATOM     19  C   UNL     1       1.411   9.479  18.618  0.00  0.00    +0.000 A 
ATOM     20  C   UNL     1       2.015   9.039  17.433  0.00  0.00    +0.000 A 
ATOM     21  C   UNL     1       2.757   7.853  17.482  0.00  0.00    +0.000 A 
ATOM     22  C   UNL     1       2.945   7.189  18.694  0.00  0.00    +0.000 A 
ATOM     23  C   UNL     1       2.233   7.576  19.840  0.00  0.00    +0.000 A 
ATOM     24  C   UNL     1       1.463   8.758  19.811  0.00  0.00    +0.000 A 
ATOM     25  H   UNL     1       0.539  11.362  18.201  0.00  0.00    +0.000 HD
BRANCH  16  27
ATOM     26  C   UNL     1       1.665   9.119  23.077  0.00  0.00    +0.000 C 
ATOM     27  C   UNL     1       0.411   9.038  22.204  0.00  0.00    +0.000 C 
ATOM     28  C   UNL     1      -0.729   9.838  22.840  0.00  0.00    +0.000 C 
ENDBRANCH  16  27
ENDBRANCH  15  22
ENDBRANCH   1  15
BRANCH   4  29
ATOM     29  C   UNL     1       6.021   3.369  14.388  0.00  0.00    +0.000 C 
BRANCH  29  30
ATOM     30  C   UNL     1       5.685   4.054  13.060  0.00  0.00    +0.000 C 
BRANCH  30  31
ATOM     31  C   UNL     1       5.322   3.060  11.990  0.00  0.00    +0.000 C 
ATOM     32  O   UNL     1       6.017   2.126  11.632  0.00  0.00    +0.000 OA
BRANCH  31  33
ATOM     33  O   UNL     1       4.103   3.304  11.455  0.00  0.00    +0.000 OA
ATOM     34  H   UNL     1       3.463   2.573  11.568  0.00  0.00    +0.000 HD
ENDBRANCH  31  33
ENDBRANCH  30  31
ENDBRANCH  29  30
ENDBRANCH   4  29
TORSDOF 9
ENDMDL
MODEL 2
REMARK VINA RESULT:      -7.6      0.590      1.199
REMARK  Name = 
REMARK  11 active torsions:
REMARK  status: ('A' for Active; 'I' for Inactive)
REMARK    1  A    between atoms: C_1  and  C_2
REMARK    2  A    between atoms: C_2  and  C_3
REMARK    3  A    between atoms: C_2  and  C_4
REMARK    4  A    between atoms: C_10  and  O_11
REMARK    5  A    between atoms: O_11  and  C_12
REMARK    6  A    between atoms: C_13  and  C_14
REMARK    7  A    between atoms: C_19  and  C_20
REMARK    8  A    between atoms: C_20  and  C_21
REMARK    9  A    between atoms: C_21  and  C_22
REMARK   10  A    between atoms: C_22  and  O_24
REMARK   11  A    between atoms: C_26  and  C_27
REMARK                            x       y       z     vdW  Elec       q    Type
REMARK                         _______ _______ _______ _____ _____    ______ ____
ROOT
ATOM      1  C   UNL     1       4.405   5.565  17.895  0.00  0.00    +0.000 A 
ATOM      2  C   UNL     1       5.653   5.859  17.312  0.00  0.00    +0.000 A 
ATOM      3  C   UNL     1       6.052   5.136  16.168  0.00  0.00    +0.000 A 
ATOM      4  C   UNL     1       5.342   4.040  15.688  0.00  0.00    +0.000 A 
ATOM      5  C   UNL     1       4.153   3.698  16.327  0.00  0.00    +0.000 A 
ATOM      6  C   UNL     1       3.669   4.444  17.428  0.00  0.00    +0.000 A 
ENDROOT
BRANCH   2   7
ATOM      7  C   UNL     1       6.679   6.875  17.779  0.00  0.00    +0.000 C 
ATOM      8  F   UNL     1       7.741   7.082  16.966  0.00  0.00    +0.000 F 
ATOM      9  F   UNL     1       6.113   8.118  17.907  0.00  0.00    +0.000 F 
ATOM     10  F   UNL     1       7.158   6.591  19.023  0.00  0.00    +0.000 F 
ENDBRANCH   2   7
BRANCH   6  11
ATOM     11  C   UNL     1       2.375   3.961  18.054  0.00  0.00    +0.000 C 
ATOM     12  F   UNL     1       1.989   2.694  17.743  0.00  0.00    +0.000 F 
ATOM     13  F   UNL     1       2.419   4.011  19.416  0.00  0.00    +0.000 F 
ATOM     14  F   UNL     1       1.321   4.755  17.699  0.00  0.00    +0.000 F 
ENDBRANCH   6  11
BRANCH   1  15
ATOM     15  O   UNL     1       3.827   6.222  18.964  0.00  0.00    +0.000 OA
BRANCH  15  22
ATOM     16  C   UNL     1       0.626   9.517  20.800  0.00  0.00    +0.000 A 
ATOM     17  C   UNL     1       0.189  10.664  20.162  0.00  0.00    +0.000 A 
ATOM     18  N   UNL     1       0.647  10.649  18.873  0.00  0.00    +0.000 N 
ATOM     19  C   UNL     1       1.366   9.502  18.637  0.00  0.00    +0.000 A 
ATOM     20  C   UNL     1       1.981   9.050  17.463  0.00  0.00    +0.000 A 
ATOM     21  C   UNL     1       2.730   7.870  17.532  0.00  0.00    +0.000 A 
ATOM     22  C   UNL     1       2.914   7.224  18.754  0.00  0.00    +0.000 A 
ATOM     23  C   UNL     1       2.191   7.621  19.890  0.00  0.00    +0.000 A 
ATOM     24  C   UNL     1       1.414   8.797  19.840  0.00  0.00    +0.000 A 
ATOM     25  H   UNL     1       0.484  11.374  18.189  0.00  0.00    +0.000 HD
BRANCH  16  27
ATOM     26  C   UNL     1       1.602   9.151  23.090  0.00  0.00    +0.000 C 
ATOM     27  C   UNL     1       0.344   9.103  22.222  0.00  0.00    +0.000 C 
ATOM     28  C   UNL     1      -0.770   9.941  22.857  0.00  0.00    +0.000 C 
ENDBRANCH  16  27
ENDBRANCH  15  22
ENDBRANCH   1  15
BRANCH   4  29
ATOM     29  C   UNL     1       5.890   3.236  14.533  0.00  0.00    +0.000 C 
BRANCH  29  30
ATOM     30  C   UNL     1       5.586   3.908  13.189  0.00  0.00    +0.000 C 
BRANCH  30  31
ATOM     31  C   UNL     1       6.659   3.638  12.169  0.00  0.00    +0.000 C 
ATOM     32  O   UNL     1       7.425   4.471  11.718  0.00  0.00    +0.000 OA
BRANCH  31  33
ATOM     33  O   UNL     1       6.701   2.337  11.801  0.00  0.00    +0.000 OA
ATOM     34  H   UNL     1       7.524   2.078  11.341  0.00  0.00    +0.000 HD
ENDBRANCH  31  33
ENDBRANCH  30  31
ENDBRANCH  29  30
ENDBRANCH   4  29
TORSDOF 9
ENDMDL
MODEL 3
REMARK VINA RESULT:      -7.5      0.521      1.098
REMARK  Name = 
REMARK  11 active torsions:
REMARK  status: ('A' for Active; 'I' for Inactive)
REMARK    1  A    between atoms: C_1  and  C_2
REMARK    2  A    between atoms: C_2  and  C_3
REMARK    3  A    between atoms: C_2  and  C_4
REMARK    4  A    between atoms: C_10  and  O_11
REMARK    5  A    between atoms: O_11  and  C_12
REMARK    6  A    between atoms: C_13  and  C_14
REMARK    7  A    between atoms: C_19  and  C_20
REMARK    8  A    between atoms: C_20  and  C_21
REMARK    9  A    between atoms: C_21  and  C_22
REMARK   10  A    between atoms: C_22  and  O_24
REMARK   11  A    between atoms: C_26  and  C_27
REMARK                            x       y       z     vdW  Elec       q    Type
REMARK                         _______ _______ _______ _____ _____    ______ ____
ROOT
ATOM      1  C   UNL     1       4.269   5.588  17.949  0.00  0.00    +0.000 A 
ATOM      2  C   UNL     1       5.543   5.819  17.393  0.00  0.00    +0.000 A 
ATOM      3  C   UNL     1       5.950   5.040  16.290  0.00  0.00    +0.000 A 
ATOM      4  C   UNL     1       5.217   3.950  15.830  0.00  0.00    +0.000 A 
ATOM      5  C   UNL     1       4.000   3.671  16.445  0.00  0.00    +0.000 A 
ATOM      6  C   UNL     1       3.510   4.474  17.503  0.00  0.00    +0.000 A 
ENDROOT
BRANCH   2   7
ATOM      7  C   UNL     1       6.588   6.818  17.852  0.00  0.00    +0.000 C 
ATOM      8  F   UNL     1       7.686   6.948  17.072  0.00  0.00    +0.000 F 
ATOM      9  F   UNL     1       6.065   8.085  17.901  0.00  0.00    +0.000 F 
ATOM     10  F   UNL     1       7.010   6.576  19.125  0.00  0.00    +0.000 F 
ENDBRANCH   2   7
BRANCH   6  11
ATOM     11  C   UNL     1       2.183   4.057  18.107  0.00  0.00    +0.000 C 
ATOM     12  F   UNL     1       2.070   4.175  19.457  0.00  0.00    +0.000 F 
ATOM     13  F   UNL     1       1.141   4.767  17.585  0.00  0.00    +0.000 F 
ATOM     14  F   UNL     1       1.897   2.749  17.834  0.00  0.00    +0.000 F 
ENDBRANCH   6  11
BRANCH   1  15
ATOM     15  O   UNL     1       3.683   6.304  18.975  0.00  0.00    +0.000 OA
BRANCH  15  22
ATOM     16  C   UNL     1       0.610   9.829  20.587  0.00  0.00    +0.000 A 
ATOM     17  C   UNL     1       0.260  10.976  19.898  0.00  0.00    +0.000 A 
ATOM     18  N   UNL     1       0.760  10.892  18.628  0.00  0.00    +0.000 N 
ATOM     19  C   UNL     1       1.422   9.701  18.455  0.00  0.00    +0.000 A 
ATOM     20  C   UNL     1       2.051   9.176  17.318  0.00  0.00    +0.000 A 
ATOM     21  C   UNL     1       2.729   7.960  17.453  0.00  0.00    +0.000 A 
ATOM     22  C   UNL     1       2.835   7.346  18.700  0.00  0.00    +0.000 A 
ATOM     23  C   UNL     1       2.097   7.820  19.796  0.00  0.00    +0.000 A 
ATOM     24  C   UNL     1       1.389   9.035  19.680  0.00  0.00    +0.000 A 
ATOM     25  H   UNL     1       0.661  11.601  17.915  0.00  0.00    +0.000 HD
BRANCH  16  27
ATOM     26  C   UNL     1      -0.463  10.629  22.718  0.00  0.00    +0.000 C 
ATOM     27  C   UNL     1       0.256   9.479  22.011  0.00  0.00    +0.000 C 
ATOM     28  C   UNL     1      -0.578   8.198  22.101  0.00  0.00    +0.000 C 
ENDBRANCH  16  27
ENDBRANCH  15  22
ENDBRANCH   1  15
BRANCH   4  29
ATOM     29  C   UNL     1       5.771   3.085  14.722  0.00  0.00    +0.000 C 
BRANCH  29  30
ATOM     30  C   UNL     1       6.127   3.918  13.487  0.00  0.00    +0.000 C 
BRANCH  30  31
ATOM     31  C   UNL     1       5.777   3.206  12.207  0.00  0.00    +0.000 C 
ATOM     32  O   UNL     1       4.707   3.283  11.631  0.00  0.00    +0.000 OA
BRANCH  31  33
ATOM     33  O   UNL     1       6.803   2.460  11.739  0.00  0.00    +0.000 OA
ATOM     34  H   UNL     1       6.744   2.252  10.785  0.00  0.00    +0.000 HD
ENDBRANCH  31  33
ENDBRANCH  30  31
ENDBRANCH  29  30
ENDBRANCH   4  29
TORSDOF 9
ENDMDL
MODEL 4
REMARK VINA RESULT:      -7.4      0.886      1.038
REMARK  Name = 
REMARK  11 active torsions:
REMARK  status: ('A' for Active; 'I' for Inactive)
REMARK    1  A    between atoms: C_1  and  C_2
REMARK    2  A    between atoms: C_2  and  C_3
REMARK    3  A    between atoms: C_2  and  C_4
REMARK    4  A    between atoms: C_10  and  O_11
REMARK    5  A    between atoms: O_11  and  C_12
REMARK    6  A    between atoms: C_13  and  C_14
REMARK    7  A    between atoms: C_19  and  C_20
REMARK    8  A    between atoms: C_20  and  C_21
REMARK    9  A    between atoms: C_21  and  C_22
REMARK   10  A    between atoms: C_22  and  O_24
REMARK   11  A    between atoms: C_26  and  C_27
REMARK                            x       y       z     vdW  Elec       q    Type
REMARK                         _______ _______ _______ _____ _____    ______ ____
ROOT
ATOM      1  C   UNL     1       4.396   5.575  17.945  0.00  0.00    +0.000 A 
ATOM      2  C   UNL     1       5.657   5.875  17.394  0.00  0.00    +0.000 A 
ATOM      3  C   UNL     1       6.080   5.167  16.249  0.00  0.00    +0.000 A 
ATOM      4  C   UNL     1       5.378   4.080  15.738  0.00  0.00    +0.000 A 
ATOM      5  C   UNL     1       4.176   3.730  16.346  0.00  0.00    +0.000 A 
ATOM      6  C   UNL     1       3.668   4.461  17.446  0.00  0.00    +0.000 A 
ENDROOT
BRANCH   2   7
ATOM      7  C   UNL     1       6.673   6.882  17.897  0.00  0.00    +0.000 C 
ATOM      8  F   UNL     1       7.264   6.607  19.084  0.00  0.00    +0.000 F 
ATOM      9  F   UNL     1       7.724   6.996  17.023  0.00  0.00    +0.000 F 
ATOM     10  F   UNL     1       6.158   8.142  17.973  0.00  0.00    +0.000 F 
ENDBRANCH   2   7
BRANCH   6  11
ATOM     11  C   UNL     1       2.360   3.972  18.036  0.00  0.00    +0.000 C 
ATOM     12  F   UNL     1       2.285   3.937  19.393  0.00  0.00    +0.000 F 
ATOM     13  F   UNL     1       1.302   4.730  17.626  0.00  0.00    +0.000 F 
ATOM     14  F   UNL     1       2.071   2.700  17.627  0.00  0.00    +0.000 F 
ENDBRANCH   6  11
BRANCH   1  15
ATOM     15  O   UNL     1       3.795   6.218  19.010  0.00  0.00    +0.000 OA
BRANCH  15  22
ATOM     16  C   UNL     1       0.608   9.538  20.825  0.00  0.00    +0.000 A 
ATOM     17  C   UNL     1       0.180  10.686  20.183  0.00  0.00    +0.000 A 
ATOM     18  N   UNL     1       0.642  10.664  18.896  0.00  0.00    +0.000 N 
ATOM     19  C   UNL     1       1.355   9.512  18.665  0.00  0.00    +0.000 A 
ATOM     20  C   UNL     1       1.971   9.053  17.494  0.00  0.00    +0.000 A 
ATOM     21  C   UNL     1       2.712   7.868  17.570  0.00  0.00    +0.000 A 
ATOM     22  C   UNL     1       2.889   7.225  18.794  0.00  0.00    +0.000 A 
ATOM     23  C   UNL     1       2.165   7.629  19.927  0.00  0.00    +0.000 A 
ATOM     24  C   UNL     1       1.395   8.810  19.870  0.00  0.00    +0.000 A 
ATOM     25  H   UNL     1       0.486  11.387  18.208  0.00  0.00    +0.000 HD
BRANCH  16  27
ATOM     26  C   UNL     1       1.576   9.168  23.118  0.00  0.00    +0.000 C 
ATOM     27  C   UNL     1       0.319   9.130  22.248  0.00  0.00    +0.000 C 
ATOM     28  C   UNL     1      -0.788   9.980  22.878  0.00  0.00    +0.000 C 
ENDBRANCH  16  27
ENDBRANCH  15  22
ENDBRANCH   1  15
BRANCH   4  29
ATOM     29  C   UNL     1       5.951   3.291  14.584  0.00  0.00    +0.000 C 
BRANCH  29  30
ATOM     30  C   UNL     1       5.757   4.026  13.253  0.00  0.00    +0.000 C 
BRANCH  30  31
ATOM     31  C   UNL     1       7.050   4.588  12.727  0.00  0.00    +0.000 C 
ATOM     32  O   UNL     1       7.741   5.415  13.295  0.00  0.00    +0.000 OA
BRANCH  31  33
ATOM     33  O   UNL     1       7.389   4.058  11.528  0.00  0.00    +0.000 OA
ATOM     34  H   UNL     1       7.498   3.087  11.536  0.00  0.00    +0.000 HD
ENDBRANCH  31  33
ENDBRANCH  30  31
ENDBRANCH  29  30
ENDBRANCH   4  29
TORSDOF 9
ENDMDL
MODEL 5
REMARK VINA RESULT:      -7.3      2.935      8.075
REMARK  Name = 
REMARK  11 active torsions:
REMARK  status: ('A' for Active; 'I' for Inactive)
REMARK    1  A    between atoms: C_1  and  C_2
REMARK    2  A    between atoms: C_2  and  C_3
REMARK    3  A    between atoms: C_2  and  C_4
REMARK    4  A    between atoms: C_10  and  O_11
REMARK    5  A    between atoms: O_11  and  C_12
REMARK    6  A    between atoms: C_13  and  C_14
REMARK    7  A    between atoms: C_19  and  C_20
REMARK    8  A    between atoms: C_20  and  C_21
REMARK    9  A    between atoms: C_21  and  C_22
REMARK   10  A    between atoms: C_22  and  O_24
REMARK   11  A    between atoms: C_26  and  C_27
REMARK                            x       y       z     vdW  Elec       q    Type
REMARK                         _______ _______ _______ _____ _____    ______ ____
ROOT
ATOM      1  C   UNL     1       3.198   4.802  18.803  0.00  0.00    +0.000 A 
ATOM      2  C   UNL     1       3.156   6.183  18.534  0.00  0.00    +0.000 A 
ATOM      3  C   UNL     1       2.537   7.036  19.471  0.00  0.00    +0.000 A 
ATOM      4  C   UNL     1       1.828   6.555  20.568  0.00  0.00    +0.000 A 
ATOM      5  C   UNL     1       1.795   5.180  20.777  0.00  0.00    +0.000 A 
ATOM      6  C   UNL     1       2.471   4.288  19.909  0.00  0.00    +0.000 A 
ENDROOT
BRANCH   2   7
ATOM      7  C   UNL     1       3.691   6.907  17.312  0.00  0.00    +0.000 C 
ATOM      8  F   UNL     1       3.759   6.193  16.165  0.00  0.00    +0.000 F 
ATOM      9  F   UNL     1       2.894   7.976  16.990  0.00  0.00    +0.000 F 
ATOM     10  F   UNL     1       4.920   7.455  17.533  0.00  0.00    +0.000 F 
ENDBRANCH   2   7
BRANCH   6  11
ATOM     11  C   UNL     1       2.345   2.811  20.228  0.00  0.00    +0.000 C 
ATOM     12  F   UNL     1       1.838   2.022  19.243  0.00  0.00    +0.000 F 
ATOM     13  F   UNL     1       3.546   2.259  20.564  0.00  0.00    +0.000 F 
ATOM     14  F   UNL     1       1.537   2.599  21.310  0.00  0.00    +0.000 F 
ENDBRANCH   6  11
BRANCH   1  15
ATOM     15  O   UNL     1       3.828   3.838  18.037  0.00  0.00    +0.000 OA
BRANCH  15  22
ATOM     16  C   UNL     1       6.358   4.066  13.793  0.00  0.00    +0.000 A 
ATOM     17  C   UNL     1       7.472   4.852  13.554  0.00  0.00    +0.000 A 
ATOM     18  N   UNL     1       7.866   5.420  14.734  0.00  0.00    +0.000 N 
ATOM     19  C   UNL     1       7.044   5.012  15.757  0.00  0.00    +0.000 A 
ATOM     20  C   UNL     1       7.094   5.307  17.126  0.00  0.00    +0.000 A 
ATOM     21  C   UNL     1       6.064   4.816  17.936  0.00  0.00    +0.000 A 
ATOM     22  C   UNL     1       4.990   4.129  17.371  0.00  0.00    +0.000 A 
ATOM     23  C   UNL     1       5.021   3.737  16.023  0.00  0.00    +0.000 A 
ATOM     24  C   UNL     1       6.059   4.204  15.190  0.00  0.00    +0.000 A 
ATOM     25  H   UNL     1       8.647   6.051  14.845  0.00  0.00    +0.000 HD
BRANCH  16  27
ATOM     26  C   UNL     1       4.563   4.067  12.030  0.00  0.00    +0.000 C 
ATOM     27  C   UNL     1       5.599   3.235  12.789  0.00  0.00    +0.000 C 
ATOM     28  C   UNL     1       6.532   2.524  11.804  0.00  0.00    +0.000 C 
ENDBRANCH  16  27
ENDBRANCH  15  22
ENDBRANCH   1  15
BRANCH   4  29
ATOM     29  C   UNL     1       1.085   7.519  21.464  0.00  0.00    +0.000 C 
BRANCH  29  30
ATOM     30  C   UNL     1       1.045   8.927  20.859  0.00  0.00    +0.000 C 
BRANCH  30  31
ATOM     31  C   UNL     1       0.936   9.991  21.918  0.00  0.00    +0.000 C 
ATOM     32  O   UNL     1       0.740   9.787  23.103  0.00  0.00    +0.000 OA
BRANCH  31  33
ATOM     33  O   UNL     1       1.096  11.236  21.412  0.00  0.00    +0.000 OA
ATOM     34  H   UNL     1       1.781  11.767  21.864  0.00  0.00    +0.000 HD
ENDBRANCH  31  33
ENDBRANCH  30  31
ENDBRANCH  29  30
ENDBRANCH   4  29
TORSDOF 9
ENDMDL
MODEL 6
REMARK VINA RESULT:      -7.2      2.943      8.207
REMARK  Name = 
REMARK  11 active torsions:
REMARK  status: ('A' for Active; 'I' for Inactive)
REMARK    1  A    between atoms: C_1  and  C_2
REMARK    2  A    between atoms: C_2  and  C_3
REMARK    3  A    between atoms: C_2  and  C_4
REMARK    4  A    between atoms: C_10  and  O_11
REMARK    5  A    between atoms: O_11  and  C_12
REMARK    6  A    between atoms: C_13  and  C_14
REMARK    7  A    between atoms: C_19  and  C_20
REMARK    8  A    between atoms: C_20  and  C_21
REMARK    9  A    between atoms: C_21  and  C_22
REMARK   10  A    between atoms: C_22  and  O_24
REMARK   11  A    between atoms: C_26  and  C_27
REMARK                            x       y       z     vdW  Elec       q    Type
REMARK                         _______ _______ _______ _____ _____    ______ ____
ROOT
ATOM      1  C   UNL     1       2.577   5.489  18.582  0.00  0.00    +0.000 A 
ATOM      2  C   UNL     1       2.664   6.894  18.560  0.00  0.00    +0.000 A 
ATOM      3  C   UNL     1       2.205   7.618  19.681  0.00  0.00    +0.000 A 
ATOM      4  C   UNL     1       1.526   7.015  20.735  0.00  0.00    +0.000 A 
ATOM      5  C   UNL     1       1.361   5.633  20.705  0.00  0.00    +0.000 A 
ATOM      6  C   UNL     1       1.877   4.854  19.642  0.00  0.00    +0.000 A 
ENDROOT
BRANCH   2   7
ATOM      7  C   UNL     1       3.187   7.774  17.440  0.00  0.00    +0.000 C 
ATOM      8  F   UNL     1       3.361   7.184  16.235  0.00  0.00    +0.000 F 
ATOM      9  F   UNL     1       2.319   8.804  17.181  0.00  0.00    +0.000 F 
ATOM     10  F   UNL     1       4.356   8.392  17.772  0.00  0.00    +0.000 F 
ENDBRANCH   2   7
BRANCH   6  11
ATOM     11  C   UNL     1       1.616   3.362  19.710  0.00  0.00    +0.000 C 
ATOM     12  F   UNL     1       0.789   2.849  18.761  0.00  0.00    +0.000 F 
ATOM     13  F   UNL     1       2.770   2.640  19.626  0.00  0.00    +0.000 F 
ATOM     14  F   UNL     1       1.056   3.006  20.906  0.00  0.00    +0.000 F 
ENDBRANCH   6  11
BRANCH   1  15
ATOM     15  O   UNL     1       3.045   4.626  17.610  0.00  0.00    +0.000 OA
BRANCH  15  22
ATOM     16  C   UNL     1       6.280   4.154  13.898  0.00  0.00    +0.000 A 
ATOM     17  C   UNL     1       7.498   4.804  13.796  0.00  0.00    +0.000 A 
ATOM     18  N   UNL     1       7.742   5.459  14.972  0.00  0.00    +0.000 N 
ATOM     19  C   UNL     1       6.716   5.243  15.860  0.00  0.00    +0.000 A 
ATOM     20  C   UNL     1       6.561   5.680  17.181  0.00  0.00    +0.000 A 
ATOM     21  C   UNL     1       5.359   5.377  17.831  0.00  0.00    +0.000 A 
ATOM     22  C   UNL     1       4.330   4.733  17.144  0.00  0.00    +0.000 A 
ATOM     23  C   UNL     1       4.550   4.195  15.866  0.00  0.00    +0.000 A 
ATOM     24  C   UNL     1       5.761   4.471  15.198  0.00  0.00    +0.000 A 
ATOM     25  H   UNL     1       8.557   6.024  15.165  0.00  0.00    +0.000 HD
BRANCH  16  27
ATOM     26  C   UNL     1       4.518   4.047  12.105  0.00  0.00    +0.000 C 
ATOM     27  C   UNL     1       5.619   3.292  12.851  0.00  0.00    +0.000 C 
ATOM     28  C   UNL     1       6.631   2.712  11.858  0.00  0.00    +0.000 C 
ENDBRANCH  16  27
ENDBRANCH  15  22
ENDBRANCH   1  15
BRANCH   4  29
ATOM     29  C   UNL     1       0.954   7.866  21.845  0.00  0.00    +0.000 C 
BRANCH  29  30
ATOM     30  C   UNL     1       0.483   9.227  21.320  0.00  0.00    +0.000 C 
BRANCH  30  31
ATOM     31  C   UNL     1      -0.090  10.085  22.417  0.00  0.00    +0.000 C 
ATOM     32  O   UNL     1       0.045  11.292  22.508  0.00  0.00    +0.000 OA
BRANCH  31  33
ATOM     33  O   UNL     1      -0.803   9.363  23.313  0.00  0.00    +0.000 OA
ATOM     34  H   UNL     1      -0.832   9.753  24.208  0.00  0.00    +0.000 HD
ENDBRANCH  31  33
ENDBRANCH  30  31
ENDBRANCH  29  30
ENDBRANCH   4  29
TORSDOF 9
ENDMDL
MODEL 7
REMARK VINA RESULT:      -7.1      3.741      6.456
REMARK  Name = 
REMARK  11 active torsions:
REMARK  status: ('A' for Active; 'I' for Inactive)
REMARK    1  A    between atoms: C_1  and  C_2
REMARK    2  A    between atoms: C_2  and  C_3
REMARK    3  A    between atoms: C_2  and  C_4
REMARK    4  A    between atoms: C_10  and  O_11
REMARK    5  A    between atoms: O_11  and  C_12
REMARK    6  A    between atoms: C_13  and  C_14
REMARK    7  A    between atoms: C_19  and  C_20
REMARK    8  A    between atoms: C_20  and  C_21
REMARK    9  A    between atoms: C_21  and  C_22
REMARK   10  A    between atoms: C_22  and  O_24
REMARK   11  A    between atoms: C_26  and  C_27
REMARK                            x       y       z     vdW  Elec       q    Type
REMARK                         _______ _______ _______ _____ _____    ______ ____
ROOT
ATOM      1  C   UNL     1       4.963   6.138  16.753  0.00  0.00    +0.000 A 
ATOM      2  C   UNL     1       3.800   6.259  17.537  0.00  0.00    +0.000 A 
ATOM      3  C   UNL     1       3.106   5.086  17.903  0.00  0.00    +0.000 A 
ATOM      4  C   UNL     1       3.430   3.833  17.391  0.00  0.00    +0.000 A 
ATOM      5  C   UNL     1       4.528   3.735  16.542  0.00  0.00    +0.000 A 
ATOM      6  C   UNL     1       5.305   4.870  16.210  0.00  0.00    +0.000 A 
ENDROOT
BRANCH   2   7
ATOM      7  C   UNL     1       3.152   7.533  18.045  0.00  0.00    +0.000 C 
ATOM      8  F   UNL     1       3.799   8.691  17.778  0.00  0.00    +0.000 F 
ATOM      9  F   UNL     1       1.913   7.709  17.486  0.00  0.00    +0.000 F 
ATOM     10  F   UNL     1       2.915   7.492  19.387  0.00  0.00    +0.000 F 
ENDBRANCH   2   7
BRANCH   6  11
ATOM     11  C   UNL     1       6.463   4.641  15.259  0.00  0.00    +0.000 C 
ATOM     12  F   UNL     1       6.663   5.594  14.310  0.00  0.00    +0.000 F 
ATOM     13  F   UNL     1       7.650   4.522  15.921  0.00  0.00    +0.000 F 
ATOM     14  F   UNL     1       6.319   3.470  14.568  0.00  0.00    +0.000 F 
ENDBRANCH   6  11
BRANCH   1  15
ATOM     15  O   UNL     1       5.802   7.167  16.371  0.00  0.00    +0.000 OA
BRANCH  15  22
ATOM     16  C   UNL     1       8.736  10.729  18.154  0.00  0.00    +0.000 A 
ATOM     17  C   UNL     1       9.473  10.662  19.323  0.00  0.00    +0.000 A 
ATOM     18  N   UNL     1       9.399   9.387  19.813  0.00  0.00    +0.000 N 
ATOM     19  C   UNL     1       8.640   8.600  18.981  0.00  0.00    +0.000 A 
ATOM     20  C   UNL     1       8.331   7.236  19.065  0.00  0.00    +0.000 A 
ATOM     21  C   UNL     1       7.454   6.708  18.111  0.00  0.00    +0.000 A 
ATOM     22  C   UNL     1       6.854   7.541  17.168  0.00  0.00    +0.000 A 
ATOM     23  C   UNL     1       7.270   8.874  17.022  0.00  0.00    +0.000 A 
ATOM     24  C   UNL     1       8.168   9.424  17.960  0.00  0.00    +0.000 A 
ATOM     25  H   UNL     1       9.837   9.064  20.664  0.00  0.00    +0.000 HD
BRANCH  16  27
ATOM     26  C   UNL     1       7.190  12.594  17.474  0.00  0.00    +0.000 C 
ATOM     27  C   UNL     1       8.552  11.931  17.262  0.00  0.00    +0.000 C 
ATOM     28  C   UNL     1       9.675  12.957  17.438  0.00  0.00    +0.000 C 
ENDBRANCH  16  27
ENDBRANCH  15  22
ENDBRANCH   1  15
BRANCH   4  29
ATOM     29  C   UNL     1       2.569   2.638  17.730  0.00  0.00    +0.000 C 
BRANCH  29  30
ATOM     30  C   UNL     1       3.347   1.603  18.549  0.00  0.00    +0.000 C 
BRANCH  30  31
ATOM     31  C   UNL     1       3.875   2.184  19.834  0.00  0.00    +0.000 C 
ATOM     32  O   UNL     1       3.194   2.672  20.718  0.00  0.00    +0.000 OA
BRANCH  31  33
ATOM     33  O   UNL     1       5.223   2.097  19.919  0.00  0.00    +0.000 OA
ATOM     34  H   UNL     1       5.697   2.880  19.576  0.00  0.00    +0.000 HD
ENDBRANCH  31  33
ENDBRANCH  30  31
ENDBRANCH  29  30
ENDBRANCH   4  29
TORSDOF 9
ENDMDL
MODEL 8
REMARK VINA RESULT:      -7.1      7.230      9.503
REMARK  Name = 
REMARK  11 active torsions:
REMARK  status: ('A' for Active; 'I' for Inactive)
REMARK    1  A    between atoms: C_1  and  C_2
REMARK    2  A    between atoms: C_2  and  C_3
REMARK    3  A    between atoms: C_2  and  C_4
REMARK    4  A    between atoms: C_10  and  O_11
REMARK    5  A    between atoms: O_11  and  C_12
REMARK    6  A    between atoms: C_13  and  C_14
REMARK    7  A    between atoms: C_19  and  C_20
REMARK    8  A    between atoms: C_20  and  C_21
REMARK    9  A    between atoms: C_21  and  C_22
REMARK   10  A    between atoms: C_22  and  O_24
REMARK   11  A    between atoms: C_26  and  C_27
REMARK                            x       y       z     vdW  Elec       q    Type
REMARK                         _______ _______ _______ _____ _____    ______ ____
ROOT
ATOM      1  C   UNL     1      -0.606  11.809  21.205  0.00  0.00    +0.000 A 
ATOM      2  C   UNL     1      -0.813  12.590  20.051  0.00  0.00    +0.000 A 
ATOM      3  C   UNL     1      -1.088  11.936  18.832  0.00  0.00    +0.000 A 
ATOM      4  C   UNL     1      -1.005  10.554  18.688  0.00  0.00    +0.000 A 
ATOM      5  C   UNL     1      -0.708   9.793  19.815  0.00  0.00    +0.000 A 
ATOM      6  C   UNL     1      -0.505  10.398  21.078  0.00  0.00    +0.000 A 
ENDROOT
BRANCH   2   7
ATOM      7  C   UNL     1      -0.758  14.102  19.932  0.00  0.00    +0.000 C 
ATOM      8  F   UNL     1      -0.629  14.607  18.683  0.00  0.00    +0.000 F 
ATOM      9  F   UNL     1      -1.913  14.672  20.402  0.00  0.00    +0.000 F 
ATOM     10  F   UNL     1       0.227  14.645  20.703  0.00  0.00    +0.000 F 
ENDBRANCH   2   7
BRANCH   6  11
ATOM     11  C   UNL     1      -0.167   9.467  22.226  0.00  0.00    +0.000 C 
ATOM     12  F   UNL     1      -0.874   9.643  23.375  0.00  0.00    +0.000 F 
ATOM     13  F   UNL     1      -0.334   8.157  21.885  0.00  0.00    +0.000 F 
ATOM     14  F   UNL     1       1.146   9.578  22.591  0.00  0.00    +0.000 F 
ENDBRANCH   6  11
BRANCH   1  15
ATOM     15  O   UNL     1      -0.403  12.283  22.487  0.00  0.00    +0.000 OA
BRANCH  15  22
ATOM     16  C   UNL     1      -2.405  16.227  24.702  0.00  0.00    +0.000 A 
ATOM     17  C   UNL     1      -3.751  16.410  24.969  0.00  0.00    +0.000 A 
ATOM     18  N   UNL     1      -4.414  15.249  24.684  0.00  0.00    +0.000 N 
ATOM     19  C   UNL     1      -3.532  14.290  24.248  0.00  0.00    +0.000 A 
ATOM     20  C   UNL     1      -3.757  12.956  23.885  0.00  0.00    +0.000 A 
ATOM     21  C   UNL     1      -2.672  12.224  23.390  0.00  0.00    +0.000 A 
ATOM     22  C   UNL     1      -1.436  12.841  23.195  0.00  0.00    +0.000 A 
ATOM     23  C   UNL     1      -1.199  14.137  23.679  0.00  0.00    +0.000 A 
ATOM     24  C   UNL     1      -2.273  14.889  24.199  0.00  0.00    +0.000 A 
ATOM     25  H   UNL     1      -5.411  15.110  24.777  0.00  0.00    +0.000 HD
BRANCH  16  27
ATOM     26  C   UNL     1      -1.054  18.054  23.622  0.00  0.00    +0.000 C 
ATOM     27  C   UNL     1      -1.296  17.231  24.888  0.00  0.00    +0.000 C 
ATOM     28  C   UNL     1      -1.550  18.157  26.081  0.00  0.00    +0.000 C 
ENDBRANCH  16  27
ENDBRANCH  15  22
ENDBRANCH   1  15
BRANCH   4  29
ATOM     29  C   UNL     1      -1.191   9.928  17.326  0.00  0.00    +0.000 C 
BRANCH  29  30
ATOM     30  C   UNL     1      -2.676   9.782  16.976  0.00  0.00    +0.000 C 
BRANCH  30  31
ATOM     31  C   UNL     1      -3.025  10.492  15.695  0.00  0.00    +0.000 C 
ATOM     32  O   UNL     1      -3.797  10.077  14.849  0.00  0.00    +0.000 OA
BRANCH  31  33
ATOM     33  O   UNL     1      -2.388  11.680  15.577  0.00  0.00    +0.000 OA
ATOM     34  H   UNL     1      -2.786  12.402  16.102  0.00  0.00    +0.000 HD
ENDBRANCH  31  33
ENDBRANCH  30  31
ENDBRANCH  29  30
ENDBRANCH   4  29
TORSDOF 9
ENDMDL
MODEL 9
REMARK VINA RESULT:      -7.0      0.362      3.257
REMARK  Name = 
REMARK  11 active torsions:
REMARK  status: ('A' for Active; 'I' for Inactive)
REMARK    1  A    between atoms: C_1  and  C_2
REMARK    2  A    between atoms: C_2  and  C_3
REMARK    3  A    between atoms: C_2  and  C_4
REMARK    4  A    between atoms: C_10  and  O_11
REMARK    5  A    between atoms: O_11  and  C_12
REMARK    6  A    between atoms: C_13  and  C_14
REMARK    7  A    between atoms: C_19  and  C_20
REMARK    8  A    between atoms: C_20  and  C_21
REMARK    9  A    between atoms: C_21  and  C_22
REMARK   10  A    between atoms: C_22  and  O_24
REMARK   11  A    between atoms: C_26  and  C_27
REMARK                            x       y       z     vdW  Elec       q    Type
REMARK                         _______ _______ _______ _____ _____    ______ ____
ROOT
ATOM      1  C   UNL     1       4.263   5.510  17.957  0.00  0.00    +0.000 A 
ATOM      2  C   UNL     1       3.491   4.444  17.457  0.00  0.00    +0.000 A 
ATOM      3  C   UNL     1       4.048   3.615  16.460  0.00  0.00    +0.000 A 
ATOM      4  C   UNL     1       5.260   3.901  15.838  0.00  0.00    +0.000 A 
ATOM      5  C   UNL     1       5.976   5.012  16.275  0.00  0.00    +0.000 A 
ATOM      6  C   UNL     1       5.497   5.827  17.329  0.00  0.00    +0.000 A 
ENDROOT
BRANCH   2   7
ATOM      7  C   UNL     1       2.075   4.061  17.845  0.00  0.00    +0.000 C 
ATOM      8  F   UNL     1       1.729   4.250  19.140  0.00  0.00    +0.000 F 
ATOM      9  F   UNL     1       1.159   4.804  17.145  0.00  0.00    +0.000 F 
ATOM     10  F   UNL     1       1.782   2.770  17.522  0.00  0.00    +0.000 F 
ENDBRANCH   2   7
BRANCH   6  11
ATOM     11  C   UNL     1       6.355   7.020  17.702  0.00  0.00    +0.000 C 
ATOM     12  F   UNL     1       7.389   7.307  16.866  0.00  0.00    +0.000 F 
ATOM     13  F   UNL     1       5.621   8.167  17.790  0.00  0.00    +0.000 F 
ATOM     14  F   UNL     1       6.923   6.863  18.936  0.00  0.00    +0.000 F 
ENDBRANCH   6  11
BRANCH   1  15
ATOM     15  O   UNL     1       3.907   6.367  18.980  0.00  0.00    +0.000 OA
BRANCH  15  22
ATOM     16  C   UNL     1       0.555   9.438  20.930  0.00  0.00    +0.000 A 
ATOM     17  C   UNL     1      -0.014  10.527  20.293  0.00  0.00    +0.000 A 
ATOM     18  N   UNL     1       0.366  10.511  18.979  0.00  0.00    +0.000 N 
ATOM     19  C   UNL     1       1.164   9.421  18.727  0.00  0.00    +0.000 A 
ATOM     20  C   UNL     1       1.744   8.988  17.528  0.00  0.00    +0.000 A 
ATOM     21  C   UNL     1       2.592   7.876  17.580  0.00  0.00    +0.000 A 
ATOM     22  C   UNL     1       2.902   7.283  18.804  0.00  0.00    +0.000 A 
ATOM     23  C   UNL     1       2.217   7.652  19.972  0.00  0.00    +0.000 A 
ATOM     24  C   UNL     1       1.343   8.758  19.941  0.00  0.00    +0.000 A 
ATOM     25  H   UNL     1       0.102  11.200  18.289  0.00  0.00    +0.000 HD
BRANCH  16  27
ATOM     26  C   UNL     1       1.695   9.215  23.162  0.00  0.00    +0.000 C 
ATOM     27  C   UNL     1       0.393   9.044  22.377  0.00  0.00    +0.000 C 
ATOM     28  C   UNL     1      -0.743   9.810  23.060  0.00  0.00    +0.000 C 
ENDBRANCH  16  27
ENDBRANCH  15  22
ENDBRANCH   1  15
BRANCH   4  29
ATOM     29  C   UNL     1       5.739   3.039  14.694  0.00  0.00    +0.000 C 
BRANCH  29  30
ATOM     30  C   UNL     1       5.953   3.867  13.422  0.00  0.00    +0.000 C 
BRANCH  30  31
ATOM     31  C   UNL     1       5.480   3.141  12.191  0.00  0.00    +0.000 C 
ATOM     32  O   UNL     1       4.465   3.399  11.569  0.00  0.00    +0.000 OA
BRANCH  31  33
ATOM     33  O   UNL     1       6.325   2.149  11.825  0.00  0.00    +0.000 OA
ATOM     34  H   UNL     1       7.258   2.429  11.742  0.00  0.00    +0.000 HD
ENDBRANCH  31  33
ENDBRANCH  30  31
ENDBRANCH  29  30
ENDBRANCH   4  29
TORSDOF 9
ENDMDL
