MODEL 1
REMARK VINA RESULT:      -8.7      0.000      0.000
REMARK  Name = 
REMARK  9 active torsions:
REMARK  status: ('A' for Active; 'I' for Inactive)
REMARK    1  A    between atoms: C_1  and  C_2
REMARK    2  A    between atoms: C_5  and  N_6
REMARK    3  A    between atoms: C_7  and  C_9
REMARK    4  A    between atoms: C_9  and  O_10
REMARK    5  A    between atoms: O_10  and  C_11
REMARK    6  A    between atoms: C_11  and  C_13
REMARK    7  A    between atoms: C_15  and  O_16
REMARK    8  A    between atoms: N_18  and  S_19
REMARK    9  A    between atoms: S_19  and  C_22
REMARK                            x       y       z     vdW  Elec       q    Type
REMARK                         _______ _______ _______ _____ _____    ______ ____
ROOT
ATOM      1  C   UNL     1       2.293   5.353  18.532  0.00  0.00    +0.000 C 
ATOM      2  C   UNL     1       1.698   5.284  19.943  0.00  0.00    +0.000 C 
ATOM      3  C   UNL     1       1.617   3.794  20.268  0.00  0.00    +0.000 C 
ATOM      4  C   UNL     1       2.316   3.071  19.104  0.00  0.00    +0.000 C 
ATOM      5  N   UNL     1       3.144   4.114  18.422  0.00  0.00    +0.000 NA
ENDROOT
BRANCH   5   6
ATOM      6  S   UNL     1       4.748   4.245  19.022  0.00  0.00    +0.000 S 
ATOM      7  O   UNL     1       4.845   5.449  19.815  0.00  0.00    +0.000 OA
ATOM      8  O   UNL     1       5.100   2.958  19.581  0.00  0.00    +0.000 OA
BRANCH   6   9
ATOM      9  C   UNL     1       5.732   4.509  17.554  0.00  0.00    +0.000 A 
ATOM     10  C   UNL     1       6.909   5.268  17.608  0.00  0.00    +0.000 A 
ATOM     11  C   UNL     1       7.617   5.532  16.430  0.00  0.00    +0.000 A 
ATOM     12  C   UNL     1       7.148   5.045  15.209  0.00  0.00    +0.000 A 
ATOM     13  C   UNL     1       5.986   4.267  15.170  0.00  0.00    +0.000 A 
ATOM     14  C   UNL     1       5.257   4.024  16.334  0.00  0.00    +0.000 A 
ATOM     15  O   UNL     1       5.498   3.714  14.014  0.00  0.00    +0.000 OA
ATOM     16  C   UNL     1       6.505   3.689  12.995  0.00  0.00    +0.000 C 
ATOM     17  C   UNL     1       7.174   5.049  12.883  0.00  0.00    +0.000 C 
ATOM     18  O   UNL     1       7.878   5.363  14.093  0.00  0.00    +0.000 OA
ENDBRANCH   6   9
ENDBRANCH   5   6
BRANCH   1  19
ATOM     19  C   UNL     1       2.862   6.721  18.201  0.00  0.00    +0.000 C 
ATOM     20  O   UNL     1       3.643   6.958  17.285  0.00  0.00    +0.000 OA
BRANCH  19  21
ATOM     21  O   UNL     1       2.483   7.644  19.126  0.00  0.00    +0.000 OA
BRANCH  21  22
ATOM     22  C   UNL     1       2.043   8.894  18.596  0.00  0.00    +0.000 C 
BRANCH  22  24
ATOM     23  N   UNL     1      -0.107   9.855  17.883  0.00  0.00    +0.000 N 
ATOM     24  C   UNL     1       0.626   9.372  18.956  0.00  0.00    +0.000 C 
ATOM     25  O   UNL     1       0.229   9.275  20.116  0.00  0.00    +0.000 OA
ATOM     26  H   UNL     1       0.375   9.886  16.984  0.00  0.00    +0.000 HD
BRANCH  23  31
ATOM     27  C   UNL     1      -5.380  12.107  17.600  0.00  0.00    +0.000 C 
ATOM     28  C   UNL     1      -4.028  11.474  17.757  0.00  0.00    +0.000 A 
ATOM     29  C   UNL     1      -3.076  12.030  18.615  0.00  0.00    +0.000 A 
ATOM     30  C   UNL     1      -1.788  11.489  18.697  0.00  0.00    +0.000 A 
ATOM     31  C   UNL     1      -1.417  10.388  17.920  0.00  0.00    +0.000 A 
ATOM     32  C   UNL     1      -2.392   9.795  17.108  0.00  0.00    +0.000 A 
ATOM     33  C   UNL     1      -3.684  10.335  17.022  0.00  0.00    +0.000 A 
ENDBRANCH  23  31
ENDBRANCH  22  24
ENDBRANCH  21  22
ENDBRANCH  19  21
ENDBRANCH   1  19
BRANCH   3  34
ATOM     34  O   UNL     1       0.265   3.378  20.418  0.00  0.00    +0.000 OA
ATOM     35  H   UNL     1       0.049   2.720  19.736  0.00  0.00    +0.000 HD
ENDBRANCH   3  34
TORSDOF 8
ENDMDL
MODEL 2
REMARK VINA RESULT:      -8.4      1.851      2.333
REMARK  Name = 
REMARK  9 active torsions:
REMARK  status: ('A' for Active; 'I' for Inactive)
REMARK    1  A    between atoms: C_1  and  C_2
REMARK    2  A    between atoms: C_5  and  N_6
REMARK    3  A    between atoms: C_7  and  C_9
REMARK    4  A    between atoms: C_9  and  O_10
REMARK    5  A    between atoms: O_10  and  C_11
REMARK    6  A    between atoms: C_11  and  C_13
REMARK    7  A    between atoms: C_15  and  O_16
REMARK    8  A    between atoms: N_18  and  S_19
REMARK    9  A    between atoms: S_19  and  C_22
REMARK                            x       y       z     vdW  Elec       q    Type
REMARK                         _______ _______ _______ _____ _____    ______ ____
ROOT
ATOM      1  C   UNL     1       2.148   5.123  18.606  0.00  0.00    +0.000 C 
ATOM      2  C   UNL     1       1.570   4.991  20.019  0.00  0.00    +0.000 C 
ATOM      3  C   UNL     1       1.621   3.496  20.330  0.00  0.00    +0.000 C 
ATOM      4  C   UNL     1       2.372   2.846  19.156  0.00  0.00    +0.000 C 
ATOM      5  N   UNL     1       3.102   3.963  18.479  0.00  0.00    +0.000 NA
ENDROOT
BRANCH   5   6
ATOM      6  S   UNL     1       4.693   4.227  19.070  0.00  0.00    +0.000 S 
ATOM      7  O   UNL     1       4.705   5.463  19.819  0.00  0.00    +0.000 OA
ATOM      8  O   UNL     1       5.133   2.989  19.675  0.00  0.00    +0.000 OA
BRANCH   6   9
ATOM      9  C   UNL     1       5.657   4.506  17.592  0.00  0.00    +0.000 A 
ATOM     10  C   UNL     1       6.803   5.312  17.625  0.00  0.00    +0.000 A 
ATOM     11  C   UNL     1       7.492   5.585  16.439  0.00  0.00    +0.000 A 
ATOM     12  C   UNL     1       7.037   5.057  15.230  0.00  0.00    +0.000 A 
ATOM     13  C   UNL     1       5.908   4.232  15.210  0.00  0.00    +0.000 A 
ATOM     14  C   UNL     1       5.196   3.980  16.384  0.00  0.00    +0.000 A 
ATOM     15  O   UNL     1       5.437   3.639  14.068  0.00  0.00    +0.000 OA
ATOM     16  C   UNL     1       6.439   3.638  13.043  0.00  0.00    +0.000 C 
ATOM     17  C   UNL     1       7.050   5.021  12.904  0.00  0.00    +0.000 C 
ATOM     18  O   UNL     1       7.747   5.386  14.103  0.00  0.00    +0.000 OA
ENDBRANCH   6   9
ENDBRANCH   5   6
BRANCH   1  19
ATOM     19  C   UNL     1       2.596   6.538  18.284  0.00  0.00    +0.000 C 
ATOM     20  O   UNL     1       3.336   6.852  17.357  0.00  0.00    +0.000 OA
BRANCH  19  21
ATOM     21  O   UNL     1       2.159   7.414  19.229  0.00  0.00    +0.000 OA
BRANCH  21  22
ATOM     22  C   UNL     1       2.103   8.779  18.817  0.00  0.00    +0.000 C 
BRANCH  22  24
ATOM     23  N   UNL     1       0.864  10.008  20.551  0.00  0.00    +0.000 N 
ATOM     24  C   UNL     1       0.873   9.607  19.225  0.00  0.00    +0.000 C 
ATOM     25  O   UNL     1       0.019   9.882  18.383  0.00  0.00    +0.000 OA
ATOM     26  H   UNL     1       1.640   9.681  21.128  0.00  0.00    +0.000 HD
BRANCH  23  31
ATOM     27  C   UNL     1      -3.450  12.620  23.294  0.00  0.00    +0.000 C 
ATOM     28  C   UNL     1      -2.268  12.016  22.593  0.00  0.00    +0.000 A 
ATOM     29  C   UNL     1      -1.976  12.353  21.270  0.00  0.00    +0.000 A 
ATOM     30  C   UNL     1      -0.925  11.727  20.589  0.00  0.00    +0.000 A 
ATOM     31  C   UNL     1      -0.148  10.746  21.211  0.00  0.00    +0.000 A 
ATOM     32  C   UNL     1      -0.402  10.456  22.557  0.00  0.00    +0.000 A 
ATOM     33  C   UNL     1      -1.456  11.081  23.241  0.00  0.00    +0.000 A 
ENDBRANCH  23  31
ENDBRANCH  22  24
ENDBRANCH  21  22
ENDBRANCH  19  21
ENDBRANCH   1  19
BRANCH   3  34
ATOM     34  O   UNL     1       0.311   2.964  20.484  0.00  0.00    +0.000 OA
ATOM     35  H   UNL     1       0.100   2.886  21.430  0.00  0.00    +0.000 HD
ENDBRANCH   3  34
TORSDOF 8
ENDMDL
MODEL 3
REMARK VINA RESULT:      -8.3      2.342      2.753
REMARK  Name = 
REMARK  9 active torsions:
REMARK  status: ('A' for Active; 'I' for Inactive)
REMARK    1  A    between atoms: C_1  and  C_2
REMARK    2  A    between atoms: C_5  and  N_6
REMARK    3  A    between atoms: C_7  and  C_9
REMARK    4  A    between atoms: C_9  and  O_10
REMARK    5  A    between atoms: O_10  and  C_11
REMARK    6  A    between atoms: C_11  and  C_13
REMARK    7  A    between atoms: C_15  and  O_16
REMARK    8  A    between atoms: N_18  and  S_19
REMARK    9  A    between atoms: S_19  and  C_22
REMARK                            x       y       z     vdW  Elec       q    Type
REMARK                         _______ _______ _______ _____ _____    ______ ____
ROOT
ATOM      1  C   UNL     1       2.076   4.965  18.771  0.00  0.00    +0.000 C 
ATOM      2  C   UNL     1       1.484   4.648  20.148  0.00  0.00    +0.000 C 
ATOM      3  C   UNL     1       1.550   3.126  20.268  0.00  0.00    +0.000 C 
ATOM      4  C   UNL     1       2.323   2.639  19.031  0.00  0.00    +0.000 C 
ATOM      5  N   UNL     1       3.046   3.842  18.510  0.00  0.00    +0.000 NA
ENDROOT
BRANCH   5   6
ATOM      6  S   UNL     1       4.627   4.047  19.152  0.00  0.00    +0.000 S 
ATOM      7  O   UNL     1       4.651   5.262  19.933  0.00  0.00    +0.000 OA
ATOM      8  O   UNL     1       5.017   2.781  19.735  0.00  0.00    +0.000 OA
BRANCH   6   9
ATOM      9  C   UNL     1       5.639   4.336  17.708  0.00  0.00    +0.000 A 
ATOM     10  C   UNL     1       6.868   5.000  17.817  0.00  0.00    +0.000 A 
ATOM     11  C   UNL     1       7.602   5.291  16.662  0.00  0.00    +0.000 A 
ATOM     12  C   UNL     1       7.109   4.923  15.410  0.00  0.00    +0.000 A 
ATOM     13  C   UNL     1       5.893   4.237  15.314  0.00  0.00    +0.000 A 
ATOM     14  C   UNL     1       5.140   3.970  16.457  0.00  0.00    +0.000 A 
ATOM     15  O   UNL     1       5.375   3.801  14.122  0.00  0.00    +0.000 OA
ATOM     16  C   UNL     1       6.386   3.771  13.106  0.00  0.00    +0.000 C 
ATOM     17  C   UNL     1       7.153   5.082  13.089  0.00  0.00    +0.000 C 
ATOM     18  O   UNL     1       7.869   5.262  14.319  0.00  0.00    +0.000 OA
ENDBRANCH   6   9
ENDBRANCH   5   6
BRANCH   1  19
ATOM     19  C   UNL     1       2.509   6.414  18.638  0.00  0.00    +0.000 C 
ATOM     20  O   UNL     1       3.171   6.872  17.712  0.00  0.00    +0.000 OA
BRANCH  19  21
ATOM     21  O   UNL     1       2.162   7.130  19.741  0.00  0.00    +0.000 OA
BRANCH  21  22
ATOM     22  C   UNL     1       1.775   8.481  19.496  0.00  0.00    +0.000 C 
BRANCH  22  24
ATOM     23  N   UNL     1       0.555  10.461  20.300  0.00  0.00    +0.000 N 
ATOM     24  C   UNL     1       1.201   9.293  20.670  0.00  0.00    +0.000 C 
ATOM     25  O   UNL     1       1.314   8.863  21.817  0.00  0.00    +0.000 OA
ATOM     26  H   UNL     1       0.564  10.687  19.305  0.00  0.00    +0.000 HD
BRANCH  23  31
ATOM     27  C   UNL     1      -1.447  14.388  23.978  0.00  0.00    +0.000 C 
ATOM     28  C   UNL     1      -1.002  13.378  22.961  0.00  0.00    +0.000 A 
ATOM     29  C   UNL     1      -1.533  12.086  22.962  0.00  0.00    +0.000 A 
ATOM     30  C   UNL     1      -1.057  11.119  22.068  0.00  0.00    +0.000 A 
ATOM     31  C   UNL     1      -0.036  11.416  21.161  0.00  0.00    +0.000 A 
ATOM     32  C   UNL     1       0.450  12.729  21.120  0.00  0.00    +0.000 A 
ATOM     33  C   UNL     1      -0.025  13.700  22.015  0.00  0.00    +0.000 A 
ENDBRANCH  23  31
ENDBRANCH  22  24
ENDBRANCH  21  22
ENDBRANCH  19  21
ENDBRANCH   1  19
BRANCH   3  34
ATOM     34  O   UNL     1       0.245   2.564  20.336  0.00  0.00    +0.000 OA
ATOM     35  H   UNL     1      -0.299   2.917  19.612  0.00  0.00    +0.000 HD
ENDBRANCH   3  34
TORSDOF 8
ENDMDL
MODEL 4
REMARK VINA RESULT:      -8.3      1.397      1.944
REMARK  Name = 
REMARK  9 active torsions:
REMARK  status: ('A' for Active; 'I' for Inactive)
REMARK    1  A    between atoms: C_1  and  C_2
REMARK    2  A    between atoms: C_5  and  N_6
REMARK    3  A    between atoms: C_7  and  C_9
REMARK    4  A    between atoms: C_9  and  O_10
REMARK    5  A    between atoms: O_10  and  C_11
REMARK    6  A    between atoms: C_11  and  C_13
REMARK    7  A    between atoms: C_15  and  O_16
REMARK    8  A    between atoms: N_18  and  S_19
REMARK    9  A    between atoms: S_19  and  C_22
REMARK                            x       y       z     vdW  Elec       q    Type
REMARK                         _______ _______ _______ _____ _____    ______ ____
ROOT
ATOM      1  C   UNL     1       1.823   4.549  18.501  0.00  0.00    +0.000 C 
ATOM      2  C   UNL     1       1.299   3.652  19.626  0.00  0.00    +0.000 C 
ATOM      3  C   UNL     1       1.597   2.225  19.169  0.00  0.00    +0.000 C 
ATOM      4  C   UNL     1       2.425   2.361  17.879  0.00  0.00    +0.000 C 
ATOM      5  N   UNL     1       2.951   3.762  17.886  0.00  0.00    +0.000 NA
ENDROOT
BRANCH   5   6
ATOM      6  S   UNL     1       4.488   3.934  18.635  0.00  0.00    +0.000 S 
ATOM      7  O   UNL     1       4.460   5.110  19.474  0.00  0.00    +0.000 OA
ATOM      8  O   UNL     1       4.843   2.642  19.179  0.00  0.00    +0.000 OA
BRANCH   6   9
ATOM      9  C   UNL     1       5.588   4.293  17.273  0.00  0.00    +0.000 A 
ATOM     10  C   UNL     1       6.764   5.028  17.477  0.00  0.00    +0.000 A 
ATOM     11  C   UNL     1       7.565   5.370  16.383  0.00  0.00    +0.000 A 
ATOM     12  C   UNL     1       7.191   4.983  15.096  0.00  0.00    +0.000 A 
ATOM     13  C   UNL     1       6.029   4.227  14.905  0.00  0.00    +0.000 A 
ATOM     14  C   UNL     1       5.207   3.908  15.987  0.00  0.00    +0.000 A 
ATOM     15  O   UNL     1       5.630   3.770  13.676  0.00  0.00    +0.000 OA
ATOM     16  C   UNL     1       6.715   3.807  12.740  0.00  0.00    +0.000 C 
ATOM     17  C   UNL     1       7.402   5.161  12.786  0.00  0.00    +0.000 C 
ATOM     18  O   UNL     1       8.010   5.373  14.067  0.00  0.00    +0.000 OA
ENDBRANCH   6   9
ENDBRANCH   5   6
BRANCH   1  19
ATOM     19  C   UNL     1       2.029   5.987  18.944  0.00  0.00    +0.000 C 
ATOM     20  O   UNL     1       2.002   6.379  20.106  0.00  0.00    +0.000 OA
BRANCH  19  21
ATOM     21  O   UNL     1       2.137   6.817  17.871  0.00  0.00    +0.000 OA
BRANCH  21  22
ATOM     22  C   UNL     1       2.793   8.058  18.124  0.00  0.00    +0.000 C 
BRANCH  22  24
ATOM     23  N   UNL     1       0.876   9.264  19.085  0.00  0.00    +0.000 N 
ATOM     24  C   UNL     1       1.931   9.331  18.190  0.00  0.00    +0.000 C 
ATOM     25  O   UNL     1       2.232  10.304  17.500  0.00  0.00    +0.000 OA
ATOM     26  H   UNL     1       0.750   8.376  19.570  0.00  0.00    +0.000 HD
BRANCH  23  31
ATOM     27  C   UNL     1      -3.164  13.105  20.457  0.00  0.00    +0.000 C 
ATOM     28  C   UNL     1      -2.070  12.167  20.037  0.00  0.00    +0.000 A 
ATOM     29  C   UNL     1      -2.170  11.444  18.847  0.00  0.00    +0.000 A 
ATOM     30  C   UNL     1      -1.190  10.506  18.498  0.00  0.00    +0.000 A 
ATOM     31  C   UNL     1      -0.096  10.264  19.331  0.00  0.00    +0.000 A 
ATOM     32  C   UNL     1       0.035  11.036  20.493  0.00  0.00    +0.000 A 
ATOM     33  C   UNL     1      -0.946  11.975  20.846  0.00  0.00    +0.000 A 
ENDBRANCH  23  31
ENDBRANCH  22  24
ENDBRANCH  21  22
ENDBRANCH  19  21
ENDBRANCH   1  19
BRANCH   3  34
ATOM     34  O   UNL     1       0.394   1.497  18.956  0.00  0.00    +0.000 OA
ATOM     35  H   UNL     1      -0.104   1.899  18.224  0.00  0.00    +0.000 HD
ENDBRANCH   3  34
TORSDOF 8
ENDMDL
MODEL 5
REMARK VINA RESULT:      -8.3      2.804      8.629
REMARK  Name = 
REMARK  9 active torsions:
REMARK  status: ('A' for Active; 'I' for Inactive)
REMARK    1  A    between atoms: C_1  and  C_2
REMARK    2  A    between atoms: C_5  and  N_6
REMARK    3  A    between atoms: C_7  and  C_9
REMARK    4  A    between atoms: C_9  and  O_10
REMARK    5  A    between atoms: O_10  and  C_11
REMARK    6  A    between atoms: C_11  and  C_13
REMARK    7  A    between atoms: C_15  and  O_16
REMARK    8  A    between atoms: N_18  and  S_19
REMARK    9  A    between atoms: S_19  and  C_22
REMARK                            x       y       z     vdW  Elec       q    Type
REMARK                         _______ _______ _______ _____ _____    ______ ____
ROOT
ATOM      1  C   UNL     1       3.736   4.258  20.002  0.00  0.00    +0.000 C 
ATOM      2  C   UNL     1       2.677   3.193  19.697  0.00  0.00    +0.000 C 
ATOM      3  C   UNL     1       1.369   3.766  20.238  0.00  0.00    +0.000 C 
ATOM      4  C   UNL     1       1.692   5.201  20.687  0.00  0.00    +0.000 C 
ATOM      5  N   UNL     1       2.973   5.558  20.001  0.00  0.00    +0.000 NA
ENDROOT
BRANCH   5   6
ATOM      6  S   UNL     1       2.769   6.311  18.471  0.00  0.00    +0.000 S 
ATOM      7  O   UNL     1       4.074   6.628  17.937  0.00  0.00    +0.000 OA
ATOM      8  O   UNL     1       1.837   5.500  17.718  0.00  0.00    +0.000 OA
BRANCH   6   9
ATOM      9  C   UNL     1       1.976   7.863  18.862  0.00  0.00    +0.000 A 
ATOM     10  C   UNL     1       1.816   8.853  17.882  0.00  0.00    +0.000 A 
ATOM     11  C   UNL     1       1.269  10.092  18.233  0.00  0.00    +0.000 A 
ATOM     12  C   UNL     1       0.890  10.340  19.552  0.00  0.00    +0.000 A 
ATOM     13  C   UNL     1       1.030   9.337  20.518  0.00  0.00    +0.000 A 
ATOM     14  C   UNL     1       1.602   8.109  20.184  0.00  0.00    +0.000 A 
ATOM     15  O   UNL     1       0.630   9.494  21.820  0.00  0.00    +0.000 OA
ATOM     16  C   UNL     1      -0.277  10.597  21.946  0.00  0.00    +0.000 C 
ATOM     17  C   UNL     1       0.282  11.820  21.240  0.00  0.00    +0.000 C 
ATOM     18  O   UNL     1       0.385  11.584  19.830  0.00  0.00    +0.000 OA
ENDBRANCH   6   9
ENDBRANCH   5   6
BRANCH   1  19
ATOM     19  C   UNL     1       4.993   4.092  19.168  0.00  0.00    +0.000 C 
ATOM     20  O   UNL     1       5.077   3.429  18.139  0.00  0.00    +0.000 OA
BRANCH  19  21
ATOM     21  O   UNL     1       6.059   4.687  19.770  0.00  0.00    +0.000 OA
BRANCH  21  22
ATOM     22  C   UNL     1       6.870   5.494  18.917  0.00  0.00    +0.000 C 
BRANCH  22  24
ATOM     23  N   UNL     1       6.470   5.368  16.492  0.00  0.00    +0.000 N 
ATOM     24  C   UNL     1       7.259   4.925  17.541  0.00  0.00    +0.000 C 
ATOM     25  O   UNL     1       8.225   4.169  17.448  0.00  0.00    +0.000 OA
ATOM     26  H   UNL     1       5.693   5.981  16.738  0.00  0.00    +0.000 HD
BRANCH  23  31
ATOM     27  C   UNL     1       6.947   3.423  11.112  0.00  0.00    +0.000 C 
ATOM     28  C   UNL     1       6.779   4.011  12.482  0.00  0.00    +0.000 A 
ATOM     29  C   UNL     1       7.670   4.975  12.958  0.00  0.00    +0.000 A 
ATOM     30  C   UNL     1       7.564   5.461  14.267  0.00  0.00    +0.000 A 
ATOM     31  C   UNL     1       6.572   4.990  15.131  0.00  0.00    +0.000 A 
ATOM     32  C   UNL     1       5.641   4.071  14.632  0.00  0.00    +0.000 A 
ATOM     33  C   UNL     1       5.747   3.581  13.321  0.00  0.00    +0.000 A 
ENDBRANCH  23  31
ENDBRANCH  22  24
ENDBRANCH  21  22
ENDBRANCH  19  21
ENDBRANCH   1  19
BRANCH   3  34
ATOM     34  O   UNL     1       0.871   2.973  21.309  0.00  0.00    +0.000 OA
ATOM     35  H   UNL     1       1.609   2.686  21.872  0.00  0.00    +0.000 HD
ENDBRANCH   3  34
TORSDOF 8
ENDMDL
MODEL 6
REMARK VINA RESULT:      -8.1      4.283      8.703
REMARK  Name = 
REMARK  9 active torsions:
REMARK  status: ('A' for Active; 'I' for Inactive)
REMARK    1  A    between atoms: C_1  and  C_2
REMARK    2  A    between atoms: C_5  and  N_6
REMARK    3  A    between atoms: C_7  and  C_9
REMARK    4  A    between atoms: C_9  and  O_10
REMARK    5  A    between atoms: O_10  and  C_11
REMARK    6  A    between atoms: C_11  and  C_13
REMARK    7  A    between atoms: C_15  and  O_16
REMARK    8  A    between atoms: N_18  and  S_19
REMARK    9  A    between atoms: S_19  and  C_22
REMARK                            x       y       z     vdW  Elec       q    Type
REMARK                         _______ _______ _______ _____ _____    ______ ____
ROOT
ATOM      1  C   UNL     1       5.296   4.838  19.312  0.00  0.00    +0.000 C 
ATOM      2  C   UNL     1       4.887   3.389  19.027  0.00  0.00    +0.000 C 
ATOM      3  C   UNL     1       3.554   3.203  19.749  0.00  0.00    +0.000 C 
ATOM      4  C   UNL     1       3.167   4.592  20.284  0.00  0.00    +0.000 C 
ATOM      5  N   UNL     1       3.991   5.567  19.502  0.00  0.00    +0.000 NA
ENDROOT
BRANCH   5   6
ATOM      6  S   UNL     1       3.233   6.143  18.071  0.00  0.00    +0.000 S 
ATOM      7  O   UNL     1       4.255   6.636  17.177  0.00  0.00    +0.000 OA
ATOM      8  O   UNL     1       2.301   5.122  17.643  0.00  0.00    +0.000 OA
BRANCH   6   9
ATOM      9  C   UNL     1       2.298   7.561  18.625  0.00  0.00    +0.000 A 
ATOM     10  C   UNL     1       2.017   8.619  17.750  0.00  0.00    +0.000 A 
ATOM     11  C   UNL     1       1.358   9.757  18.229  0.00  0.00    +0.000 A 
ATOM     12  C   UNL     1       0.987   9.835  19.572  0.00  0.00    +0.000 A 
ATOM     13  C   UNL     1       1.249   8.763  20.431  0.00  0.00    +0.000 A 
ATOM     14  C   UNL     1       1.933   7.638  19.970  0.00  0.00    +0.000 A 
ATOM     15  O   UNL     1       0.867   8.752  21.748  0.00  0.00    +0.000 OA
ATOM     16  C   UNL     1      -0.142   9.739  21.995  0.00  0.00    +0.000 C 
ATOM     17  C   UNL     1       0.275  11.076  21.406  0.00  0.00    +0.000 C 
ATOM     18  O   UNL     1       0.367  10.990  19.978  0.00  0.00    +0.000 OA
ENDBRANCH   6   9
ENDBRANCH   5   6
BRANCH   1  19
ATOM     19  C   UNL     1       6.342   5.355  18.340  0.00  0.00    +0.000 C 
ATOM     20  O   UNL     1       6.695   4.785  17.313  0.00  0.00    +0.000 OA
BRANCH  19  21
ATOM     21  O   UNL     1       6.927   6.489  18.812  0.00  0.00    +0.000 OA
BRANCH  21  22
ATOM     22  C   UNL     1       7.828   7.131  17.911  0.00  0.00    +0.000 C 
BRANCH  22  24
ATOM     23  N   UNL     1       9.037   9.005  18.952  0.00  0.00    +0.000 N 
ATOM     24  C   UNL     1       8.040   8.648  18.059  0.00  0.00    +0.000 C 
ATOM     25  O   UNL     1       7.364   9.423  17.384  0.00  0.00    +0.000 OA
ATOM     26  H   UNL     1       9.494   8.240  19.449  0.00  0.00    +0.000 HD
BRANCH  23  31
ATOM     27  C   UNL     1      11.028  14.221  20.288  0.00  0.00    +0.000 C 
ATOM     28  C   UNL     1      10.417  12.895  19.938  0.00  0.00    +0.000 A 
ATOM     29  C   UNL     1       9.836  12.096  20.924  0.00  0.00    +0.000 A 
ATOM     30  C   UNL     1       9.343  10.823  20.612  0.00  0.00    +0.000 A 
ATOM     31  C   UNL     1       9.427  10.317  19.313  0.00  0.00    +0.000 A 
ATOM     32  C   UNL     1       9.953  11.145  18.313  0.00  0.00    +0.000 A 
ATOM     33  C   UNL     1      10.449  12.420  18.623  0.00  0.00    +0.000 A 
ENDBRANCH  23  31
ENDBRANCH  22  24
ENDBRANCH  21  22
ENDBRANCH  19  21
ENDBRANCH   1  19
BRANCH   3  34
ATOM     34  O   UNL     1       3.671   2.244  20.793  0.00  0.00    +0.000 OA
ATOM     35  H   UNL     1       3.687   2.699  21.652  0.00  0.00    +0.000 HD
ENDBRANCH   3  34
TORSDOF 8
ENDMDL
MODEL 7
REMARK VINA RESULT:      -8.0      1.368      1.858
REMARK  Name = 
REMARK  9 active torsions:
REMARK  status: ('A' for Active; 'I' for Inactive)
REMARK    1  A    between atoms: C_1  and  C_2
REMARK    2  A    between atoms: C_5  and  N_6
REMARK    3  A    between atoms: C_7  and  C_9
REMARK    4  A    between atoms: C_9  and  O_10
REMARK    5  A    between atoms: O_10  and  C_11
REMARK    6  A    between atoms: C_11  and  C_13
REMARK    7  A    between atoms: C_15  and  O_16
REMARK    8  A    between atoms: N_18  and  S_19
REMARK    9  A    between atoms: S_19  and  C_22
REMARK                            x       y       z     vdW  Elec       q    Type
REMARK                         _______ _______ _______ _____ _____    ______ ____
ROOT
ATOM      1  C   UNL     1       2.277   5.291  18.607  0.00  0.00    +0.000 C 
ATOM      2  C   UNL     1       1.709   5.153  20.023  0.00  0.00    +0.000 C 
ATOM      3  C   UNL     1       1.654   3.649  20.284  0.00  0.00    +0.000 C 
ATOM      4  C   UNL     1       2.342   2.987  19.078  0.00  0.00    +0.000 C 
ATOM      5  N   UNL     1       3.142   4.071  18.427  0.00  0.00    +0.000 NA
ENDROOT
BRANCH   5   6
ATOM      6  S   UNL     1       4.756   4.198  19.004  0.00  0.00    +0.000 S 
ATOM      7  O   UNL     1       4.865   5.401  19.798  0.00  0.00    +0.000 OA
ATOM      8  O   UNL     1       5.114   2.910  19.555  0.00  0.00    +0.000 OA
BRANCH   6   9
ATOM      9  C   UNL     1       5.718   4.464  17.522  0.00  0.00    +0.000 A 
ATOM     10  C   UNL     1       6.910   5.200  17.565  0.00  0.00    +0.000 A 
ATOM     11  C   UNL     1       7.602   5.467  16.379  0.00  0.00    +0.000 A 
ATOM     12  C   UNL     1       7.103   5.005  15.161  0.00  0.00    +0.000 A 
ATOM     13  C   UNL     1       5.926   4.249  15.131  0.00  0.00    +0.000 A 
ATOM     14  C   UNL     1       5.213   4.004  16.305  0.00  0.00    +0.000 A 
ATOM     15  O   UNL     1       5.408   3.721  13.977  0.00  0.00    +0.000 OA
ATOM     16  C   UNL     1       6.396   3.691  12.940  0.00  0.00    +0.000 C 
ATOM     17  C   UNL     1       7.088   5.040  12.835  0.00  0.00    +0.000 C 
ATOM     18  O   UNL     1       7.818   5.325  14.035  0.00  0.00    +0.000 OA
ENDBRANCH   6   9
ENDBRANCH   5   6
BRANCH   1  19
ATOM     19  C   UNL     1       2.822   6.680  18.327  0.00  0.00    +0.000 C 
ATOM     20  O   UNL     1       3.598   6.965  17.419  0.00  0.00    +0.000 OA
BRANCH  19  21
ATOM     21  O   UNL     1       2.427   7.562  19.284  0.00  0.00    +0.000 OA
BRANCH  21  22
ATOM     22  C   UNL     1       1.805   8.751  18.800  0.00  0.00    +0.000 C 
BRANCH  22  24
ATOM     23  N   UNL     1       0.468  10.758  19.290  0.00  0.00    +0.000 N 
ATOM     24  C   UNL     1       0.867   9.515  19.752  0.00  0.00    +0.000 C 
ATOM     25  O   UNL     1       0.515   8.989  20.807  0.00  0.00    +0.000 OA
ATOM     26  H   UNL     1       0.864  11.059  18.399  0.00  0.00    +0.000 HD
BRANCH  23  31
ATOM     27  C   UNL     1      -2.937  14.746  21.628  0.00  0.00    +0.000 C 
ATOM     28  C   UNL     1      -2.066  13.646  21.094  0.00  0.00    +0.000 A 
ATOM     29  C   UNL     1      -0.762  13.477  21.566  0.00  0.00    +0.000 A 
ATOM     30  C   UNL     1       0.078  12.506  21.007  0.00  0.00    +0.000 A 
ATOM     31  C   UNL     1      -0.360  11.690  19.962  0.00  0.00    +0.000 A 
ATOM     32  C   UNL     1      -1.687  11.819  19.533  0.00  0.00    +0.000 A 
ATOM     33  C   UNL     1      -2.531  12.792  20.090  0.00  0.00    +0.000 A 
ENDBRANCH  23  31
ENDBRANCH  22  24
ENDBRANCH  21  22
ENDBRANCH  19  21
ENDBRANCH   1  19
BRANCH   3  34
ATOM     34  O   UNL     1       0.311   3.208  20.440  0.00  0.00    +0.000 OA
ATOM     35  H   UNL     1      -0.287   3.974  20.428  0.00  0.00    +0.000 HD
ENDBRANCH   3  34
TORSDOF 8
ENDMDL
MODEL 8
REMARK VINA RESULT:      -8.0      2.211      2.922
REMARK  Name = 
REMARK  9 active torsions:
REMARK  status: ('A' for Active; 'I' for Inactive)
REMARK    1  A    between atoms: C_1  and  C_2
REMARK    2  A    between atoms: C_5  and  N_6
REMARK    3  A    between atoms: C_7  and  C_9
REMARK    4  A    between atoms: C_9  and  O_10
REMARK    5  A    between atoms: O_10  and  C_11
REMARK    6  A    between atoms: C_11  and  C_13
REMARK    7  A    between atoms: C_15  and  O_16
REMARK    8  A    between atoms: N_18  and  S_19
REMARK    9  A    between atoms: S_19  and  C_22
REMARK                            x       y       z     vdW  Elec       q    Type
REMARK                         _______ _______ _______ _____ _____    ______ ____
ROOT
ATOM      1  C   UNL     1       2.355   5.438  18.510  0.00  0.00    +0.000 C 
ATOM      2  C   UNL     1       1.779   5.415  19.930  0.00  0.00    +0.000 C 
ATOM      3  C   UNL     1       1.671   3.935  20.292  0.00  0.00    +0.000 C 
ATOM      4  C   UNL     1       2.338   3.169  19.136  0.00  0.00    +0.000 C 
ATOM      5  N   UNL     1       3.177   4.178  18.417  0.00  0.00    +0.000 NA
ENDROOT
BRANCH   5   6
ATOM      6  S   UNL     1       4.793   4.289  18.991  0.00  0.00    +0.000 S 
ATOM      7  O   UNL     1       4.922   5.499  19.769  0.00  0.00    +0.000 OA
ATOM      8  O   UNL     1       5.131   3.002  19.559  0.00  0.00    +0.000 OA
BRANCH   6   9
ATOM      9  C   UNL     1       5.758   4.519  17.505  0.00  0.00    +0.000 A 
ATOM     10  C   UNL     1       6.959   5.241  17.536  0.00  0.00    +0.000 A 
ATOM     11  C   UNL     1       7.653   5.481  16.345  0.00  0.00    +0.000 A 
ATOM     12  C   UNL     1       7.148   5.006  15.135  0.00  0.00    +0.000 A 
ATOM     13  C   UNL     1       5.962   4.265  15.117  0.00  0.00    +0.000 A 
ATOM     14  C   UNL     1       5.247   4.046  16.295  0.00  0.00    +0.000 A 
ATOM     15  O   UNL     1       5.437   3.725  13.972  0.00  0.00    +0.000 OA
ATOM     16  C   UNL     1       6.425   3.666  12.935  0.00  0.00    +0.000 C 
ATOM     17  C   UNL     1       7.133   5.004  12.809  0.00  0.00    +0.000 C 
ATOM     18  O   UNL     1       7.867   5.300  14.004  0.00  0.00    +0.000 OA
ENDBRANCH   6   9
ENDBRANCH   5   6
BRANCH   1  19
ATOM     19  C   UNL     1       2.949   6.784  18.138  0.00  0.00    +0.000 C 
ATOM     20  O   UNL     1       3.860   6.958  17.335  0.00  0.00    +0.000 OA
BRANCH  19  21
ATOM     21  O   UNL     1       2.416   7.779  18.898  0.00  0.00    +0.000 OA
BRANCH  21  22
ATOM     22  C   UNL     1       1.578   8.699  18.199  0.00  0.00    +0.000 C 
BRANCH  22  24
ATOM     23  N   UNL     1       1.735  11.145  17.981  0.00  0.00    +0.000 N 
ATOM     24  C   UNL     1       1.372  10.096  18.810  0.00  0.00    +0.000 C 
ATOM     25  O   UNL     1       0.890  10.200  19.937  0.00  0.00    +0.000 OA
ATOM     26  H   UNL     1       2.138  10.891  17.079  0.00  0.00    +0.000 HD
BRANCH  23  31
ATOM     27  C   UNL     1       1.783  16.660  19.578  0.00  0.00    +0.000 C 
ATOM     28  C   UNL     1       1.746  15.248  19.071  0.00  0.00    +0.000 A 
ATOM     29  C   UNL     1       0.533  14.568  18.942  0.00  0.00    +0.000 A 
ATOM     30  C   UNL     1       0.506  13.224  18.550  0.00  0.00    +0.000 A 
ATOM     31  C   UNL     1       1.687  12.527  18.287  0.00  0.00    +0.000 A 
ATOM     32  C   UNL     1       2.898  13.227  18.355  0.00  0.00    +0.000 A 
ATOM     33  C   UNL     1       2.929  14.574  18.749  0.00  0.00    +0.000 A 
ENDBRANCH  23  31
ENDBRANCH  22  24
ENDBRANCH  21  22
ENDBRANCH  19  21
ENDBRANCH   1  19
BRANCH   3  34
ATOM     34  O   UNL     1       0.313   3.553  20.471  0.00  0.00    +0.000 OA
ATOM     35  H   UNL     1       0.272   2.635  20.788  0.00  0.00    +0.000 HD
ENDBRANCH   3  34
TORSDOF 8
ENDMDL
MODEL 9
REMARK VINA RESULT:      -7.9      1.608      1.989
REMARK  Name = 
REMARK  9 active torsions:
REMARK  status: ('A' for Active; 'I' for Inactive)
REMARK    1  A    between atoms: C_1  and  C_2
REMARK    2  A    between atoms: C_5  and  N_6
REMARK    3  A    between atoms: C_7  and  C_9
REMARK    4  A    between atoms: C_9  and  O_10
REMARK    5  A    between atoms: O_10  and  C_11
REMARK    6  A    between atoms: C_11  and  C_13
REMARK    7  A    between atoms: C_15  and  O_16
REMARK    8  A    between atoms: N_18  and  S_19
REMARK    9  A    between atoms: S_19  and  C_22
REMARK                            x       y       z     vdW  Elec       q    Type
REMARK                         _______ _______ _______ _____ _____    ______ ____
ROOT
ATOM      1  C   UNL     1       2.252   5.125  18.545  0.00  0.00    +0.000 C 
ATOM      2  C   UNL     1       1.660   5.072  19.957  0.00  0.00    +0.000 C 
ATOM      3  C   UNL     1       1.646   3.590  20.326  0.00  0.00    +0.000 C 
ATOM      4  C   UNL     1       2.378   2.864  19.184  0.00  0.00    +0.000 C 
ATOM      5  N   UNL     1       3.158   3.923  18.470  0.00  0.00    +0.000 NA
ENDROOT
BRANCH   5   6
ATOM      6  S   UNL     1       4.755   4.144  19.064  0.00  0.00    +0.000 S 
ATOM      7  O   UNL     1       4.796   5.373  19.823  0.00  0.00    +0.000 OA
ATOM      8  O   UNL     1       5.164   2.890  19.659  0.00  0.00    +0.000 OA
BRANCH   6   9
ATOM      9  C   UNL     1       5.725   4.410  17.588  0.00  0.00    +0.000 A 
ATOM     10  C   UNL     1       6.931   5.123  17.643  0.00  0.00    +0.000 A 
ATOM     11  C   UNL     1       7.630   5.392  16.461  0.00  0.00    +0.000 A 
ATOM     12  C   UNL     1       7.125   4.955  15.236  0.00  0.00    +0.000 A 
ATOM     13  C   UNL     1       5.935   4.222  15.195  0.00  0.00    +0.000 A 
ATOM     14  C   UNL     1       5.215   3.975  16.364  0.00  0.00    +0.000 A 
ATOM     15  O   UNL     1       5.409   3.719  14.033  0.00  0.00    +0.000 OA
ATOM     16  C   UNL     1       6.400   3.683  12.998  0.00  0.00    +0.000 C 
ATOM     17  C   UNL     1       7.117   5.020  12.911  0.00  0.00    +0.000 C 
ATOM     18  O   UNL     1       7.850   5.276  14.117  0.00  0.00    +0.000 OA
ENDBRANCH   6   9
ENDBRANCH   5   6
BRANCH   1  19
ATOM     19  C   UNL     1       2.760   6.506  18.173  0.00  0.00    +0.000 C 
ATOM     20  O   UNL     1       3.614   6.741  17.323  0.00  0.00    +0.000 OA
BRANCH  19  21
ATOM     21  O   UNL     1       2.225   7.458  18.984  0.00  0.00    +0.000 OA
BRANCH  21  22
ATOM     22  C   UNL     1       1.935   8.706  18.355  0.00  0.00    +0.000 C 
BRANCH  22  24
ATOM     23  N   UNL     1       0.810  10.892  18.438  0.00  0.00    +0.000 N 
ATOM     24  C   UNL     1       1.108   9.737  19.142  0.00  0.00    +0.000 C 
ATOM     25  O   UNL     1       0.747   9.478  20.289  0.00  0.00    +0.000 OA
ATOM     26  H   UNL     1       1.201  10.963  17.498  0.00  0.00    +0.000 HD
BRANCH  23  31
ATOM     27  C   UNL     1      -1.702  15.600  20.555  0.00  0.00    +0.000 C 
ATOM     28  C   UNL     1      -1.119  14.362  19.939  0.00  0.00    +0.000 A 
ATOM     29  C   UNL     1      -1.583  13.097  20.308  0.00  0.00    +0.000 A 
ATOM     30  C   UNL     1      -0.982  11.940  19.796  0.00  0.00    +0.000 A 
ATOM     31  C   UNL     1       0.098  12.019  18.914  0.00  0.00    +0.000 A 
ATOM     32  C   UNL     1       0.520  13.288  18.497  0.00  0.00    +0.000 A 
ATOM     33  C   UNL     1      -0.079  14.449  19.009  0.00  0.00    +0.000 A 
ENDBRANCH  23  31
ENDBRANCH  22  24
ENDBRANCH  21  22
ENDBRANCH  19  21
ENDBRANCH   1  19
BRANCH   3  34
ATOM     34  O   UNL     1       0.314   3.119  20.490  0.00  0.00    +0.000 OA
ATOM     35  H   UNL     1      -0.036   2.827  19.632  0.00  0.00    +0.000 HD
ENDBRANCH   3  34
TORSDOF 8
ENDMDL
