MODEL 1
REMARK VINA RESULT:      -7.6      0.000      0.000
REMARK  Name = 
REMARK  4 active torsions:
REMARK  status: ('A' for Active; 'I' for Inactive)
REMARK    1  A    between atoms: C_1  and  O_2
REMARK    2  A    between atoms: O_2  and  C_3
REMARK    3  A    between atoms: C_6  and  C_7
REMARK    4  A    between atoms: C_16  and  C_17
REMARK                            x       y       z     vdW  Elec       q    Type
REMARK                         _______ _______ _______ _____ _____    ______ ____
ROOT
ATOM      1  C   UNL     1       2.310   6.995  18.852  0.00  0.00    +0.000 C 
ATOM      2  N   UNL     1       3.444   7.095  18.234  0.00  0.00    +0.000 NA
ATOM      3  N   UNL     1       3.666   5.917  17.565  0.00  0.00    +0.000 N 
ATOM      4  C   UNL     1       4.799   5.616  16.835  0.00  0.00    +0.000 C 
ATOM      5  N   UNL     1       4.926   4.646  15.988  0.00  0.00    +0.000 NA
ATOM      6  C   UNL     1       6.186   4.561  15.447  0.00  0.00    +0.000 C 
ATOM      7  O   UNL     1       6.496   3.743  14.587  0.00  0.00    +0.000 OA
ATOM      8  C   UNL     1       7.189   5.536  16.010  0.00  0.00    +0.000 C 
ATOM      9  S   UNL     1       6.232   6.609  17.087  0.00  0.00    +0.000 S 
ATOM     10  C   UNL     1       2.588   4.946  17.775  0.00  0.00    +0.000 C 
ATOM     11  C   UNL     1       1.599   5.683  18.682  0.00  0.00    +0.000 C 
ENDROOT
BRANCH   1  15
ATOM     12  C   UNL     1       0.693  10.144  21.262  0.00  0.00    +0.000 A 
ATOM     13  C   UNL     1       1.045   8.921  21.833  0.00  0.00    +0.000 A 
ATOM     14  C   UNL     1       1.581   7.901  21.043  0.00  0.00    +0.000 A 
ATOM     15  C   UNL     1       1.751   8.094  19.668  0.00  0.00    +0.000 A 
ATOM     16  C   UNL     1       1.384   9.314  19.092  0.00  0.00    +0.000 A 
ATOM     17  C   UNL     1       0.850  10.334  19.887  0.00  0.00    +0.000 A 
BRANCH  12  19
ATOM     18  C   UNL     1      -0.841  10.578  23.006  0.00  0.00    +0.000 C 
ATOM     19  O   UNL     1       0.165  11.063  22.126  0.00  0.00    +0.000 OA
ENDBRANCH  12  19
ENDBRANCH   1  15
BRANCH  10  20
ATOM     20  C   UNL     1       3.119   3.670  18.409  0.00  0.00    +0.000 A 
ATOM     21  C   UNL     1       3.835   3.697  19.619  0.00  0.00    +0.000 A 
ATOM     22  C   UNL     1       4.398   2.531  20.139  0.00  0.00    +0.000 A 
ATOM     23  C   UNL     1       4.254   1.325  19.458  0.00  0.00    +0.000 A 
ATOM     24  C   UNL     1       3.538   1.280  18.264  0.00  0.00    +0.000 A 
ATOM     25  C   UNL     1       2.970   2.444  17.743  0.00  0.00    +0.000 A 
ENDBRANCH  10  20
TORSDOF 3
ENDMDL
MODEL 2
REMARK VINA RESULT:      -7.6      2.181      7.337
REMARK  Name = 
REMARK  4 active torsions:
REMARK  status: ('A' for Active; 'I' for Inactive)
REMARK    1  A    between atoms: C_1  and  O_2
REMARK    2  A    between atoms: O_2  and  C_3
REMARK    3  A    between atoms: C_6  and  C_7
REMARK    4  A    between atoms: C_16  and  C_17
REMARK                            x       y       z     vdW  Elec       q    Type
REMARK                         _______ _______ _______ _____ _____    ______ ____
ROOT
ATOM      1  C   UNL     1       4.826   5.175  16.851  0.00  0.00    +0.000 C 
ATOM      2  N   UNL     1       4.160   6.268  17.053  0.00  0.00    +0.000 NA
ATOM      3  N   UNL     1       3.638   6.217  18.321  0.00  0.00    +0.000 N 
ATOM      4  C   UNL     1       2.818   7.174  18.885  0.00  0.00    +0.000 C 
ATOM      5  N   UNL     1       2.532   7.290  20.141  0.00  0.00    +0.000 NA
ATOM      6  C   UNL     1       1.649   8.309  20.404  0.00  0.00    +0.000 C 
ATOM      7  O   UNL     1       1.293   8.616  21.538  0.00  0.00    +0.000 OA
ATOM      8  C   UNL     1       1.116   9.021  19.187  0.00  0.00    +0.000 C 
ATOM      9  S   UNL     1       2.048   8.339  17.811  0.00  0.00    +0.000 S 
ATOM     10  C   UNL     1       3.976   4.969  19.012  0.00  0.00    +0.000 C 
ATOM     11  C   UNL     1       4.829   4.204  17.996  0.00  0.00    +0.000 C 
ENDROOT
BRANCH   1  15
ATOM     12  C   UNL     1       6.832   4.347  13.159  0.00  0.00    +0.000 A 
ATOM     13  C   UNL     1       5.539   3.879  13.385  0.00  0.00    +0.000 A 
ATOM     14  C   UNL     1       4.886   4.161  14.588  0.00  0.00    +0.000 A 
ATOM     15  C   UNL     1       5.535   4.900  15.583  0.00  0.00    +0.000 A 
ATOM     16  C   UNL     1       6.837   5.357  15.363  0.00  0.00    +0.000 A 
ATOM     17  C   UNL     1       7.487   5.075  14.156  0.00  0.00    +0.000 A 
BRANCH  12  19
ATOM     18  C   UNL     1       7.033   2.710  11.468  0.00  0.00    +0.000 C 
ATOM     19  O   UNL     1       7.379   4.001  11.954  0.00  0.00    +0.000 OA
ENDBRANCH  12  19
ENDBRANCH   1  15
BRANCH  10  20
ATOM     20  C   UNL     1       2.721   4.207  19.407  0.00  0.00    +0.000 A 
ATOM     21  C   UNL     1       2.426   3.931  20.754  0.00  0.00    +0.000 A 
ATOM     22  C   UNL     1       1.323   3.149  21.095  0.00  0.00    +0.000 A 
ATOM     23  C   UNL     1       0.501   2.631  20.097  0.00  0.00    +0.000 A 
ATOM     24  C   UNL     1       0.773   2.904  18.758  0.00  0.00    +0.000 A 
ATOM     25  C   UNL     1       1.874   3.690  18.414  0.00  0.00    +0.000 A 
ENDBRANCH  10  20
TORSDOF 3
ENDMDL
MODEL 3
REMARK VINA RESULT:      -7.5      0.157      1.374
REMARK  Name = 
REMARK  4 active torsions:
REMARK  status: ('A' for Active; 'I' for Inactive)
REMARK    1  A    between atoms: C_1  and  O_2
REMARK    2  A    between atoms: O_2  and  C_3
REMARK    3  A    between atoms: C_6  and  C_7
REMARK    4  A    between atoms: C_16  and  C_17
REMARK                            x       y       z     vdW  Elec       q    Type
REMARK                         _______ _______ _______ _____ _____    ______ ____
ROOT
ATOM      1  C   UNL     1       2.372   6.896  18.855  0.00  0.00    +0.000 C 
ATOM      2  N   UNL     1       3.477   7.034  18.193  0.00  0.00    +0.000 NA
ATOM      3  N   UNL     1       3.711   5.865  17.513  0.00  0.00    +0.000 N 
ATOM      4  C   UNL     1       4.823   5.602  16.739  0.00  0.00    +0.000 C 
ATOM      5  N   UNL     1       4.949   4.638  15.886  0.00  0.00    +0.000 NA
ATOM      6  C   UNL     1       6.189   4.593  15.296  0.00  0.00    +0.000 C 
ATOM      7  O   UNL     1       6.491   3.787  14.422  0.00  0.00    +0.000 OA
ATOM      8  C   UNL     1       7.181   5.599  15.823  0.00  0.00    +0.000 C 
ATOM      9  S   UNL     1       6.233   6.639  16.938  0.00  0.00    +0.000 S 
ATOM     10  C   UNL     1       2.673   4.860  17.762  0.00  0.00    +0.000 C 
ATOM     11  C   UNL     1       1.697   5.563  18.709  0.00  0.00    +0.000 C 
ENDROOT
BRANCH   1  15
ATOM     12  C   UNL     1       0.740  10.057  21.240  0.00  0.00    +0.000 A 
ATOM     13  C   UNL     1       0.909  10.219  19.866  0.00  0.00    +0.000 A 
ATOM     14  C   UNL     1       1.433   9.181  19.091  0.00  0.00    +0.000 A 
ATOM     15  C   UNL     1       1.810   7.976  19.695  0.00  0.00    +0.000 A 
ATOM     16  C   UNL     1       1.654   7.818  21.075  0.00  0.00    +0.000 A 
ATOM     17  C   UNL     1       1.127   8.859  21.847  0.00  0.00    +0.000 A 
BRANCH  12  19
ATOM     18  C   UNL     1      -0.830  10.872  22.806  0.00  0.00    +0.000 C 
ATOM     19  O   UNL     1       0.233  11.142  21.900  0.00  0.00    +0.000 OA
ENDBRANCH  12  19
ENDBRANCH   1  15
BRANCH  10  20
ATOM     20  C   UNL     1       3.269   3.600  18.372  0.00  0.00    +0.000 A 
ATOM     21  C   UNL     1       3.132   2.349  17.746  0.00  0.00    +0.000 A 
ATOM     22  C   UNL     1       3.600   1.189  18.365  0.00  0.00    +0.000 A 
ATOM     23  C   UNL     1       4.208   1.264  19.615  0.00  0.00    +0.000 A 
ATOM     24  C   UNL     1       4.361   2.498  20.243  0.00  0.00    +0.000 A 
ATOM     25  C   UNL     1       3.898   3.660  19.625  0.00  0.00    +0.000 A 
ENDBRANCH  10  20
TORSDOF 3
ENDMDL
MODEL 4
REMARK VINA RESULT:      -7.4      0.452      1.066
REMARK  Name = 
REMARK  4 active torsions:
REMARK  status: ('A' for Active; 'I' for Inactive)
REMARK    1  A    between atoms: C_1  and  O_2
REMARK    2  A    between atoms: O_2  and  C_3
REMARK    3  A    between atoms: C_6  and  C_7
REMARK    4  A    between atoms: C_16  and  C_17
REMARK                            x       y       z     vdW  Elec       q    Type
REMARK                         _______ _______ _______ _____ _____    ______ ____
ROOT
ATOM      1  C   UNL     1       2.383   6.954  18.824  0.00  0.00    +0.000 C 
ATOM      2  N   UNL     1       3.500   7.083  18.181  0.00  0.00    +0.000 NA
ATOM      3  N   UNL     1       3.736   5.914  17.503  0.00  0.00    +0.000 N 
ATOM      4  C   UNL     1       4.859   5.643  16.747  0.00  0.00    +0.000 C 
ATOM      5  N   UNL     1       4.992   4.679  15.895  0.00  0.00    +0.000 NA
ATOM      6  C   UNL     1       6.241   4.626  15.326  0.00  0.00    +0.000 C 
ATOM      7  O   UNL     1       6.552   3.819  14.455  0.00  0.00    +0.000 OA
ATOM      8  C   UNL     1       7.232   5.624  15.870  0.00  0.00    +0.000 C 
ATOM      9  S   UNL     1       6.273   6.669  16.971  0.00  0.00    +0.000 S 
ATOM     10  C   UNL     1       2.687   4.916  17.733  0.00  0.00    +0.000 C 
ATOM     11  C   UNL     1       1.701   5.626  18.665  0.00  0.00    +0.000 C 
ENDROOT
BRANCH   1  15
ATOM     12  C   UNL     1       0.742  10.054  21.281  0.00  0.00    +0.000 A 
ATOM     13  C   UNL     1       1.119   8.832  21.836  0.00  0.00    +0.000 A 
ATOM     14  C   UNL     1       1.662   7.828  21.030  0.00  0.00    +0.000 A 
ATOM     15  C   UNL     1       1.815   8.036  19.656  0.00  0.00    +0.000 A 
ATOM     16  C   UNL     1       1.424   9.256  19.095  0.00  0.00    +0.000 A 
ATOM     17  C   UNL     1       0.882  10.260  19.906  0.00  0.00    +0.000 A 
BRANCH  12  19
ATOM     18  C   UNL     1      -0.315  12.146  21.579  0.00  0.00    +0.000 C 
ATOM     19  O   UNL     1       0.210  10.957  22.158  0.00  0.00    +0.000 OA
ENDBRANCH  12  19
ENDBRANCH   1  15
BRANCH  10  20
ATOM     20  C   UNL     1       3.263   3.651  18.351  0.00  0.00    +0.000 A 
ATOM     21  C   UNL     1       3.085   2.395  17.748  0.00  0.00    +0.000 A 
ATOM     22  C   UNL     1       3.535   1.233  18.375  0.00  0.00    +0.000 A 
ATOM     23  C   UNL     1       4.168   1.311  19.613  0.00  0.00    +0.000 A 
ATOM     24  C   UNL     1       4.363   2.550  20.220  0.00  0.00    +0.000 A 
ATOM     25  C   UNL     1       3.916   3.714  19.593  0.00  0.00    +0.000 A 
ENDBRANCH  10  20
TORSDOF 3
ENDMDL
MODEL 5
REMARK VINA RESULT:      -7.1      2.183      7.304
REMARK  Name = 
REMARK  4 active torsions:
REMARK  status: ('A' for Active; 'I' for Inactive)
REMARK    1  A    between atoms: C_1  and  O_2
REMARK    2  A    between atoms: O_2  and  C_3
REMARK    3  A    between atoms: C_6  and  C_7
REMARK    4  A    between atoms: C_16  and  C_17
REMARK                            x       y       z     vdW  Elec       q    Type
REMARK                         _______ _______ _______ _____ _____    ______ ____
ROOT
ATOM      1  C   UNL     1       4.731   5.261  17.016  0.00  0.00    +0.000 C 
ATOM      2  N   UNL     1       4.034   6.340  17.180  0.00  0.00    +0.000 NA
ATOM      3  N   UNL     1       3.546   6.336  18.463  0.00  0.00    +0.000 N 
ATOM      4  C   UNL     1       2.708   7.294  19.000  0.00  0.00    +0.000 C 
ATOM      5  N   UNL     1       2.449   7.463  20.256  0.00  0.00    +0.000 NA
ATOM      6  C   UNL     1       1.539   8.465  20.491  0.00  0.00    +0.000 C 
ATOM      7  O   UNL     1       1.200   8.818  21.617  0.00  0.00    +0.000 OA
ATOM      8  C   UNL     1       0.951   9.097  19.254  0.00  0.00    +0.000 C 
ATOM      9  S   UNL     1       1.872   8.376  17.890  0.00  0.00    +0.000 S 
ATOM     10  C   UNL     1       3.943   5.137  19.206  0.00  0.00    +0.000 C 
ATOM     11  C   UNL     1       4.797   4.350  18.207  0.00  0.00    +0.000 C 
ENDROOT
BRANCH   1  15
ATOM     12  C   UNL     1       6.766   4.377  13.352  0.00  0.00    +0.000 A 
ATOM     13  C   UNL     1       7.389   5.129  14.347  0.00  0.00    +0.000 A 
ATOM     14  C   UNL     1       6.723   5.406  15.544  0.00  0.00    +0.000 A 
ATOM     15  C   UNL     1       5.418   4.945  15.745  0.00  0.00    +0.000 A 
ATOM     16  C   UNL     1       4.787   4.203  14.742  0.00  0.00    +0.000 A 
ATOM     17  C   UNL     1       5.457   3.926  13.545  0.00  0.00    +0.000 A 
BRANCH  12  19
ATOM     18  C   UNL     1       7.199   3.003  11.481  0.00  0.00    +0.000 C 
ATOM     19  O   UNL     1       7.504   4.180  12.219  0.00  0.00    +0.000 OA
ENDBRANCH  12  19
ENDBRANCH   1  15
BRANCH  10  20
ATOM     20  C   UNL     1       2.725   4.355  19.672  0.00  0.00    +0.000 A 
ATOM     21  C   UNL     1       2.519   4.062  21.032  0.00  0.00    +0.000 A 
ATOM     22  C   UNL     1       1.450   3.262  21.434  0.00  0.00    +0.000 A 
ATOM     23  C   UNL     1       0.572   2.745  20.484  0.00  0.00    +0.000 A 
ATOM     24  C   UNL     1       0.755   3.035  19.134  0.00  0.00    +0.000 A 
ATOM     25  C   UNL     1       1.823   3.838  18.729  0.00  0.00    +0.000 A 
ENDBRANCH  10  20
TORSDOF 3
ENDMDL
MODEL 6
REMARK VINA RESULT:      -7.0      3.617      9.070
REMARK  Name = 
REMARK  4 active torsions:
REMARK  status: ('A' for Active; 'I' for Inactive)
REMARK    1  A    between atoms: C_1  and  O_2
REMARK    2  A    between atoms: O_2  and  C_3
REMARK    3  A    between atoms: C_6  and  C_7
REMARK    4  A    between atoms: C_16  and  C_17
REMARK                            x       y       z     vdW  Elec       q    Type
REMARK                         _______ _______ _______ _____ _____    ______ ____
ROOT
ATOM      1  C   UNL     1       1.448   8.954  19.053  0.00  0.00    +0.000 C 
ATOM      2  N   UNL     1       0.805   9.153  20.160  0.00  0.00    +0.000 NA
ATOM      3  N   UNL     1       0.056  10.293  20.014  0.00  0.00    +0.000 N 
ATOM      4  C   UNL     1      -0.725  10.866  20.998  0.00  0.00    +0.000 C 
ATOM      5  N   UNL     1      -1.635  11.768  20.822  0.00  0.00    +0.000 NA
ATOM      6  C   UNL     1      -2.217  12.187  21.994  0.00  0.00    +0.000 C 
ATOM      7  O   UNL     1      -3.137  12.998  22.038  0.00  0.00    +0.000 OA
ATOM      8  C   UNL     1      -1.622  11.596  23.248  0.00  0.00    +0.000 C 
ATOM      9  S   UNL     1      -0.452  10.365  22.665  0.00  0.00    +0.000 S 
ATOM     10  C   UNL     1       0.235  10.912  18.697  0.00  0.00    +0.000 C 
ATOM     11  C   UNL     1       1.216   9.979  17.981  0.00  0.00    +0.000 C 
ENDROOT
BRANCH   1  15
ATOM     12  C   UNL     1       4.038   5.583  18.531  0.00  0.00    +0.000 A 
ATOM     13  C   UNL     1       3.207   5.674  19.646  0.00  0.00    +0.000 A 
ATOM     14  C   UNL     1       2.357   6.772  19.806  0.00  0.00    +0.000 A 
ATOM     15  C   UNL     1       2.349   7.798  18.855  0.00  0.00    +0.000 A 
ATOM     16  C   UNL     1       3.193   7.715  17.744  0.00  0.00    +0.000 A 
ATOM     17  C   UNL     1       4.041   6.613  17.586  0.00  0.00    +0.000 A 
BRANCH  12  19
ATOM     18  C   UNL     1       4.359   3.339  19.196  0.00  0.00    +0.000 C 
ATOM     19  O   UNL     1       4.837   4.474  18.484  0.00  0.00    +0.000 OA
ENDBRANCH  12  19
ENDBRANCH   1  15
BRANCH  10  20
ATOM     20  C   UNL     1       0.770  12.329  18.828  0.00  0.00    +0.000 A 
ATOM     21  C   UNL     1       2.047  12.583  19.357  0.00  0.00    +0.000 A 
ATOM     22  C   UNL     1       2.486  13.891  19.560  0.00  0.00    +0.000 A 
ATOM     23  C   UNL     1       1.656  14.962  19.238  0.00  0.00    +0.000 A 
ATOM     24  C   UNL     1       0.393  14.727  18.701  0.00  0.00    +0.000 A 
ATOM     25  C   UNL     1      -0.048  13.420  18.493  0.00  0.00    +0.000 A 
ENDBRANCH  10  20
TORSDOF 3
ENDMDL
MODEL 7
REMARK VINA RESULT:      -7.0      2.234      7.457
REMARK  Name = 
REMARK  4 active torsions:
REMARK  status: ('A' for Active; 'I' for Inactive)
REMARK    1  A    between atoms: C_1  and  O_2
REMARK    2  A    between atoms: O_2  and  C_3
REMARK    3  A    between atoms: C_6  and  C_7
REMARK    4  A    between atoms: C_16  and  C_17
REMARK                            x       y       z     vdW  Elec       q    Type
REMARK                         _______ _______ _______ _____ _____    ______ ____
ROOT
ATOM      1  C   UNL     1       4.812   5.004  16.713  0.00  0.00    +0.000 C 
ATOM      2  N   UNL     1       4.149   6.097  16.922  0.00  0.00    +0.000 NA
ATOM      3  N   UNL     1       3.686   6.070  18.214  0.00  0.00    +0.000 N 
ATOM      4  C   UNL     1       2.887   7.035  18.795  0.00  0.00    +0.000 C 
ATOM      5  N   UNL     1       2.658   7.176  20.060  0.00  0.00    +0.000 NA
ATOM      6  C   UNL     1       1.781   8.196  20.342  0.00  0.00    +0.000 C 
ATOM      7  O   UNL     1       1.475   8.525  21.484  0.00  0.00    +0.000 OA
ATOM      8  C   UNL     1       1.188   8.878  19.135  0.00  0.00    +0.000 C 
ATOM      9  S   UNL     1       2.060   8.172  17.733  0.00  0.00    +0.000 S 
ATOM     10  C   UNL     1       4.064   4.840  18.914  0.00  0.00    +0.000 C 
ATOM     11  C   UNL     1       4.875   4.058  17.877  0.00  0.00    +0.000 C 
ENDROOT
BRANCH   1  15
ATOM     12  C   UNL     1       6.747   4.169  12.985  0.00  0.00    +0.000 A 
ATOM     13  C   UNL     1       7.412   4.871  13.989  0.00  0.00    +0.000 A 
ATOM     14  C   UNL     1       6.778   5.132  15.206  0.00  0.00    +0.000 A 
ATOM     15  C   UNL     1       5.463   4.706  15.419  0.00  0.00    +0.000 A 
ATOM     16  C   UNL     1       4.790   4.015  14.407  0.00  0.00    +0.000 A 
ATOM     17  C   UNL     1       5.428   3.753  13.190  0.00  0.00    +0.000 A 
BRANCH  12  19
ATOM     18  C   UNL     1       7.420   2.669  11.288  0.00  0.00    +0.000 C 
ATOM     19  O   UNL     1       7.456   3.983  11.831  0.00  0.00    +0.000 OA
ENDBRANCH  12  19
ENDBRANCH   1  15
BRANCH  10  20
ATOM     20  C   UNL     1       2.834   4.079  19.384  0.00  0.00    +0.000 A 
ATOM     21  C   UNL     1       1.874   3.606  18.473  0.00  0.00    +0.000 A 
ATOM     22  C   UNL     1       0.704   2.995  18.924  0.00  0.00    +0.000 A 
ATOM     23  C   UNL     1       0.477   2.849  20.290  0.00  0.00    +0.000 A 
ATOM     24  C   UNL     1       1.424   3.302  21.206  0.00  0.00    +0.000 A 
ATOM     25  C   UNL     1       2.597   3.911  20.757  0.00  0.00    +0.000 A 
ENDBRANCH  10  20
TORSDOF 3
ENDMDL
MODEL 8
REMARK VINA RESULT:      -6.9      3.751      9.263
REMARK  Name = 
REMARK  4 active torsions:
REMARK  status: ('A' for Active; 'I' for Inactive)
REMARK    1  A    between atoms: C_1  and  O_2
REMARK    2  A    between atoms: O_2  and  C_3
REMARK    3  A    between atoms: C_6  and  C_7
REMARK    4  A    between atoms: C_16  and  C_17
REMARK                            x       y       z     vdW  Elec       q    Type
REMARK                         _______ _______ _______ _____ _____    ______ ____
ROOT
ATOM      1  C   UNL     1       1.279   9.132  19.171  0.00  0.00    +0.000 C 
ATOM      2  N   UNL     1       0.607   9.318  20.262  0.00  0.00    +0.000 NA
ATOM      3  N   UNL     1      -0.111  10.480  20.123  0.00  0.00    +0.000 N 
ATOM      4  C   UNL     1      -0.909  11.046  21.098  0.00  0.00    +0.000 C 
ATOM      5  N   UNL     1      -1.792  11.974  20.918  0.00  0.00    +0.000 NA
ATOM      6  C   UNL     1      -2.400  12.376  22.083  0.00  0.00    +0.000 C 
ATOM      7  O   UNL     1      -3.303  13.207  22.120  0.00  0.00    +0.000 OA
ATOM      8  C   UNL     1      -1.859  11.739  23.338  0.00  0.00    +0.000 C 
ATOM      9  S   UNL     1      -0.700  10.496  22.759  0.00  0.00    +0.000 S 
ATOM     10  C   UNL     1       0.123  11.127  18.829  0.00  0.00    +0.000 C 
ATOM     11  C   UNL     1       1.104  10.190  18.120  0.00  0.00    +0.000 C 
ENDROOT
BRANCH   1  15
ATOM     12  C   UNL     1       3.843   5.761  18.538  0.00  0.00    +0.000 A 
ATOM     13  C   UNL     1       3.770   6.785  17.595  0.00  0.00    +0.000 A 
ATOM     14  C   UNL     1       2.939   7.887  17.812  0.00  0.00    +0.000 A 
ATOM     15  C   UNL     1       2.159   7.961  18.970  0.00  0.00    +0.000 A 
ATOM     16  C   UNL     1       2.220   6.927  19.910  0.00  0.00    +0.000 A 
ATOM     17  C   UNL     1       3.055   5.826  19.690  0.00  0.00    +0.000 A 
BRANCH  12  19
ATOM     18  C   UNL     1       4.785   3.695  19.190  0.00  0.00    +0.000 C 
ATOM     19  O   UNL     1       4.677   4.726  18.216  0.00  0.00    +0.000 OA
ENDBRANCH  12  19
ENDBRANCH   1  15
BRANCH  10  20
ATOM     20  C   UNL     1       0.687  12.527  19.014  0.00  0.00    +0.000 A 
ATOM     21  C   UNL     1      -0.020  13.664  18.583  0.00  0.00    +0.000 A 
ATOM     22  C   UNL     1       0.551  14.933  18.671  0.00  0.00    +0.000 A 
ATOM     23  C   UNL     1       1.835  15.084  19.189  0.00  0.00    +0.000 A 
ATOM     24  C   UNL     1       2.545  13.969  19.631  0.00  0.00    +0.000 A 
ATOM     25  C   UNL     1       1.974  12.698  19.547  0.00  0.00    +0.000 A 
ENDBRANCH  10  20
TORSDOF 3
ENDMDL
MODEL 9
REMARK VINA RESULT:      -6.9      3.667      9.209
REMARK  Name = 
REMARK  4 active torsions:
REMARK  status: ('A' for Active; 'I' for Inactive)
REMARK    1  A    between atoms: C_1  and  O_2
REMARK    2  A    between atoms: O_2  and  C_3
REMARK    3  A    between atoms: C_6  and  C_7
REMARK    4  A    between atoms: C_16  and  C_17
REMARK                            x       y       z     vdW  Elec       q    Type
REMARK                         _______ _______ _______ _____ _____    ______ ____
ROOT
ATOM      1  C   UNL     1       1.353   9.005  19.115  0.00  0.00    +0.000 C 
ATOM      2  N   UNL     1       0.704   9.212  20.216  0.00  0.00    +0.000 NA
ATOM      3  N   UNL     1      -0.032  10.361  20.063  0.00  0.00    +0.000 N 
ATOM      4  C   UNL     1      -0.815  10.943  21.040  0.00  0.00    +0.000 C 
ATOM      5  N   UNL     1      -1.714  11.855  20.856  0.00  0.00    +0.000 NA
ATOM      6  C   UNL     1      -2.300  12.281  22.022  0.00  0.00    +0.000 C 
ATOM      7  O   UNL     1      -3.212  13.102  22.058  0.00  0.00    +0.000 OA
ATOM      8  C   UNL     1      -1.722  11.686  23.282  0.00  0.00    +0.000 C 
ATOM      9  S   UNL     1      -0.560  10.442  22.710  0.00  0.00    +0.000 S 
ATOM     10  C   UNL     1       0.163  10.975  18.746  0.00  0.00    +0.000 C 
ATOM     11  C   UNL     1       1.140  10.031  18.040  0.00  0.00    +0.000 C 
ENDROOT
BRANCH   1  15
ATOM     12  C   UNL     1       3.949   5.651  18.516  0.00  0.00    +0.000 A 
ATOM     13  C   UNL     1       3.901   6.687  17.585  0.00  0.00    +0.000 A 
ATOM     14  C   UNL     1       3.059   7.783  17.791  0.00  0.00    +0.000 A 
ATOM     15  C   UNL     1       2.243   7.839  18.926  0.00  0.00    +0.000 A 
ATOM     16  C   UNL     1       2.280   6.793  19.853  0.00  0.00    +0.000 A 
ATOM     17  C   UNL     1       3.126   5.698  19.645  0.00  0.00    +0.000 A 
BRANCH  12  19
ATOM     18  C   UNL     1       5.493   4.748  16.973  0.00  0.00    +0.000 C 
ATOM     19  O   UNL     1       4.796   4.624  18.207  0.00  0.00    +0.000 OA
ENDBRANCH  12  19
ENDBRANCH   1  15
BRANCH  10  20
ATOM     20  C   UNL     1       0.713  12.386  18.879  0.00  0.00    +0.000 A 
ATOM     21  C   UNL     1       1.957  12.634  19.484  0.00  0.00    +0.000 A 
ATOM     22  C   UNL     1       2.404  13.940  19.685  0.00  0.00    +0.000 A 
ATOM     23  C   UNL     1       1.614  15.015  19.285  0.00  0.00    +0.000 A 
ATOM     24  C   UNL     1       0.384  14.787  18.673  0.00  0.00    +0.000 A 
ATOM     25  C   UNL     1      -0.064  13.481  18.467  0.00  0.00    +0.000 A 
ENDBRANCH  10  20
TORSDOF 3
ENDMDL
