MODEL 1
REMARK VINA RESULT:      -7.9      0.000      0.000
REMARK  Name = 
REMARK  2 active torsions:
REMARK  status: ('A' for Active; 'I' for Inactive)
REMARK    1  A    between atoms: C_2  and  C_3
REMARK    2  A    between atoms: C_17  and  C_19
REMARK                            x       y       z     vdW  Elec       q    Type
REMARK                         _______ _______ _______ _____ _____    ______ ____
ROOT
ATOM      1  O   UNL     1       2.247   9.948  17.347  0.00  0.00    +0.000 OA
ATOM      2  C   UNL     1       1.969   9.042  18.129  0.00  0.00    +0.000 C 
ATOM      3  N   UNL     1       1.066   9.248  19.179  0.00  0.00    +0.000 N 
ATOM      4  C   UNL     1       0.777   8.333  20.298  0.00  0.00    +0.000 C 
ATOM      5  C   UNL     1       1.072   8.957  21.665  0.00  0.00    +0.000 C 
ATOM      6  N   UNL     1       0.456  10.269  21.776  0.00  0.00    +0.000 N 
ATOM      7  C   UNL     1      -0.328  10.557  22.896  0.00  0.00    +0.000 C 
ATOM      8  O   UNL     1      -0.403   9.754  23.827  0.00  0.00    +0.000 OA
ATOM      9  C   UNL     1       0.836  11.190  20.692  0.00  0.00    +0.000 C 
ATOM     10  C   UNL     1       0.467  10.587  19.328  0.00  0.00    +0.000 C 
ENDROOT
BRANCH   2  11
ATOM     11  C   UNL     1       2.600   7.743  18.006  0.00  0.00    +0.000 A 
ATOM     12  C   UNL     1       2.082   6.510  18.373  0.00  0.00    +0.000 A 
ATOM     13  C   UNL     1       2.999   5.500  17.974  0.00  0.00    +0.000 A 
ATOM     14  C   UNL     1       3.000   4.096  18.022  0.00  0.00    +0.000 A 
ATOM     15  C   UNL     1       4.092   3.414  17.482  0.00  0.00    +0.000 A 
ATOM     16  F   UNL     1       4.113   2.075  17.530  0.00  0.00    +0.000 F 
ATOM     17  C   UNL     1       5.159   4.083  16.892  0.00  0.00    +0.000 A 
ATOM     18  C   UNL     1       5.182   5.478  16.843  0.00  0.00    +0.000 A 
ATOM     19  C   UNL     1       4.096   6.150  17.413  0.00  0.00    +0.000 A 
ATOM     20  N   UNL     1       3.881   7.495  17.576  0.00  0.00    +0.000 N 
ATOM     21  H   UNL     1       4.552   8.207  17.325  0.00  0.00    +0.000 HD
ENDBRANCH   2  11
BRANCH   7  22
ATOM     22  C   UNL     1      -1.035  11.817  22.939  0.00  0.00    +0.000 A 
ATOM     23  C   UNL     1      -2.379  12.092  22.767  0.00  0.00    +0.000 A 
ATOM     24  C   UNL     1      -2.534  13.487  22.945  0.00  0.00    +0.000 A 
ATOM     25  C   UNL     1      -1.273  13.988  23.162  0.00  0.00    +0.000 A 
ATOM     26  O   UNL     1      -0.355  12.991  23.121  0.00  0.00    +0.000 OA
ENDBRANCH   7  22
TORSDOF 2
ENDMDL
MODEL 2
REMARK VINA RESULT:      -7.6      3.079      5.012
REMARK  Name = 
REMARK  2 active torsions:
REMARK  status: ('A' for Active; 'I' for Inactive)
REMARK    1  A    between atoms: C_2  and  C_3
REMARK    2  A    between atoms: C_17  and  C_19
REMARK                            x       y       z     vdW  Elec       q    Type
REMARK                         _______ _______ _______ _____ _____    ______ ____
ROOT
ATOM      1  O   UNL     1       4.553   3.555  18.746  0.00  0.00    +0.000 OA
ATOM      2  C   UNL     1       4.739   4.565  18.071  0.00  0.00    +0.000 C 
ATOM      3  N   UNL     1       4.278   5.815  18.501  0.00  0.00    +0.000 N 
ATOM      4  C   UNL     1       4.255   7.070  17.728  0.00  0.00    +0.000 C 
ATOM      5  C   UNL     1       2.843   7.642  17.570  0.00  0.00    +0.000 C 
ATOM      6  N   UNL     1       2.166   7.705  18.854  0.00  0.00    +0.000 N 
ATOM      7  C   UNL     1       1.560   8.902  19.243  0.00  0.00    +0.000 C 
ATOM      8  O   UNL     1       1.502   9.853  18.462  0.00  0.00    +0.000 OA
ATOM      9  C   UNL     1       2.127   6.414  19.562  0.00  0.00    +0.000 C 
ATOM     10  C   UNL     1       3.552   5.885  19.782  0.00  0.00    +0.000 C 
ENDROOT
BRANCH   2  11
ATOM     11  C   UNL     1       5.409   4.479  16.788  0.00  0.00    +0.000 A 
ATOM     12  C   UNL     1       5.031   3.734  15.681  0.00  0.00    +0.000 A 
ATOM     13  C   UNL     1       5.919   4.033  14.613  0.00  0.00    +0.000 A 
ATOM     14  C   UNL     1       6.005   3.644  13.265  0.00  0.00    +0.000 A 
ATOM     15  C   UNL     1       7.022   4.190  12.480  0.00  0.00    +0.000 A 
ATOM     16  F   UNL     1       7.125   3.821  11.197  0.00  0.00    +0.000 F 
ATOM     17  C   UNL     1       7.932   5.111  12.991  0.00  0.00    +0.000 A 
ATOM     18  C   UNL     1       7.870   5.503  14.329  0.00  0.00    +0.000 A 
ATOM     19  C   UNL     1       6.864   4.927  15.112  0.00  0.00    +0.000 A 
ATOM     20  N   UNL     1       6.607   5.062  16.453  0.00  0.00    +0.000 N 
ATOM     21  H   UNL     1       7.184   5.597  17.086  0.00  0.00    +0.000 HD
ENDBRANCH   2  11
BRANCH   7  22
ATOM     22  C   UNL     1       0.997   8.992  20.571  0.00  0.00    +0.000 A 
ATOM     23  C   UNL     1      -0.324   8.974  20.982  0.00  0.00    +0.000 A 
ATOM     24  C   UNL     1      -0.311   9.059  22.394  0.00  0.00    +0.000 A 
ATOM     25  C   UNL     1       1.009   9.179  22.758  0.00  0.00    +0.000 A 
ATOM     26  O   UNL     1       1.804   9.178  21.660  0.00  0.00    +0.000 OA
ENDBRANCH   7  22
TORSDOF 2
ENDMDL
MODEL 3
REMARK VINA RESULT:      -7.6      1.283      1.731
REMARK  Name = 
REMARK  2 active torsions:
REMARK  status: ('A' for Active; 'I' for Inactive)
REMARK    1  A    between atoms: C_2  and  C_3
REMARK    2  A    between atoms: C_17  and  C_19
REMARK                            x       y       z     vdW  Elec       q    Type
REMARK                         _______ _______ _______ _____ _____    ______ ____
ROOT
ATOM      1  O   UNL     1       1.800   9.714  17.245  0.00  0.00    +0.000 OA
ATOM      2  C   UNL     1       1.855   8.878  18.144  0.00  0.00    +0.000 C 
ATOM      3  N   UNL     1       1.055   8.993  19.287  0.00  0.00    +0.000 N 
ATOM      4  C   UNL     1       1.141   8.189  20.519  0.00  0.00    +0.000 C 
ATOM      5  C   UNL     1       1.418   9.039  21.763  0.00  0.00    +0.000 C 
ATOM      6  N   UNL     1       0.501  10.164  21.832  0.00  0.00    +0.000 N 
ATOM      7  C   UNL     1      -0.198  10.396  23.019  0.00  0.00    +0.000 C 
ATOM      8  O   UNL     1       0.044   9.727  24.025  0.00  0.00    +0.000 OA
ATOM      9  C   UNL     1       0.505  11.001  20.621  0.00  0.00    +0.000 C 
ATOM     10  C   UNL     1       0.151  10.154  19.389  0.00  0.00    +0.000 C 
ENDROOT
BRANCH   2  11
ATOM     11  C   UNL     1       2.782   7.766  18.059  0.00  0.00    +0.000 A 
ATOM     12  C   UNL     1       4.041   7.754  17.477  0.00  0.00    +0.000 A 
ATOM     13  C   UNL     1       4.636   6.487  17.719  0.00  0.00    +0.000 A 
ATOM     14  C   UNL     1       5.888   5.916  17.434  0.00  0.00    +0.000 A 
ATOM     15  C   UNL     1       6.141   4.615  17.874  0.00  0.00    +0.000 A 
ATOM     16  F   UNL     1       7.326   4.053  17.600  0.00  0.00    +0.000 F 
ATOM     17  C   UNL     1       5.199   3.886  18.592  0.00  0.00    +0.000 A 
ATOM     18  C   UNL     1       3.946   4.431  18.876  0.00  0.00    +0.000 A 
ATOM     19  C   UNL     1       3.695   5.723  18.405  0.00  0.00    +0.000 A 
ATOM     20  N   UNL     1       2.550   6.476  18.468  0.00  0.00    +0.000 N 
ATOM     21  H   UNL     1       1.676   6.142  18.851  0.00  0.00    +0.000 HD
ENDBRANCH   2  11
BRANCH   7  22
ATOM     22  C   UNL     1      -1.196  11.441  23.040  0.00  0.00    +0.000 A 
ATOM     23  C   UNL     1      -1.077  12.793  22.771  0.00  0.00    +0.000 A 
ATOM     24  C   UNL     1      -2.371  13.349  22.906  0.00  0.00    +0.000 A 
ATOM     25  C   UNL     1      -3.191  12.320  23.302  0.00  0.00    +0.000 A 
ATOM     26  O   UNL     1      -2.482  11.171  23.423  0.00  0.00    +0.000 OA
ENDBRANCH   7  22
TORSDOF 2
ENDMDL
MODEL 4
REMARK VINA RESULT:      -7.6      1.190      1.220
REMARK  Name = 
REMARK  2 active torsions:
REMARK  status: ('A' for Active; 'I' for Inactive)
REMARK    1  A    between atoms: C_2  and  C_3
REMARK    2  A    between atoms: C_17  and  C_19
REMARK                            x       y       z     vdW  Elec       q    Type
REMARK                         _______ _______ _______ _____ _____    ______ ____
ROOT
ATOM      1  O   UNL     1       2.550   9.259  17.509  0.00  0.00    +0.000 OA
ATOM      2  C   UNL     1       2.040   8.539  18.365  0.00  0.00    +0.000 C 
ATOM      3  N   UNL     1       1.090   9.046  19.260  0.00  0.00    +0.000 N 
ATOM      4  C   UNL     1       0.535   8.370  20.447  0.00  0.00    +0.000 C 
ATOM      5  C   UNL     1       0.802   9.138  21.744  0.00  0.00    +0.000 C 
ATOM      6  N   UNL     1       0.420  10.534  21.604  0.00  0.00    +0.000 N 
ATOM      7  C   UNL     1      -0.405  11.112  22.571  0.00  0.00    +0.000 C 
ATOM      8  O   UNL     1      -0.712  10.482  23.585  0.00  0.00    +0.000 OA
ATOM      9  C   UNL     1       1.063  11.206  20.462  0.00  0.00    +0.000 C 
ATOM     10  C   UNL     1       0.727  10.471  19.156  0.00  0.00    +0.000 C 
ENDROOT
BRANCH   2  11
ATOM     11  C   UNL     1       2.439   7.152  18.494  0.00  0.00    +0.000 A 
ATOM     12  C   UNL     1       1.907   6.051  17.838  0.00  0.00    +0.000 A 
ATOM     13  C   UNL     1       2.672   4.906  18.187  0.00  0.00    +0.000 A 
ATOM     14  C   UNL     1       2.652   3.554  17.806  0.00  0.00    +0.000 A 
ATOM     15  C   UNL     1       3.614   2.697  18.344  0.00  0.00    +0.000 A 
ATOM     16  F   UNL     1       3.600   1.403  17.999  0.00  0.00    +0.000 F 
ATOM     17  C   UNL     1       4.589   3.149  19.227  0.00  0.00    +0.000 A 
ATOM     18  C   UNL     1       4.621   4.486  19.626  0.00  0.00    +0.000 A 
ATOM     19  C   UNL     1       3.635   5.327  19.102  0.00  0.00    +0.000 A 
ATOM     20  N   UNL     1       3.375   6.648  19.365  0.00  0.00    +0.000 N 
ATOM     21  H   UNL     1       3.876   7.195  20.051  0.00  0.00    +0.000 HD
ENDBRANCH   2  11
BRANCH   7  22
ATOM     22  C   UNL     1      -0.877  12.461  22.360  0.00  0.00    +0.000 A 
ATOM     23  C   UNL     1      -1.993  12.920  21.684  0.00  0.00    +0.000 A 
ATOM     24  C   UNL     1      -1.996  14.329  21.815  0.00  0.00    +0.000 A 
ATOM     25  C   UNL     1      -0.857  14.651  22.513  0.00  0.00    +0.000 A 
ATOM     26  O   UNL     1      -0.154  13.532  22.813  0.00  0.00    +0.000 OA
ENDBRANCH   7  22
TORSDOF 2
ENDMDL
MODEL 5
REMARK VINA RESULT:      -7.6      2.205      2.982
REMARK  Name = 
REMARK  2 active torsions:
REMARK  status: ('A' for Active; 'I' for Inactive)
REMARK    1  A    between atoms: C_2  and  C_3
REMARK    2  A    between atoms: C_17  and  C_19
REMARK                            x       y       z     vdW  Elec       q    Type
REMARK                         _______ _______ _______ _____ _____    ______ ____
ROOT
ATOM      1  O   UNL     1       1.805   6.770  20.890  0.00  0.00    +0.000 OA
ATOM      2  C   UNL     1       2.039   7.409  19.867  0.00  0.00    +0.000 C 
ATOM      3  N   UNL     1       1.562   8.716  19.707  0.00  0.00    +0.000 N 
ATOM      4  C   UNL     1       1.597   9.533  18.481  0.00  0.00    +0.000 C 
ATOM      5  C   UNL     1       0.202   9.960  18.015  0.00  0.00    +0.000 C 
ATOM      6  N   UNL     1      -0.553  10.540  19.113  0.00  0.00    +0.000 N 
ATOM      7  C   UNL     1      -1.173  11.779  18.930  0.00  0.00    +0.000 C 
ATOM      8  O   UNL     1      -1.175  12.315  17.821  0.00  0.00    +0.000 OA
ATOM      9  C   UNL     1      -0.646   9.661  20.291  0.00  0.00    +0.000 C 
ATOM     10  C   UNL     1       0.759   9.300  20.797  0.00  0.00    +0.000 C 
ENDROOT
BRANCH   2  11
ATOM     11  C   UNL     1       2.788   6.809  18.780  0.00  0.00    +0.000 A 
ATOM     12  C   UNL     1       3.604   7.448  17.858  0.00  0.00    +0.000 A 
ATOM     13  C   UNL     1       4.219   6.461  17.041  0.00  0.00    +0.000 A 
ATOM     14  C   UNL     1       5.164   6.491  16.001  0.00  0.00    +0.000 A 
ATOM     15  C   UNL     1       5.575   5.280  15.442  0.00  0.00    +0.000 A 
ATOM     16  F   UNL     1       6.467   5.293  14.443  0.00  0.00    +0.000 F 
ATOM     17  C   UNL     1       5.089   4.058  15.896  0.00  0.00    +0.000 A 
ATOM     18  C   UNL     1       4.143   4.007  16.920  0.00  0.00    +0.000 A 
ATOM     19  C   UNL     1       3.718   5.228  17.452  0.00  0.00    +0.000 A 
ATOM     20  N   UNL     1       2.761   5.489  18.400  0.00  0.00    +0.000 N 
ATOM     21  H   UNL     1       2.179   4.780  18.824  0.00  0.00    +0.000 HD
ENDBRANCH   2  11
BRANCH   7  22
ATOM     22  C   UNL     1      -1.817  12.403  20.062  0.00  0.00    +0.000 A 
ATOM     23  C   UNL     1      -3.159  12.624  20.314  0.00  0.00    +0.000 A 
ATOM     24  C   UNL     1      -3.237  13.241  21.585  0.00  0.00    +0.000 A 
ATOM     25  C   UNL     1      -1.941  13.411  22.009  0.00  0.00    +0.000 A 
ATOM     26  O   UNL     1      -1.074  12.943  21.077  0.00  0.00    +0.000 OA
ENDBRANCH   7  22
TORSDOF 2
ENDMDL
MODEL 6
REMARK VINA RESULT:      -7.5      2.186      2.936
REMARK  Name = 
REMARK  2 active torsions:
REMARK  status: ('A' for Active; 'I' for Inactive)
REMARK    1  A    between atoms: C_2  and  C_3
REMARK    2  A    between atoms: C_17  and  C_19
REMARK                            x       y       z     vdW  Elec       q    Type
REMARK                         _______ _______ _______ _____ _____    ______ ____
ROOT
ATOM      1  O   UNL     1       1.829   5.884  20.818  0.00  0.00    +0.000 OA
ATOM      2  C   UNL     1       2.190   6.681  19.955  0.00  0.00    +0.000 C 
ATOM      3  N   UNL     1       1.845   8.036  20.036  0.00  0.00    +0.000 N 
ATOM      4  C   UNL     1       2.037   9.067  19.000  0.00  0.00    +0.000 C 
ATOM      5  C   UNL     1       0.722   9.717  18.560  0.00  0.00    +0.000 C 
ATOM      6  N   UNL     1      -0.049  10.148  19.714  0.00  0.00    +0.000 N 
ATOM      7  C   UNL     1      -0.540  11.456  19.750  0.00  0.00    +0.000 C 
ATOM      8  O   UNL     1      -0.418  12.194  18.771  0.00  0.00    +0.000 OA
ATOM      9  C   UNL     1      -0.302   9.073  20.687  0.00  0.00    +0.000 C 
ATOM     10  C   UNL     1       1.026   8.479  21.179  0.00  0.00    +0.000 C 
ENDROOT
BRANCH   2  11
ATOM     11  C   UNL     1       2.952   6.229  18.809  0.00  0.00    +0.000 A 
ATOM     12  C   UNL     1       3.622   7.006  17.875  0.00  0.00    +0.000 A 
ATOM     13  C   UNL     1       4.320   6.143  16.989  0.00  0.00    +0.000 A 
ATOM     14  C   UNL     1       5.194   6.340  15.906  0.00  0.00    +0.000 A 
ATOM     15  C   UNL     1       5.736   5.217  15.277  0.00  0.00    +0.000 A 
ATOM     16  F   UNL     1       6.561   5.388  14.236  0.00  0.00    +0.000 F 
ATOM     17  C   UNL     1       5.446   3.924  15.702  0.00  0.00    +0.000 A 
ATOM     18  C   UNL     1       4.573   3.707  16.769  0.00  0.00    +0.000 A 
ATOM     19  C   UNL     1       4.015   4.839  17.372  0.00  0.00    +0.000 A 
ATOM     20  N   UNL     1       3.085   4.932  18.376  0.00  0.00    +0.000 N 
ATOM     21  H   UNL     1       2.629   4.135  18.797  0.00  0.00    +0.000 HD
ENDBRANCH   2  11
BRANCH   7  22
ATOM     22  C   UNL     1      -1.201  11.913  20.952  0.00  0.00    +0.000 A 
ATOM     23  C   UNL     1      -0.732  11.995  22.250  0.00  0.00    +0.000 A 
ATOM     24  C   UNL     1      -1.780  12.544  23.026  0.00  0.00    +0.000 A 
ATOM     25  C   UNL     1      -2.842  12.713  22.170  0.00  0.00    +0.000 A 
ATOM     26  O   UNL     1      -2.514  12.298  20.922  0.00  0.00    +0.000 OA
ENDBRANCH   7  22
TORSDOF 2
ENDMDL
MODEL 7
REMARK VINA RESULT:      -7.5      1.419      1.733
REMARK  Name = 
REMARK  2 active torsions:
REMARK  status: ('A' for Active; 'I' for Inactive)
REMARK    1  A    between atoms: C_2  and  C_3
REMARK    2  A    between atoms: C_17  and  C_19
REMARK                            x       y       z     vdW  Elec       q    Type
REMARK                         _______ _______ _______ _____ _____    ______ ____
ROOT
ATOM      1  O   UNL     1       2.579   8.877  17.316  0.00  0.00    +0.000 OA
ATOM      2  C   UNL     1       2.125   8.188  18.227  0.00  0.00    +0.000 C 
ATOM      3  N   UNL     1       1.215   8.720  19.148  0.00  0.00    +0.000 N 
ATOM      4  C   UNL     1       0.733   8.089  20.389  0.00  0.00    +0.000 C 
ATOM      5  C   UNL     1       1.053   8.916  21.637  0.00  0.00    +0.000 C 
ATOM      6  N   UNL     1       0.642  10.299  21.458  0.00  0.00    +0.000 N 
ATOM      7  C   UNL     1      -0.143  10.906  22.441  0.00  0.00    +0.000 C 
ATOM      8  O   UNL     1      -0.386  10.317  23.495  0.00  0.00    +0.000 OA
ATOM      9  C   UNL     1       1.213  10.930  20.256  0.00  0.00    +0.000 C 
ATOM     10  C   UNL     1       0.823  10.134  19.002  0.00  0.00    +0.000 C 
ENDROOT
BRANCH   2  11
ATOM     11  C   UNL     1       2.554   6.814  18.394  0.00  0.00    +0.000 A 
ATOM     12  C   UNL     1       3.697   6.352  19.029  0.00  0.00    +0.000 A 
ATOM     13  C   UNL     1       3.659   4.932  19.048  0.00  0.00    +0.000 A 
ATOM     14  C   UNL     1       4.485   3.931  19.588  0.00  0.00    +0.000 A 
ATOM     15  C   UNL     1       4.098   2.598  19.438  0.00  0.00    +0.000 A 
ATOM     16  F   UNL     1       4.881   1.633  19.938  0.00  0.00    +0.000 F 
ATOM     17  C   UNL     1       2.921   2.243  18.788  0.00  0.00    +0.000 A 
ATOM     18  C   UNL     1       2.092   3.221  18.236  0.00  0.00    +0.000 A 
ATOM     19  C   UNL     1       2.506   4.550  18.368  0.00  0.00    +0.000 A 
ATOM     20  N   UNL     1       1.943   5.699  17.872  0.00  0.00    +0.000 N 
ATOM     21  H   UNL     1       1.130   5.715  17.273  0.00  0.00    +0.000 HD
ENDBRANCH   2  11
BRANCH   7  22
ATOM     22  C   UNL     1      -0.647  12.238  22.198  0.00  0.00    +0.000 A 
ATOM     23  C   UNL     1      -1.821  12.651  21.595  0.00  0.00    +0.000 A 
ATOM     24  C   UNL     1      -1.830  14.065  21.648  0.00  0.00    +0.000 A 
ATOM     25  C   UNL     1      -0.640  14.434  22.228  0.00  0.00    +0.000 A 
ATOM     26  O   UNL     1       0.099  13.338  22.528  0.00  0.00    +0.000 OA
ENDBRANCH   7  22
TORSDOF 2
ENDMDL
MODEL 8
REMARK VINA RESULT:      -7.5      2.539      3.078
REMARK  Name = 
REMARK  2 active torsions:
REMARK  status: ('A' for Active; 'I' for Inactive)
REMARK    1  A    between atoms: C_2  and  C_3
REMARK    2  A    between atoms: C_17  and  C_19
REMARK                            x       y       z     vdW  Elec       q    Type
REMARK                         _______ _______ _______ _____ _____    ______ ____
ROOT
ATOM      1  O   UNL     1       2.926   8.549  17.270  0.00  0.00    +0.000 OA
ATOM      2  C   UNL     1       2.183   8.278  18.210  0.00  0.00    +0.000 C 
ATOM      3  N   UNL     1       1.363   9.255  18.787  0.00  0.00    +0.000 N 
ATOM      4  C   UNL     1       0.570   9.136  20.023  0.00  0.00    +0.000 C 
ATOM      5  C   UNL     1       0.963  10.170  21.081  0.00  0.00    +0.000 C 
ATOM      6  N   UNL     1       1.000  11.505  20.507  0.00  0.00    +0.000 N 
ATOM      7  C   UNL     1       0.314  12.539  21.150  0.00  0.00    +0.000 C 
ATOM      8  O   UNL     1      -0.218  12.346  22.244  0.00  0.00    +0.000 OA
ATOM      9  C   UNL     1       1.873  11.613  19.326  0.00  0.00    +0.000 C 
ATOM     10  C   UNL     1       1.423  10.624  18.241  0.00  0.00    +0.000 C 
ENDROOT
BRANCH   2  11
ATOM     11  C   UNL     1       2.167   6.942  18.774  0.00  0.00    +0.000 A 
ATOM     12  C   UNL     1       2.291   6.582  20.107  0.00  0.00    +0.000 A 
ATOM     13  C   UNL     1       2.112   5.176  20.212  0.00  0.00    +0.000 A 
ATOM     14  C   UNL     1       2.071   4.265  21.282  0.00  0.00    +0.000 A 
ATOM     15  C   UNL     1       1.828   2.920  20.999  0.00  0.00    +0.000 A 
ATOM     16  F   UNL     1       1.796   2.038  22.007  0.00  0.00    +0.000 F 
ATOM     17  C   UNL     1       1.613   2.468  19.701  0.00  0.00    +0.000 A 
ATOM     18  C   UNL     1       1.660   3.355  18.624  0.00  0.00    +0.000 A 
ATOM     19  C   UNL     1       1.933   4.694  18.918  0.00  0.00    +0.000 A 
ATOM     20  N   UNL     1       2.110   5.761  18.073  0.00  0.00    +0.000 N 
ATOM     21  H   UNL     1       2.108   5.689  17.066  0.00  0.00    +0.000 HD
ENDBRANCH   2  11
BRANCH   7  22
ATOM     22  C   UNL     1       0.255  13.832  20.509  0.00  0.00    +0.000 A 
ATOM     23  C   UNL     1      -0.613  14.311  19.545  0.00  0.00    +0.000 A 
ATOM     24  C   UNL     1      -0.244  15.655  19.296  0.00  0.00    +0.000 A 
ATOM     25  C   UNL     1       0.858  15.899  20.080  0.00  0.00    +0.000 A 
ATOM     26  O   UNL     1       1.191  14.792  20.787  0.00  0.00    +0.000 OA
ENDBRANCH   7  22
TORSDOF 2
ENDMDL
MODEL 9
REMARK VINA RESULT:      -7.5      1.019      1.155
REMARK  Name = 
REMARK  2 active torsions:
REMARK  status: ('A' for Active; 'I' for Inactive)
REMARK    1  A    between atoms: C_2  and  C_3
REMARK    2  A    between atoms: C_17  and  C_19
REMARK                            x       y       z     vdW  Elec       q    Type
REMARK                         _______ _______ _______ _____ _____    ______ ____
ROOT
ATOM      1  O   UNL     1       2.208   9.797  17.428  0.00  0.00    +0.000 OA
ATOM      2  C   UNL     1       1.917   9.000  18.318  0.00  0.00    +0.000 C 
ATOM      3  N   UNL     1       0.962   9.321  19.290  0.00  0.00    +0.000 N 
ATOM      4  C   UNL     1       0.645   8.562  20.512  0.00  0.00    +0.000 C 
ATOM      5  C   UNL     1       0.860   9.379  21.789  0.00  0.00    +0.000 C 
ATOM      6  N   UNL     1       0.206  10.673  21.689  0.00  0.00    +0.000 N 
ATOM      7  C   UNL     1      -0.636  11.089  22.723  0.00  0.00    +0.000 C 
ATOM      8  O   UNL     1      -0.733  10.421  23.754  0.00  0.00    +0.000 OA
ATOM      9  C   UNL     1       0.612  11.446  20.504  0.00  0.00    +0.000 C 
ATOM     10  C   UNL     1       0.322  10.648  19.224  0.00  0.00    +0.000 C 
ENDROOT
BRANCH   2  11
ATOM     11  C   UNL     1       2.587   7.717  18.405  0.00  0.00    +0.000 A 
ATOM     12  C   UNL     1       2.535   6.802  19.446  0.00  0.00    +0.000 A 
ATOM     13  C   UNL     1       3.256   5.641  19.060  0.00  0.00    +0.000 A 
ATOM     14  C   UNL     1       3.502   4.390  19.653  0.00  0.00    +0.000 A 
ATOM     15  C   UNL     1       4.246   3.450  18.938  0.00  0.00    +0.000 A 
ATOM     16  F   UNL     1       4.497   2.258  19.495  0.00  0.00    +0.000 F 
ATOM     17  C   UNL     1       4.731   3.713  17.661  0.00  0.00    +0.000 A 
ATOM     18  C   UNL     1       4.506   4.952  17.058  0.00  0.00    +0.000 A 
ATOM     19  C   UNL     1       3.785   5.894  17.796  0.00  0.00    +0.000 A 
ATOM     20  N   UNL     1       3.478   7.198  17.497  0.00  0.00    +0.000 N 
ATOM     21  H   UNL     1       3.800   7.677  16.668  0.00  0.00    +0.000 HD
ENDBRANCH   2  11
BRANCH   7  22
ATOM     22  C   UNL     1      -1.376  12.319  22.559  0.00  0.00    +0.000 A 
ATOM     23  C   UNL     1      -1.137  13.579  23.079  0.00  0.00    +0.000 A 
ATOM     24  C   UNL     1      -2.152  14.425  22.574  0.00  0.00    +0.000 A 
ATOM     25  C   UNL     1      -2.979  13.625  21.822  0.00  0.00    +0.000 A 
ATOM     26  O   UNL     1      -2.540  12.343  21.839  0.00  0.00    +0.000 OA
ENDBRANCH   7  22
TORSDOF 2
ENDMDL
