MODEL 1
REMARK VINA RESULT:      -8.9      0.000      0.000
REMARK  Name = 
REMARK  9 active torsions:
REMARK  status: ('A' for Active; 'I' for Inactive)
REMARK    1  A    between atoms: C_1  and  C_2
REMARK    2  A    between atoms: C_6  and  C_8
REMARK    3  A    between atoms: C_8  and  O_9
REMARK    4  A    between atoms: O_9  and  C_10
REMARK    5  A    between atoms: C_10  and  C_12
REMARK    6  A    between atoms: C_12  and  C_13
REMARK    7  A    between atoms: C_12  and  N_20
REMARK    8  A    between atoms: C_13  and  C_14
REMARK    9  A    between atoms: C_21  and  C_23
REMARK                            x       y       z     vdW  Elec       q    Type
REMARK                         _______ _______ _______ _____ _____    ______ ____
ROOT
ATOM      1  C   UNL     1       5.915   4.398  16.881  0.00  0.00    +0.000 C 
ENDROOT
BRANCH   1   2
ATOM      2  N   UNL     1       4.969   4.396  17.998  0.00  0.00    +0.000 N 
ATOM      3  C   UNL     1       4.042   3.398  18.187  0.00  0.00    +0.000 C 
ATOM      4  O   UNL     1       3.962   2.434  17.431  0.00  0.00    +0.000 OA
ATOM      5  H   UNL     1       5.008   5.148  18.681  0.00  0.00    +0.000 HD
BRANCH   3   6
ATOM      6  C   UNL     1       3.161   3.595  19.318  0.00  0.00    +0.000 A 
ATOM      7  C   UNL     1       2.140   2.805  19.812  0.00  0.00    +0.000 A 
ATOM      8  C   UNL     1       1.618   3.474  20.944  0.00  0.00    +0.000 A 
ATOM      9  C   UNL     1       2.340   4.637  21.067  0.00  0.00    +0.000 A 
ATOM     10  O   UNL     1       3.275   4.726  20.086  0.00  0.00    +0.000 OA
ENDBRANCH   3   6
ENDBRANCH   1   2
BRANCH   1  11
ATOM     11  C   UNL     1       7.329   4.832  17.301  0.00  0.00    +0.000 C 
ATOM     12  O   UNL     1       8.201   4.069  17.704  0.00  0.00    +0.000 OA
BRANCH  11  13
ATOM     13  O   UNL     1       7.498   6.181  17.191  0.00  0.00    +0.000 OA
BRANCH  13  14
ATOM     14  C   UNL     1       7.919   6.835  18.390  0.00  0.00    +0.000 C 
BRANCH  14  20
ATOM     15  C   UNL     1      10.504  13.515  20.329  0.00  0.00    +0.000 C 
ATOM     16  C   UNL     1       9.948  12.269  19.779  0.00  0.00    +0.000 A 
ATOM     17  C   UNL     1       9.885  10.958  20.190  0.00  0.00    +0.000 A 
ATOM     18  C   UNL     1       9.199  10.287  19.144  0.00  0.00    +0.000 A 
ATOM     19  N   UNL     1       8.893   8.938  19.144  0.00  0.00    +0.000 N 
ATOM     20  C   UNL     1       8.199   8.313  18.121  0.00  0.00    +0.000 C 
ATOM     21  O   UNL     1       7.780   8.833  17.092  0.00  0.00    +0.000 OA
ATOM     22  N   UNL     1       8.888  11.147  18.169  0.00  0.00    +0.000 NA
ATOM     23  O   UNL     1       9.346  12.381  18.569  0.00  0.00    +0.000 OA
ATOM     24  H   UNL     1       9.111   8.414  19.983  0.00  0.00    +0.000 HD
ENDBRANCH  14  20
ENDBRANCH  13  14
ENDBRANCH  11  13
ENDBRANCH   1  11
BRANCH   1  25
ATOM     25  C   UNL     1       5.446   5.230  15.669  0.00  0.00    +0.000 C 
BRANCH  25  26
ATOM     26  C   UNL     1       5.985   4.748  14.340  0.00  0.00    +0.000 A 
ATOM     27  C   UNL     1       5.287   3.793  13.590  0.00  0.00    +0.000 A 
ATOM     28  C   UNL     1       5.818   3.311  12.393  0.00  0.00    +0.000 A 
ATOM     29  C   UNL     1       7.048   3.780  11.933  0.00  0.00    +0.000 A 
ATOM     30  C   UNL     1       7.739   4.747  12.658  0.00  0.00    +0.000 A 
ATOM     31  C   UNL     1       7.207   5.234  13.852  0.00  0.00    +0.000 A 
ENDBRANCH  25  26
ENDBRANCH   1  25
TORSDOF 8
ENDMDL
MODEL 2
REMARK VINA RESULT:      -8.8      4.421      7.427
REMARK  Name = 
REMARK  9 active torsions:
REMARK  status: ('A' for Active; 'I' for Inactive)
REMARK    1  A    between atoms: C_1  and  C_2
REMARK    2  A    between atoms: C_6  and  C_8
REMARK    3  A    between atoms: C_8  and  O_9
REMARK    4  A    between atoms: O_9  and  C_10
REMARK    5  A    between atoms: C_10  and  C_12
REMARK    6  A    between atoms: C_12  and  C_13
REMARK    7  A    between atoms: C_12  and  N_20
REMARK    8  A    between atoms: C_13  and  C_14
REMARK    9  A    between atoms: C_21  and  C_23
REMARK                            x       y       z     vdW  Elec       q    Type
REMARK                         _______ _______ _______ _____ _____    ______ ____
ROOT
ATOM      1  C   UNL     1       4.396   4.049  17.370  0.00  0.00    +0.000 C 
ENDROOT
BRANCH   1   2
ATOM      2  N   UNL     1       5.170   3.930  16.133  0.00  0.00    +0.000 N 
ATOM      3  C   UNL     1       5.472   5.011  15.338  0.00  0.00    +0.000 C 
ATOM      4  O   UNL     1       5.120   6.150  15.628  0.00  0.00    +0.000 OA
ATOM      5  H   UNL     1       5.523   3.019  15.856  0.00  0.00    +0.000 HD
BRANCH   3   6
ATOM      6  C   UNL     1       6.203   4.689  14.131  0.00  0.00    +0.000 A 
ATOM      7  C   UNL     1       5.981   3.714  13.177  0.00  0.00    +0.000 A 
ATOM      8  C   UNL     1       6.998   3.855  12.204  0.00  0.00    +0.000 A 
ATOM      9  C   UNL     1       7.787   4.898  12.626  0.00  0.00    +0.000 A 
ATOM     10  O   UNL     1       7.321   5.409  13.795  0.00  0.00    +0.000 OA
ENDBRANCH   3   6
ENDBRANCH   1   2
BRANCH   1  11
ATOM     11  C   UNL     1       5.131   4.854  18.455  0.00  0.00    +0.000 C 
ATOM     12  O   UNL     1       6.222   4.551  18.928  0.00  0.00    +0.000 OA
BRANCH  11  13
ATOM     13  O   UNL     1       4.413   5.943  18.851  0.00  0.00    +0.000 OA
BRANCH  13  14
ATOM     14  C   UNL     1       3.220   6.184  18.102  0.00  0.00    +0.000 C 
BRANCH  14  20
ATOM     15  C   UNL     1      -0.618  10.335  22.909  0.00  0.00    +0.000 C 
ATOM     16  C   UNL     1       0.153   9.667  21.848  0.00  0.00    +0.000 A 
ATOM     17  C   UNL     1       0.750   8.436  21.697  0.00  0.00    +0.000 A 
ATOM     18  C   UNL     1       1.333   8.478  20.403  0.00  0.00    +0.000 A 
ATOM     19  N   UNL     1       2.028   7.433  19.821  0.00  0.00    +0.000 N 
ATOM     20  C   UNL     1       2.565   7.491  18.546  0.00  0.00    +0.000 C 
ATOM     21  O   UNL     1       2.525   8.443  17.773  0.00  0.00    +0.000 OA
ATOM     22  N   UNL     1       1.106   9.664  19.832  0.00  0.00    +0.000 NA
ATOM     23  O   UNL     1       0.365  10.400  20.727  0.00  0.00    +0.000 OA
ATOM     24  H   UNL     1       2.056   6.557  20.328  0.00  0.00    +0.000 HD
ENDBRANCH  14  20
ENDBRANCH  13  14
ENDBRANCH  11  13
ENDBRANCH   1  11
BRANCH   1  25
ATOM     25  C   UNL     1       3.928   2.696  17.944  0.00  0.00    +0.000 C 
BRANCH  25  26
ATOM     26  C   UNL     1       2.978   2.814  19.115  0.00  0.00    +0.000 A 
ATOM     27  C   UNL     1       3.427   2.598  20.424  0.00  0.00    +0.000 A 
ATOM     28  C   UNL     1       2.533   2.652  21.494  0.00  0.00    +0.000 A 
ATOM     29  C   UNL     1       1.185   2.926  21.268  0.00  0.00    +0.000 A 
ATOM     30  C   UNL     1       0.731   3.166  19.973  0.00  0.00    +0.000 A 
ATOM     31  C   UNL     1       1.625   3.118  18.903  0.00  0.00    +0.000 A 
ENDBRANCH  25  26
ENDBRANCH   1  25
TORSDOF 8
ENDMDL
MODEL 3
REMARK VINA RESULT:      -8.4      1.019      1.092
REMARK  Name = 
REMARK  9 active torsions:
REMARK  status: ('A' for Active; 'I' for Inactive)
REMARK    1  A    between atoms: C_1  and  C_2
REMARK    2  A    between atoms: C_6  and  C_8
REMARK    3  A    between atoms: C_8  and  O_9
REMARK    4  A    between atoms: O_9  and  C_10
REMARK    5  A    between atoms: C_10  and  C_12
REMARK    6  A    between atoms: C_12  and  C_13
REMARK    7  A    between atoms: C_12  and  N_20
REMARK    8  A    between atoms: C_13  and  C_14
REMARK    9  A    between atoms: C_21  and  C_23
REMARK                            x       y       z     vdW  Elec       q    Type
REMARK                         _______ _______ _______ _____ _____    ______ ____
ROOT
ATOM      1  C   UNL     1       5.568   4.334  16.763  0.00  0.00    +0.000 C 
ENDROOT
BRANCH   1   2
ATOM      2  N   UNL     1       4.547   4.298  17.811  0.00  0.00    +0.000 N 
ATOM      3  C   UNL     1       3.742   3.205  18.029  0.00  0.00    +0.000 C 
ATOM      4  O   UNL     1       3.843   2.180  17.360  0.00  0.00    +0.000 OA
ATOM      5  H   UNL     1       4.439   5.101  18.425  0.00  0.00    +0.000 HD
BRANCH   3   6
ATOM      6  C   UNL     1       2.760   3.374  19.078  0.00  0.00    +0.000 A 
ATOM      7  C   UNL     1       1.380   3.298  19.040  0.00  0.00    +0.000 A 
ATOM      8  C   UNL     1       0.922   3.539  20.356  0.00  0.00    +0.000 A 
ATOM      9  C   UNL     1       2.045   3.761  21.116  0.00  0.00    +0.000 A 
ATOM     10  O   UNL     1       3.165   3.670  20.354  0.00  0.00    +0.000 OA
ENDBRANCH   3   6
ENDBRANCH   1   2
BRANCH   1  11
ATOM     11  C   UNL     1       6.930   4.832  17.276  0.00  0.00    +0.000 C 
ATOM     12  O   UNL     1       7.995   4.248  17.105  0.00  0.00    +0.000 OA
BRANCH  11  13
ATOM     13  O   UNL     1       6.813   6.001  17.968  0.00  0.00    +0.000 OA
BRANCH  13  14
ATOM     14  C   UNL     1       7.218   7.170  17.252  0.00  0.00    +0.000 C 
BRANCH  14  20
ATOM     15  C   UNL     1      10.326  13.676  19.006  0.00  0.00    +0.000 C 
ATOM     16  C   UNL     1       9.790  12.319  18.815  0.00  0.00    +0.000 A 
ATOM     17  C   UNL     1       8.905  11.728  17.943  0.00  0.00    +0.000 A 
ATOM     18  C   UNL     1       8.853  10.370  18.352  0.00  0.00    +0.000 A 
ATOM     19  N   UNL     1       8.092   9.393  17.735  0.00  0.00    +0.000 N 
ATOM     20  C   UNL     1       8.079   8.067  18.139  0.00  0.00    +0.000 C 
ATOM     21  O   UNL     1       8.700   7.579  19.077  0.00  0.00    +0.000 OA
ATOM     22  N   UNL     1       9.647  10.174  19.409  0.00  0.00    +0.000 NA
ATOM     23  O   UNL     1      10.236  11.384  19.691  0.00  0.00    +0.000 OA
ATOM     24  H   UNL     1       7.599   9.655  16.891  0.00  0.00    +0.000 HD
ENDBRANCH  14  20
ENDBRANCH  13  14
ENDBRANCH  11  13
ENDBRANCH   1  11
BRANCH   1  25
ATOM     25  C   UNL     1       5.151   5.137  15.514  0.00  0.00    +0.000 C 
BRANCH  25  26
ATOM     26  C   UNL     1       5.794   4.665  14.228  0.00  0.00    +0.000 A 
ATOM     27  C   UNL     1       5.155   3.720  13.415  0.00  0.00    +0.000 A 
ATOM     28  C   UNL     1       5.781   3.248  12.260  0.00  0.00    +0.000 A 
ATOM     29  C   UNL     1       7.046   3.714  11.907  0.00  0.00    +0.000 A 
ATOM     30  C   UNL     1       7.680   4.671  12.695  0.00  0.00    +0.000 A 
ATOM     31  C   UNL     1       7.054   5.150  13.847  0.00  0.00    +0.000 A 
ENDBRANCH  25  26
ENDBRANCH   1  25
TORSDOF 8
ENDMDL
MODEL 4
REMARK VINA RESULT:      -8.4      1.326      5.417
REMARK  Name = 
REMARK  9 active torsions:
REMARK  status: ('A' for Active; 'I' for Inactive)
REMARK    1  A    between atoms: C_1  and  C_2
REMARK    2  A    between atoms: C_6  and  C_8
REMARK    3  A    between atoms: C_8  and  O_9
REMARK    4  A    between atoms: O_9  and  C_10
REMARK    5  A    between atoms: C_10  and  C_12
REMARK    6  A    between atoms: C_12  and  C_13
REMARK    7  A    between atoms: C_12  and  N_20
REMARK    8  A    between atoms: C_13  and  C_14
REMARK    9  A    between atoms: C_21  and  C_23
REMARK                            x       y       z     vdW  Elec       q    Type
REMARK                         _______ _______ _______ _____ _____    ______ ____
ROOT
ATOM      1  C   UNL     1       5.270   4.514  17.831  0.00  0.00    +0.000 C 
ENDROOT
BRANCH   1   2
ATOM      2  N   UNL     1       5.802   4.263  16.491  0.00  0.00    +0.000 N 
ATOM      3  C   UNL     1       5.635   5.142  15.447  0.00  0.00    +0.000 C 
ATOM      4  O   UNL     1       5.036   6.206  15.583  0.00  0.00    +0.000 OA
ATOM      5  H   UNL     1       6.340   3.418  16.322  0.00  0.00    +0.000 HD
BRANCH   3   6
ATOM      6  C   UNL     1       6.189   4.699  14.187  0.00  0.00    +0.000 A 
ATOM      7  C   UNL     1       5.763   3.719  13.311  0.00  0.00    +0.000 A 
ATOM      8  C   UNL     1       6.674   3.714  12.228  0.00  0.00    +0.000 A 
ATOM      9  C   UNL     1       7.608   4.680  12.512  0.00  0.00    +0.000 A 
ATOM     10  O   UNL     1       7.331   5.282  13.698  0.00  0.00    +0.000 OA
ENDBRANCH   3   6
ENDBRANCH   1   2
BRANCH   1  11
ATOM     11  C   UNL     1       6.244   5.308  18.718  0.00  0.00    +0.000 C 
ATOM     12  O   UNL     1       6.196   5.348  19.944  0.00  0.00    +0.000 OA
BRANCH  11  13
ATOM     13  O   UNL     1       7.164   5.988  17.976  0.00  0.00    +0.000 OA
BRANCH  13  14
ATOM     14  C   UNL     1       8.165   6.671  18.735  0.00  0.00    +0.000 C 
BRANCH  14  20
ATOM     15  C   UNL     1      10.211  13.735  19.727  0.00  0.00    +0.000 C 
ATOM     16  C   UNL     1       9.740  12.389  19.362  0.00  0.00    +0.000 A 
ATOM     17  C   UNL     1       9.848  11.131  19.908  0.00  0.00    +0.000 A 
ATOM     18  C   UNL     1       9.145  10.289  19.007  0.00  0.00    +0.000 A 
ATOM     19  N   UNL     1       8.980   8.925  19.174  0.00  0.00    +0.000 N 
ATOM     20  C   UNL     1       8.267   8.129  18.292  0.00  0.00    +0.000 C 
ATOM     21  O   UNL     1       7.709   8.492  17.261  0.00  0.00    +0.000 OA
ATOM     22  N   UNL     1       8.664  11.003  17.986  0.00  0.00    +0.000 NA
ATOM     23  O   UNL     1       9.026  12.310  18.212  0.00  0.00    +0.000 OA
ATOM     24  H   UNL     1       9.323   8.520  20.036  0.00  0.00    +0.000 HD
ENDBRANCH  14  20
ENDBRANCH  13  14
ENDBRANCH  11  13
ENDBRANCH   1  11
BRANCH   1  25
ATOM     25  C   UNL     1       4.809   3.239  18.567  0.00  0.00    +0.000 C 
BRANCH  25  26
ATOM     26  C   UNL     1       3.522   3.403  19.346  0.00  0.00    +0.000 A 
ATOM     27  C   UNL     1       2.536   4.299  18.916  0.00  0.00    +0.000 A 
ATOM     28  C   UNL     1       1.377   4.487  19.670  0.00  0.00    +0.000 A 
ATOM     29  C   UNL     1       1.192   3.780  20.858  0.00  0.00    +0.000 A 
ATOM     30  C   UNL     1       2.155   2.869  21.283  0.00  0.00    +0.000 A 
ATOM     31  C   UNL     1       3.311   2.676  20.527  0.00  0.00    +0.000 A 
ENDBRANCH  25  26
ENDBRANCH   1  25
TORSDOF 8
ENDMDL
MODEL 5
REMARK VINA RESULT:      -8.4      1.847      5.444
REMARK  Name = 
REMARK  9 active torsions:
REMARK  status: ('A' for Active; 'I' for Inactive)
REMARK    1  A    between atoms: C_1  and  C_2
REMARK    2  A    between atoms: C_6  and  C_8
REMARK    3  A    between atoms: C_8  and  O_9
REMARK    4  A    between atoms: O_9  and  C_10
REMARK    5  A    between atoms: C_10  and  C_12
REMARK    6  A    between atoms: C_12  and  C_13
REMARK    7  A    between atoms: C_12  and  N_20
REMARK    8  A    between atoms: C_13  and  C_14
REMARK    9  A    between atoms: C_21  and  C_23
REMARK                            x       y       z     vdW  Elec       q    Type
REMARK                         _______ _______ _______ _____ _____    ______ ____
ROOT
ATOM      1  C   UNL     1       4.887   4.892  17.175  0.00  0.00    +0.000 C 
ENDROOT
BRANCH   1   2
ATOM      2  N   UNL     1       5.202   4.284  15.881  0.00  0.00    +0.000 N 
ATOM      3  C   UNL     1       5.698   5.006  14.821  0.00  0.00    +0.000 C 
ATOM      4  O   UNL     1       5.920   6.211  14.902  0.00  0.00    +0.000 OA
ATOM      5  H   UNL     1       5.075   3.283  15.760  0.00  0.00    +0.000 HD
BRANCH   3   6
ATOM      6  C   UNL     1       5.901   4.241  13.609  0.00  0.00    +0.000 A 
ATOM      7  C   UNL     1       7.038   4.046  12.849  0.00  0.00    +0.000 A 
ATOM      8  C   UNL     1       6.672   3.201  11.775  0.00  0.00    +0.000 A 
ATOM      9  C   UNL     1       5.332   2.941  11.935  0.00  0.00    +0.000 A 
ATOM     10  O   UNL     1       4.850   3.569  13.039  0.00  0.00    +0.000 OA
ENDBRANCH   3   6
ENDBRANCH   1   2
BRANCH   1  11
ATOM     11  C   UNL     1       6.004   4.690  18.213  0.00  0.00    +0.000 C 
ATOM     12  O   UNL     1       5.856   4.132  19.296  0.00  0.00    +0.000 OA
BRANCH  11  13
ATOM     13  O   UNL     1       7.186   5.227  17.796  0.00  0.00    +0.000 OA
BRANCH  13  14
ATOM     14  C   UNL     1       7.837   6.068  18.752  0.00  0.00    +0.000 C 
BRANCH  14  20
ATOM     15  C   UNL     1       9.993  13.149  19.271  0.00  0.00    +0.000 C 
ATOM     16  C   UNL     1       9.510  11.788  18.993  0.00  0.00    +0.000 A 
ATOM     17  C   UNL     1       9.559  10.577  19.646  0.00  0.00    +0.000 A 
ATOM     18  C   UNL     1       8.886   9.676  18.779  0.00  0.00    +0.000 A 
ATOM     19  N   UNL     1       8.680   8.335  19.048  0.00  0.00    +0.000 N 
ATOM     20  C   UNL     1       7.997   7.482  18.197  0.00  0.00    +0.000 C 
ATOM     21  O   UNL     1       7.504   7.768  17.110  0.00  0.00    +0.000 OA
ATOM     22  N   UNL     1       8.477  10.312  17.678  0.00  0.00    +0.000 NA
ATOM     23  O   UNL     1       8.857  11.627  17.815  0.00  0.00    +0.000 OA
ATOM     24  H   UNL     1       8.967   7.996  19.958  0.00  0.00    +0.000 HD
ENDBRANCH  14  20
ENDBRANCH  13  14
ENDBRANCH  11  13
ENDBRANCH   1  11
BRANCH   1  25
ATOM     25  C   UNL     1       3.534   4.440  17.763  0.00  0.00    +0.000 C 
BRANCH  25  26
ATOM     26  C   UNL     1       2.898   5.444  18.699  0.00  0.00    +0.000 A 
ATOM     27  C   UNL     1       2.295   5.026  19.892  0.00  0.00    +0.000 A 
ATOM     28  C   UNL     1       1.661   5.950  20.723  0.00  0.00    +0.000 A 
ATOM     29  C   UNL     1       1.624   7.299  20.372  0.00  0.00    +0.000 A 
ATOM     30  C   UNL     1       2.241   7.729  19.200  0.00  0.00    +0.000 A 
ATOM     31  C   UNL     1       2.881   6.808  18.371  0.00  0.00    +0.000 A 
ENDBRANCH  25  26
ENDBRANCH   1  25
TORSDOF 8
ENDMDL
MODEL 6
REMARK VINA RESULT:      -8.4      1.428      5.255
REMARK  Name = 
REMARK  9 active torsions:
REMARK  status: ('A' for Active; 'I' for Inactive)
REMARK    1  A    between atoms: C_1  and  C_2
REMARK    2  A    between atoms: C_6  and  C_8
REMARK    3  A    between atoms: C_8  and  O_9
REMARK    4  A    between atoms: O_9  and  C_10
REMARK    5  A    between atoms: C_10  and  C_12
REMARK    6  A    between atoms: C_12  and  C_13
REMARK    7  A    between atoms: C_12  and  N_20
REMARK    8  A    between atoms: C_13  and  C_14
REMARK    9  A    between atoms: C_21  and  C_23
REMARK                            x       y       z     vdW  Elec       q    Type
REMARK                         _______ _______ _______ _____ _____    ______ ____
ROOT
ATOM      1  C   UNL     1       5.396   5.081  17.923  0.00  0.00    +0.000 C 
ENDROOT
BRANCH   1   2
ATOM      2  N   UNL     1       5.699   5.007  16.493  0.00  0.00    +0.000 N 
ATOM      3  C   UNL     1       6.902   4.549  16.010  0.00  0.00    +0.000 C 
ATOM      4  O   UNL     1       7.796   4.157  16.756  0.00  0.00    +0.000 OA
ATOM      5  H   UNL     1       4.988   5.281  15.822  0.00  0.00    +0.000 HD
BRANCH   3   6
ATOM      6  C   UNL     1       7.035   4.596  14.570  0.00  0.00    +0.000 A 
ATOM      7  C   UNL     1       6.386   3.879  13.583  0.00  0.00    +0.000 A 
ATOM      8  C   UNL     1       6.896   4.335  12.344  0.00  0.00    +0.000 A 
ATOM      9  C   UNL     1       7.833   5.292  12.648  0.00  0.00    +0.000 A 
ATOM     10  O   UNL     1       7.932   5.457  13.993  0.00  0.00    +0.000 OA
ENDBRANCH   3   6
ENDBRANCH   1   2
BRANCH   1  11
ATOM     11  C   UNL     1       6.526   5.733  18.737  0.00  0.00    +0.000 C 
ATOM     12  O   UNL     1       6.957   5.301  19.802  0.00  0.00    +0.000 OA
BRANCH  11  13
ATOM     13  O   UNL     1       6.985   6.872  18.144  0.00  0.00    +0.000 OA
BRANCH  13  14
ATOM     14  C   UNL     1       8.243   7.342  18.634  0.00  0.00    +0.000 C 
BRANCH  14  20
ATOM     15  C   UNL     1      10.905  14.085  20.219  0.00  0.00    +0.000 C 
ATOM     16  C   UNL     1      10.295  12.829  19.755  0.00  0.00    +0.000 A 
ATOM     17  C   UNL     1      10.380  11.505  20.119  0.00  0.00    +0.000 A 
ATOM     18  C   UNL     1       9.510  10.831  19.223  0.00  0.00    +0.000 A 
ATOM     19  N   UNL     1       9.269   9.469  19.238  0.00  0.00    +0.000 N 
ATOM     20  C   UNL     1       8.394   8.839  18.368  0.00  0.00    +0.000 C 
ATOM     21  O   UNL     1       7.737   9.366  17.476  0.00  0.00    +0.000 OA
ATOM     22  N   UNL     1       8.955  11.701  18.374  0.00  0.00    +0.000 NA
ATOM     23  O   UNL     1       9.437  12.944  18.711  0.00  0.00    +0.000 OA
ATOM     24  H   UNL     1       9.688   8.933  19.988  0.00  0.00    +0.000 HD
ENDBRANCH  14  20
ENDBRANCH  13  14
ENDBRANCH  11  13
ENDBRANCH   1  11
BRANCH   1  25
ATOM     25  C   UNL     1       5.011   3.725  18.549  0.00  0.00    +0.000 C 
BRANCH  25  26
ATOM     26  C   UNL     1       3.565   3.630  18.985  0.00  0.00    +0.000 A 
ATOM     27  C   UNL     1       2.533   3.620  18.038  0.00  0.00    +0.000 A 
ATOM     28  C   UNL     1       1.200   3.590  18.450  0.00  0.00    +0.000 A 
ATOM     29  C   UNL     1       0.886   3.567  19.807  0.00  0.00    +0.000 A 
ATOM     30  C   UNL     1       1.904   3.553  20.757  0.00  0.00    +0.000 A 
ATOM     31  C   UNL     1       3.238   3.577  20.348  0.00  0.00    +0.000 A 
ENDBRANCH  25  26
ENDBRANCH   1  25
TORSDOF 8
ENDMDL
MODEL 7
REMARK VINA RESULT:      -8.4      1.511      5.473
REMARK  Name = 
REMARK  9 active torsions:
REMARK  status: ('A' for Active; 'I' for Inactive)
REMARK    1  A    between atoms: C_1  and  C_2
REMARK    2  A    between atoms: C_6  and  C_8
REMARK    3  A    between atoms: C_8  and  O_9
REMARK    4  A    between atoms: O_9  and  C_10
REMARK    5  A    between atoms: C_10  and  C_12
REMARK    6  A    between atoms: C_12  and  C_13
REMARK    7  A    between atoms: C_12  and  N_20
REMARK    8  A    between atoms: C_13  and  C_14
REMARK    9  A    between atoms: C_21  and  C_23
REMARK                            x       y       z     vdW  Elec       q    Type
REMARK                         _______ _______ _______ _____ _____    ______ ____
ROOT
ATOM      1  C   UNL     1       5.080   4.220  17.373  0.00  0.00    +0.000 C 
ENDROOT
BRANCH   1   2
ATOM      2  N   UNL     1       5.644   3.991  16.041  0.00  0.00    +0.000 N 
ATOM      3  C   UNL     1       5.715   4.976  15.084  0.00  0.00    +0.000 C 
ATOM      4  O   UNL     1       5.320   6.119  15.296  0.00  0.00    +0.000 OA
ATOM      5  H   UNL     1       6.023   3.076  15.815  0.00  0.00    +0.000 HD
BRANCH   3   6
ATOM      6  C   UNL     1       6.259   4.547  13.813  0.00  0.00    +0.000 A 
ATOM      7  C   UNL     1       7.365   4.990  13.112  0.00  0.00    +0.000 A 
ATOM      8  C   UNL     1       7.439   4.213  11.932  0.00  0.00    +0.000 A 
ATOM      9  C   UNL     1       6.369   3.352  11.976  0.00  0.00    +0.000 A 
ATOM     10  O   UNL     1       5.643   3.546  13.107  0.00  0.00    +0.000 OA
ENDBRANCH   3   6
ENDBRANCH   1   2
BRANCH   1  11
ATOM     11  C   UNL     1       6.151   4.577  18.418  0.00  0.00    +0.000 C 
ATOM     12  O   UNL     1       6.072   4.315  19.614  0.00  0.00    +0.000 OA
BRANCH  11  13
ATOM     13  O   UNL     1       7.201   5.244  17.859  0.00  0.00    +0.000 OA
BRANCH  13  14
ATOM     14  C   UNL     1       7.930   6.082  18.758  0.00  0.00    +0.000 C 
BRANCH  14  20
ATOM     15  C   UNL     1       9.934  13.213  19.211  0.00  0.00    +0.000 C 
ATOM     16  C   UNL     1       9.468  11.842  18.950  0.00  0.00    +0.000 A 
ATOM     17  C   UNL     1       9.594  10.627  19.584  0.00  0.00    +0.000 A 
ATOM     18  C   UNL     1       8.885   9.717  18.756  0.00  0.00    +0.000 A 
ATOM     19  N   UNL     1       8.733   8.368  19.022  0.00  0.00    +0.000 N 
ATOM     20  C   UNL     1       8.014   7.506  18.211  0.00  0.00    +0.000 C 
ATOM     21  O   UNL     1       7.438   7.789  17.165  0.00  0.00    +0.000 OA
ATOM     22  N   UNL     1       8.383  10.353  17.693  0.00  0.00    +0.000 NA
ATOM     23  O   UNL     1       8.738  11.676  17.819  0.00  0.00    +0.000 OA
ATOM     24  H   UNL     1       9.092   8.027  19.906  0.00  0.00    +0.000 HD
ENDBRANCH  14  20
ENDBRANCH  13  14
ENDBRANCH  11  13
ENDBRANCH   1  11
BRANCH   1  25
ATOM     25  C   UNL     1       4.208   3.057  17.889  0.00  0.00    +0.000 C 
BRANCH  25  26
ATOM     26  C   UNL     1       3.113   3.478  18.843  0.00  0.00    +0.000 A 
ATOM     27  C   UNL     1       2.500   2.542  19.685  0.00  0.00    +0.000 A 
ATOM     28  C   UNL     1       1.451   2.927  20.522  0.00  0.00    +0.000 A 
ATOM     29  C   UNL     1       1.008   4.248  20.528  0.00  0.00    +0.000 A 
ATOM     30  C   UNL     1       1.626   5.193  19.712  0.00  0.00    +0.000 A 
ATOM     31  C   UNL     1       2.678   4.812  18.879  0.00  0.00    +0.000 A 
ENDBRANCH  25  26
ENDBRANCH   1  25
TORSDOF 8
ENDMDL
MODEL 8
REMARK VINA RESULT:      -8.2      1.561      5.065
REMARK  Name = 
REMARK  9 active torsions:
REMARK  status: ('A' for Active; 'I' for Inactive)
REMARK    1  A    between atoms: C_1  and  C_2
REMARK    2  A    between atoms: C_6  and  C_8
REMARK    3  A    between atoms: C_8  and  O_9
REMARK    4  A    between atoms: O_9  and  C_10
REMARK    5  A    between atoms: C_10  and  C_12
REMARK    6  A    between atoms: C_12  and  C_13
REMARK    7  A    between atoms: C_12  and  N_20
REMARK    8  A    between atoms: C_13  and  C_14
REMARK    9  A    between atoms: C_21  and  C_23
REMARK                            x       y       z     vdW  Elec       q    Type
REMARK                         _______ _______ _______ _____ _____    ______ ____
ROOT
ATOM      1  C   UNL     1       5.300   5.918  16.935  0.00  0.00    +0.000 C 
ENDROOT
BRANCH   1   2
ATOM      2  N   UNL     1       5.387   5.180  15.674  0.00  0.00    +0.000 N 
ATOM      3  C   UNL     1       6.534   5.128  14.919  0.00  0.00    +0.000 C 
ATOM      4  O   UNL     1       7.568   5.693  15.267  0.00  0.00    +0.000 OA
ATOM      5  H   UNL     1       4.576   4.660  15.349  0.00  0.00    +0.000 HD
BRANCH   3   6
ATOM      6  C   UNL     1       6.412   4.390  13.680  0.00  0.00    +0.000 A 
ATOM      7  C   UNL     1       7.316   4.202  12.652  0.00  0.00    +0.000 A 
ATOM      8  C   UNL     1       6.676   3.386  11.690  0.00  0.00    +0.000 A 
ATOM      9  C   UNL     1       5.418   3.133  12.181  0.00  0.00    +0.000 A 
ATOM     10  O   UNL     1       5.241   3.740  13.383  0.00  0.00    +0.000 OA
ENDBRANCH   3   6
ENDBRANCH   1   2
BRANCH   1  11
ATOM     11  C   UNL     1       6.045   5.219  18.085  0.00  0.00    +0.000 C 
ATOM     12  O   UNL     1       6.130   4.002  18.223  0.00  0.00    +0.000 OA
BRANCH  11  13
ATOM     13  O   UNL     1       6.589   6.117  18.956  0.00  0.00    +0.000 OA
BRANCH  13  14
ATOM     14  C   UNL     1       7.978   6.386  18.754  0.00  0.00    +0.000 C 
BRANCH  14  20
ATOM     15  C   UNL     1      10.168  13.415  19.687  0.00  0.00    +0.000 C 
ATOM     16  C   UNL     1       9.688  12.072  19.326  0.00  0.00    +0.000 A 
ATOM     17  C   UNL     1       9.693  10.834  19.928  0.00  0.00    +0.000 A 
ATOM     18  C   UNL     1       9.057   9.978  18.991  0.00  0.00    +0.000 A 
ATOM     19  N   UNL     1       8.826   8.629  19.191  0.00  0.00    +0.000 N 
ATOM     20  C   UNL     1       8.179   7.821  18.270  0.00  0.00    +0.000 C 
ATOM     21  O   UNL     1       7.743   8.158  17.174  0.00  0.00    +0.000 OA
ATOM     22  N   UNL     1       8.709  10.665  17.899  0.00  0.00    +0.000 NA
ATOM     23  O   UNL     1       9.094  11.968  18.111  0.00  0.00    +0.000 OA
ATOM     24  H   UNL     1       9.063   8.248  20.098  0.00  0.00    +0.000 HD
ENDBRANCH  14  20
ENDBRANCH  13  14
ENDBRANCH  11  13
ENDBRANCH   1  11
BRANCH   1  25
ATOM     25  C   UNL     1       3.857   6.248  17.367  0.00  0.00    +0.000 C 
BRANCH  25  26
ATOM     26  C   UNL     1       3.060   5.050  17.837  0.00  0.00    +0.000 A 
ATOM     27  C   UNL     1       2.363   5.089  19.051  0.00  0.00    +0.000 A 
ATOM     28  C   UNL     1       1.678   3.961  19.506  0.00  0.00    +0.000 A 
ATOM     29  C   UNL     1       1.681   2.788  18.753  0.00  0.00    +0.000 A 
ATOM     30  C   UNL     1       2.351   2.746  17.533  0.00  0.00    +0.000 A 
ATOM     31  C   UNL     1       3.032   3.874  17.074  0.00  0.00    +0.000 A 
ENDBRANCH  25  26
ENDBRANCH   1  25
TORSDOF 8
ENDMDL
MODEL 9
REMARK VINA RESULT:      -8.2      3.753      7.568
REMARK  Name = 
REMARK  9 active torsions:
REMARK  status: ('A' for Active; 'I' for Inactive)
REMARK    1  A    between atoms: C_1  and  C_2
REMARK    2  A    between atoms: C_6  and  C_8
REMARK    3  A    between atoms: C_8  and  O_9
REMARK    4  A    between atoms: O_9  and  C_10
REMARK    5  A    between atoms: C_10  and  C_12
REMARK    6  A    between atoms: C_12  and  C_13
REMARK    7  A    between atoms: C_12  and  N_20
REMARK    8  A    between atoms: C_13  and  C_14
REMARK    9  A    between atoms: C_21  and  C_23
REMARK                            x       y       z     vdW  Elec       q    Type
REMARK                         _______ _______ _______ _____ _____    ______ ____
ROOT
ATOM      1  C   UNL     1       2.721   6.753  18.738  0.00  0.00    +0.000 C 
ENDROOT
BRANCH   1   2
ATOM      2  N   UNL     1       1.944   7.990  18.652  0.00  0.00    +0.000 N 
ATOM      3  C   UNL     1       1.438   8.630  19.759  0.00  0.00    +0.000 C 
ATOM      4  O   UNL     1       1.623   8.206  20.896  0.00  0.00    +0.000 OA
ATOM      5  H   UNL     1       1.787   8.414  17.741  0.00  0.00    +0.000 HD
BRANCH   3   6
ATOM      6  C   UNL     1       0.655   9.812  19.470  0.00  0.00    +0.000 A 
ATOM      7  C   UNL     1       0.045  10.225  18.300  0.00  0.00    +0.000 A 
ATOM      8  C   UNL     1      -0.597  11.452  18.585  0.00  0.00    +0.000 A 
ATOM      9  C   UNL     1      -0.332  11.723  19.906  0.00  0.00    +0.000 A 
ATOM     10  O   UNL     1       0.430  10.741  20.454  0.00  0.00    +0.000 OA
ENDBRANCH   3   6
ENDBRANCH   1   2
BRANCH   1  11
ATOM     11  C   UNL     1       4.040   6.824  17.950  0.00  0.00    +0.000 C 
ATOM     12  O   UNL     1       4.267   7.618  17.042  0.00  0.00    +0.000 OA
BRANCH  11  13
ATOM     13  O   UNL     1       4.931   5.880  18.368  0.00  0.00    +0.000 OA
BRANCH  13  14
ATOM     14  C   UNL     1       6.303   6.275  18.304  0.00  0.00    +0.000 C 
BRANCH  14  20
ATOM     15  C   UNL     1       6.621   3.075  11.617  0.00  0.00    +0.000 C 
ATOM     16  C   UNL     1       6.679   3.837  12.874  0.00  0.00    +0.000 A 
ATOM     17  C   UNL     1       6.012   3.796  14.077  0.00  0.00    +0.000 A 
ATOM     18  C   UNL     1       6.587   4.846  14.841  0.00  0.00    +0.000 A 
ATOM     19  N   UNL     1       6.227   5.160  16.139  0.00  0.00    +0.000 N 
ATOM     20  C   UNL     1       6.822   6.174  16.871  0.00  0.00    +0.000 C 
ATOM     21  O   UNL     1       7.711   6.930  16.493  0.00  0.00    +0.000 OA
ATOM     22  N   UNL     1       7.525   5.476  14.128  0.00  0.00    +0.000 NA
ATOM     23  O   UNL     1       7.588   4.843  12.909  0.00  0.00    +0.000 OA
ATOM     24  H   UNL     1       5.560   4.550  16.595  0.00  0.00    +0.000 HD
ENDBRANCH  14  20
ENDBRANCH  13  14
ENDBRANCH  11  13
ENDBRANCH   1  11
BRANCH   1  25
ATOM     25  C   UNL     1       1.932   5.491  18.331  0.00  0.00    +0.000 C 
BRANCH  25  26
ATOM     26  C   UNL     1       1.792   4.464  19.433  0.00  0.00    +0.000 A 
ATOM     27  C   UNL     1       2.327   4.704  20.705  0.00  0.00    +0.000 A 
ATOM     28  C   UNL     1       2.243   3.729  21.700  0.00  0.00    +0.000 A 
ATOM     29  C   UNL     1       1.625   2.508  21.434  0.00  0.00    +0.000 A 
ATOM     30  C   UNL     1       1.070   2.267  20.180  0.00  0.00    +0.000 A 
ATOM     31  C   UNL     1       1.146   3.243  19.186  0.00  0.00    +0.000 A 
ENDBRANCH  25  26
ENDBRANCH   1  25
TORSDOF 8
ENDMDL
