MODEL 1
REMARK VINA RESULT:      -7.7      0.000      0.000
REMARK  Name = 
REMARK  12 active torsions:
REMARK  status: ('A' for Active; 'I' for Inactive)
REMARK    1  A    between atoms: C_1  and  C_2
REMARK    2  A    between atoms: C_2  and  O_3
REMARK    3  A    between atoms: O_3  and  C_4
REMARK    4  A    between atoms: C_7  and  C_8
REMARK    5  A    between atoms: C_8  and  C_9
REMARK    6  A    between atoms: C_9  and  N_10
REMARK    7  A    between atoms: C_11  and  C_13
REMARK    8  A    between atoms: C_15  and  C_16
REMARK    9  A    between atoms: C_22  and  N_23
REMARK   10  A    between atoms: C_31  and  O_32
REMARK   11  A    between atoms: O_32  and  C_33
REMARK   12  A    between atoms: C_33  and  C_34
REMARK                            x       y       z     vdW  Elec       q    Type
REMARK                         _______ _______ _______ _____ _____    ______ ____
ROOT
ATOM      1  N   UNL     1       1.341  10.031  19.202  0.00  0.00    +0.000 N 
ATOM      2  C   UNL     1       2.084   9.622  18.109  0.00  0.00    +0.000 C 
ATOM      3  O   UNL     1       2.317  10.387  17.175  0.00  0.00    +0.000 OA
ATOM      4  H   UNL     1       1.166   9.355  19.933  0.00  0.00    +0.000 HD
ENDROOT
BRANCH   2   5
ATOM      5  C   UNL     1       2.568   8.246  18.138  0.00  0.00    +0.000 A 
ATOM      6  C   UNL     1       1.927   7.152  18.679  0.00  0.00    +0.000 A 
ATOM      7  C   UNL     1       2.665   5.917  18.559  0.00  0.00    +0.000 A 
ATOM      8  C   UNL     1       3.872   6.111  17.872  0.00  0.00    +0.000 A 
ATOM      9  S   UNL     1       4.067   7.791  17.480  0.00  0.00    +0.000 S 
BRANCH   7  10
ATOM     10  C   UNL     1       2.206   4.626  19.109  0.00  0.00    +0.000 A 
ATOM     11  C   UNL     1       2.351   4.346  20.477  0.00  0.00    +0.000 A 
ATOM     12  C   UNL     1       1.883   3.138  21.015  0.00  0.00    +0.000 A 
ATOM     13  C   UNL     1       1.226   2.215  20.204  0.00  0.00    +0.000 A 
ATOM     14  C   UNL     1       1.085   2.476  18.844  0.00  0.00    +0.000 A 
ATOM     15  C   UNL     1       1.614   3.648  18.299  0.00  0.00    +0.000 A 
ENDBRANCH   7  10
BRANCH   8  16
ATOM     16  N   UNL     1       4.830   5.203  17.484  0.00  0.00    +0.000 N 
ATOM     17  C   UNL     1       5.808   4.613  18.410  0.00  0.00    +0.000 C 
ATOM     18  C   UNL     1       7.239   4.863  17.907  0.00  0.00    +0.000 C 
ATOM     19  O   UNL     1       7.418   4.415  16.553  0.00  0.00    +0.000 OA
ATOM     20  C   UNL     1       6.505   5.100  15.680  0.00  0.00    +0.000 C 
ATOM     21  C   UNL     1       5.050   4.832  16.077  0.00  0.00    +0.000 C 
ENDBRANCH   8  16
ENDBRANCH   2   5
BRANCH   1  22
ATOM     22  C   UNL     1       0.790  11.372  19.296  0.00  0.00    +0.000 C 
BRANCH  22  23
ATOM     23  C   UNL     1      -0.078  11.566  20.545  0.00  0.00    +0.000 C 
BRANCH  23  27
ATOM     24  C   UNL     1      -4.192  12.428  19.511  0.00  0.00    +0.000 A 
ATOM     25  C   UNL     1      -3.697  12.693  20.792  0.00  0.00    +0.000 A 
ATOM     26  C   UNL     1      -2.377  12.394  21.147  0.00  0.00    +0.000 A 
ATOM     27  C   UNL     1      -1.522  11.815  20.211  0.00  0.00    +0.000 A 
ATOM     28  C   UNL     1      -2.031  11.491  18.943  0.00  0.00    +0.000 A 
ATOM     29  C   UNL     1      -3.371  11.753  18.594  0.00  0.00    +0.000 A 
BRANCH  24  30
ATOM     30  O   UNL     1      -5.442  12.838  19.117  0.00  0.00    +0.000 OA
BRANCH  30  32
ATOM     31  C   UNL     1      -6.942  11.066  18.498  0.00  0.00    +0.000 C 
ATOM     32  C   UNL     1      -6.535  12.043  19.586  0.00  0.00    +0.000 C 
ENDBRANCH  30  32
ENDBRANCH  24  30
BRANCH  29  33
ATOM     33  O   UNL     1      -3.681  11.346  17.322  0.00  0.00    +0.000 OA
BRANCH  33  34
ATOM     34  C   UNL     1      -2.595  11.005  16.462  0.00  0.00    +0.000 C 
ATOM     35  C   UNL     1      -3.029   9.846  15.575  0.00  0.00    +0.000 C 
ENDBRANCH  33  34
ENDBRANCH  29  33
ENDBRANCH  23  27
ENDBRANCH  22  23
ENDBRANCH   1  22
TORSDOF 10
ENDMDL
MODEL 2
REMARK VINA RESULT:      -7.6      1.784      2.792
REMARK  Name = 
REMARK  12 active torsions:
REMARK  status: ('A' for Active; 'I' for Inactive)
REMARK    1  A    between atoms: C_1  and  C_2
REMARK    2  A    between atoms: C_2  and  O_3
REMARK    3  A    between atoms: O_3  and  C_4
REMARK    4  A    between atoms: C_7  and  C_8
REMARK    5  A    between atoms: C_8  and  C_9
REMARK    6  A    between atoms: C_9  and  N_10
REMARK    7  A    between atoms: C_11  and  C_13
REMARK    8  A    between atoms: C_15  and  C_16
REMARK    9  A    between atoms: C_22  and  N_23
REMARK   10  A    between atoms: C_31  and  O_32
REMARK   11  A    between atoms: O_32  and  C_33
REMARK   12  A    between atoms: C_33  and  C_34
REMARK                            x       y       z     vdW  Elec       q    Type
REMARK                         _______ _______ _______ _____ _____    ______ ____
ROOT
ATOM      1  N   UNL     1       0.728   9.615  17.872  0.00  0.00    +0.000 N 
ATOM      2  C   UNL     1       1.369   8.917  18.880  0.00  0.00    +0.000 C 
ATOM      3  O   UNL     1       1.152   9.169  20.064  0.00  0.00    +0.000 OA
ATOM      4  H   UNL     1       0.958   9.379  16.915  0.00  0.00    +0.000 HD
ENDROOT
BRANCH   2   5
ATOM      5  C   UNL     1       2.301   7.879  18.454  0.00  0.00    +0.000 A 
ATOM      6  C   UNL     1       2.180   6.521  18.656  0.00  0.00    +0.000 A 
ATOM      7  C   UNL     1       3.272   5.745  18.119  0.00  0.00    +0.000 A 
ATOM      8  C   UNL     1       4.206   6.564  17.468  0.00  0.00    +0.000 A 
ATOM      9  S   UNL     1       3.735   8.229  17.613  0.00  0.00    +0.000 S 
BRANCH   7  10
ATOM     10  C   UNL     1       3.389   4.280  18.259  0.00  0.00    +0.000 A 
ATOM     11  C   UNL     1       4.167   3.726  19.288  0.00  0.00    +0.000 A 
ATOM     12  C   UNL     1       4.253   2.335  19.452  0.00  0.00    +0.000 A 
ATOM     13  C   UNL     1       3.530   1.483  18.621  0.00  0.00    +0.000 A 
ATOM     14  C   UNL     1       2.762   2.019  17.590  0.00  0.00    +0.000 A 
ATOM     15  C   UNL     1       2.735   3.400  17.385  0.00  0.00    +0.000 A 
ENDBRANCH   7  10
BRANCH   8  16
ATOM     16  N   UNL     1       5.344   6.235  16.768  0.00  0.00    +0.000 N 
ATOM     17  C   UNL     1       5.325   5.717  15.392  0.00  0.00    +0.000 C 
ATOM     18  C   UNL     1       6.067   4.373  15.317  0.00  0.00    +0.000 C 
ATOM     19  O   UNL     1       7.396   4.463  15.858  0.00  0.00    +0.000 OA
ATOM     20  C   UNL     1       7.345   4.875  17.233  0.00  0.00    +0.000 C 
ATOM     21  C   UNL     1       6.683   6.250  17.376  0.00  0.00    +0.000 C 
ENDBRANCH   8  16
ENDBRANCH   2   5
BRANCH   1  22
ATOM     22  C   UNL     1      -0.215  10.682  18.157  0.00  0.00    +0.000 C 
BRANCH  22  23
ATOM     23  C   UNL     1      -1.626  10.375  17.640  0.00  0.00    +0.000 C 
BRANCH  23  27
ATOM     24  C   UNL     1      -4.697  12.625  19.700  0.00  0.00    +0.000 A 
ATOM     25  C   UNL     1      -4.965  11.973  18.492  0.00  0.00    +0.000 A 
ATOM     26  C   UNL     1      -3.973  11.266  17.803  0.00  0.00    +0.000 A 
ATOM     27  C   UNL     1      -2.681  11.202  18.319  0.00  0.00    +0.000 A 
ATOM     28  C   UNL     1      -2.392  11.906  19.500  0.00  0.00    +0.000 A 
ATOM     29  C   UNL     1      -3.377  12.653  20.176  0.00  0.00    +0.000 A 
BRANCH  24  30
ATOM     30  O   UNL     1      -5.691  13.208  20.446  0.00  0.00    +0.000 OA
BRANCH  30  32
ATOM     31  C   UNL     1      -7.634  11.932  21.055  0.00  0.00    +0.000 C 
ATOM     32  C   UNL     1      -6.253  12.394  21.481  0.00  0.00    +0.000 C 
ENDBRANCH  30  32
ENDBRANCH  24  30
BRANCH  29  33
ATOM     33  O   UNL     1      -2.894  13.283  21.295  0.00  0.00    +0.000 OA
BRANCH  33  34
ATOM     34  C   UNL     1      -2.604  12.469  22.430  0.00  0.00    +0.000 C 
ATOM     35  C   UNL     1      -1.251  12.887  22.988  0.00  0.00    +0.000 C 
ENDBRANCH  33  34
ENDBRANCH  29  33
ENDBRANCH  23  27
ENDBRANCH  22  23
ENDBRANCH   1  22
TORSDOF 10
ENDMDL
MODEL 3
REMARK VINA RESULT:      -7.6      2.395      3.047
REMARK  Name = 
REMARK  12 active torsions:
REMARK  status: ('A' for Active; 'I' for Inactive)
REMARK    1  A    between atoms: C_1  and  C_2
REMARK    2  A    between atoms: C_2  and  O_3
REMARK    3  A    between atoms: O_3  and  C_4
REMARK    4  A    between atoms: C_7  and  C_8
REMARK    5  A    between atoms: C_8  and  C_9
REMARK    6  A    between atoms: C_9  and  N_10
REMARK    7  A    between atoms: C_11  and  C_13
REMARK    8  A    between atoms: C_15  and  C_16
REMARK    9  A    between atoms: C_22  and  N_23
REMARK   10  A    between atoms: C_31  and  O_32
REMARK   11  A    between atoms: O_32  and  C_33
REMARK   12  A    between atoms: C_33  and  C_34
REMARK                            x       y       z     vdW  Elec       q    Type
REMARK                         _______ _______ _______ _____ _____    ______ ____
ROOT
ATOM      1  N   UNL     1       2.530  10.674  17.885  0.00  0.00    +0.000 N 
ATOM      2  C   UNL     1       1.655   9.607  17.992  0.00  0.00    +0.000 C 
ATOM      3  O   UNL     1       0.438   9.776  17.949  0.00  0.00    +0.000 OA
ATOM      4  H   UNL     1       3.521  10.479  17.944  0.00  0.00    +0.000 HD
ENDROOT
BRANCH   2   5
ATOM      5  C   UNL     1       2.263   8.290  18.152  0.00  0.00    +0.000 A 
ATOM      6  C   UNL     1       1.734   7.209  18.824  0.00  0.00    +0.000 A 
ATOM      7  C   UNL     1       2.578   6.038  18.813  0.00  0.00    +0.000 A 
ATOM      8  C   UNL     1       3.750   6.263  18.075  0.00  0.00    +0.000 A 
ATOM      9  S   UNL     1       3.784   7.901  17.502  0.00  0.00    +0.000 S 
BRANCH   7  10
ATOM     10  C   UNL     1       2.250   4.778  19.510  0.00  0.00    +0.000 A 
ATOM     11  C   UNL     1       2.399   4.677  20.901  0.00  0.00    +0.000 A 
ATOM     12  C   UNL     1       2.052   3.497  21.576  0.00  0.00    +0.000 A 
ATOM     13  C   UNL     1       1.512   2.420  20.877  0.00  0.00    +0.000 A 
ATOM     14  C   UNL     1       1.368   2.504  19.494  0.00  0.00    +0.000 A 
ATOM     15  C   UNL     1       1.779   3.654  18.817  0.00  0.00    +0.000 A 
ENDBRANCH   7  10
BRANCH   8  16
ATOM     16  N   UNL     1       4.779   5.407  17.757  0.00  0.00    +0.000 N 
ATOM     17  C   UNL     1       5.848   5.043  18.698  0.00  0.00    +0.000 C 
ATOM     18  C   UNL     1       7.224   5.358  18.090  0.00  0.00    +0.000 C 
ATOM     19  O   UNL     1       7.393   4.751  16.798  0.00  0.00    +0.000 OA
ATOM     20  C   UNL     1       6.380   5.221  15.894  0.00  0.00    +0.000 C 
ATOM     21  C   UNL     1       4.977   4.871  16.401  0.00  0.00    +0.000 C 
ENDBRANCH   8  16
ENDBRANCH   2   5
BRANCH   1  22
ATOM     22  C   UNL     1       2.059  12.040  17.733  0.00  0.00    +0.000 C 
BRANCH  22  23
ATOM     23  C   UNL     1       2.205  12.861  19.019  0.00  0.00    +0.000 C 
BRANCH  23  27
ATOM     24  C   UNL     1      -1.238  12.279  21.576  0.00  0.00    +0.000 A 
ATOM     25  C   UNL     1      -1.238  13.255  20.574  0.00  0.00    +0.000 A 
ATOM     26  C   UNL     1      -0.121  13.471  19.759  0.00  0.00    +0.000 A 
ATOM     27  C   UNL     1       1.028  12.704  19.940  0.00  0.00    +0.000 A 
ATOM     28  C   UNL     1       1.054  11.765  20.984  0.00  0.00    +0.000 A 
ATOM     29  C   UNL     1      -0.054  11.572  21.833  0.00  0.00    +0.000 A 
BRANCH  24  30
ATOM     30  O   UNL     1      -2.371  11.972  22.289  0.00  0.00    +0.000 OA
BRANCH  30  32
ATOM     31  C   UNL     1      -4.387  12.821  23.286  0.00  0.00    +0.000 C 
ATOM     32  C   UNL     1      -2.893  13.021  23.112  0.00  0.00    +0.000 C 
ENDBRANCH  30  32
ENDBRANCH  24  30
BRANCH  29  33
ATOM     33  O   UNL     1       0.174  10.627  22.801  0.00  0.00    +0.000 OA
BRANCH  33  34
ATOM     34  C   UNL     1       0.746   9.389  22.385  0.00  0.00    +0.000 C 
ATOM     35  C   UNL     1      -0.326   8.582  21.665  0.00  0.00    +0.000 C 
ENDBRANCH  33  34
ENDBRANCH  29  33
ENDBRANCH  23  27
ENDBRANCH  22  23
ENDBRANCH   1  22
TORSDOF 10
ENDMDL
MODEL 4
REMARK VINA RESULT:      -7.6      2.624     10.413
REMARK  Name = 
REMARK  12 active torsions:
REMARK  status: ('A' for Active; 'I' for Inactive)
REMARK    1  A    between atoms: C_1  and  C_2
REMARK    2  A    between atoms: C_2  and  O_3
REMARK    3  A    between atoms: O_3  and  C_4
REMARK    4  A    between atoms: C_7  and  C_8
REMARK    5  A    between atoms: C_8  and  C_9
REMARK    6  A    between atoms: C_9  and  N_10
REMARK    7  A    between atoms: C_11  and  C_13
REMARK    8  A    between atoms: C_15  and  C_16
REMARK    9  A    between atoms: C_22  and  N_23
REMARK   10  A    between atoms: C_31  and  O_32
REMARK   11  A    between atoms: O_32  and  C_33
REMARK   12  A    between atoms: C_33  and  C_34
REMARK                            x       y       z     vdW  Elec       q    Type
REMARK                         _______ _______ _______ _____ _____    ______ ____
ROOT
ATOM      1  N   UNL     1       1.830   8.100  19.521  0.00  0.00    +0.000 N 
ATOM      2  C   UNL     1       1.788   9.007  18.477  0.00  0.00    +0.000 C 
ATOM      3  O   UNL     1       2.540   8.899  17.510  0.00  0.00    +0.000 OA
ATOM      4  H   UNL     1       1.200   8.247  20.299  0.00  0.00    +0.000 HD
ENDROOT
BRANCH   2   5
ATOM      5  C   UNL     1       0.808  10.081  18.595  0.00  0.00    +0.000 A 
ATOM      6  C   UNL     1      -0.519  10.038  18.221  0.00  0.00    +0.000 A 
ATOM      7  C   UNL     1      -1.238  11.267  18.459  0.00  0.00    +0.000 A 
ATOM      8  C   UNL     1      -0.415  12.229  19.063  0.00  0.00    +0.000 A 
ATOM      9  S   UNL     1       1.196  11.605  19.236  0.00  0.00    +0.000 S 
BRANCH   7  10
ATOM     10  C   UNL     1      -2.653  11.478  18.093  0.00  0.00    +0.000 A 
ATOM     11  C   UNL     1      -3.083  11.266  16.774  0.00  0.00    +0.000 A 
ATOM     12  C   UNL     1      -4.432  11.427  16.425  0.00  0.00    +0.000 A 
ATOM     13  C   UNL     1      -5.375  11.758  17.397  0.00  0.00    +0.000 A 
ATOM     14  C   UNL     1      -4.959  11.981  18.707  0.00  0.00    +0.000 A 
ATOM     15  C   UNL     1      -3.605  11.889  19.036  0.00  0.00    +0.000 A 
ENDBRANCH   7  10
BRANCH   8  16
ATOM     16  N   UNL     1      -0.710  13.494  19.517  0.00  0.00    +0.000 N 
ATOM     17  C   UNL     1      -0.415  14.716  18.753  0.00  0.00    +0.000 C 
ATOM     18  C   UNL     1       0.445  15.675  19.592  0.00  0.00    +0.000 C 
ATOM     19  O   UNL     1      -0.150  15.950  20.872  0.00  0.00    +0.000 OA
ATOM     20  C   UNL     1      -0.320  14.730  21.611  0.00  0.00    +0.000 C 
ATOM     21  C   UNL     1      -1.234  13.752  20.867  0.00  0.00    +0.000 C 
ENDBRANCH   8  16
ENDBRANCH   2   5
BRANCH   1  22
ATOM     22  C   UNL     1       2.766   6.990  19.536  0.00  0.00    +0.000 C 
BRANCH  22  23
ATOM     23  C   UNL     1       2.321   5.831  18.637  0.00  0.00    +0.000 C 
BRANCH  23  27
ATOM     24  C   UNL     1       5.521   4.234  16.198  0.00  0.00    +0.000 A 
ATOM     25  C   UNL     1       4.418   3.448  16.549  0.00  0.00    +0.000 A 
ATOM     26  C   UNL     1       3.391   3.945  17.360  0.00  0.00    +0.000 A 
ATOM     27  C   UNL     1       3.455   5.252  17.838  0.00  0.00    +0.000 A 
ATOM     28  C   UNL     1       4.589   6.024  17.538  0.00  0.00    +0.000 A 
ATOM     29  C   UNL     1       5.645   5.516  16.756  0.00  0.00    +0.000 A 
BRANCH  24  30
ATOM     30  O   UNL     1       6.464   3.800  15.298  0.00  0.00    +0.000 OA
BRANCH  30  32
ATOM     31  C   UNL     1       7.367   4.946  13.389  0.00  0.00    +0.000 C 
ATOM     32  C   UNL     1       6.212   4.122  13.927  0.00  0.00    +0.000 C 
ENDBRANCH  30  32
ENDBRANCH  24  30
BRANCH  29  33
ATOM     33  O   UNL     1       6.668   6.414  16.593  0.00  0.00    +0.000 OA
BRANCH  33  34
ATOM     34  C   UNL     1       7.404   6.785  17.757  0.00  0.00    +0.000 C 
ATOM     35  C   UNL     1       7.823   8.242  17.618  0.00  0.00    +0.000 C 
ENDBRANCH  33  34
ENDBRANCH  29  33
ENDBRANCH  23  27
ENDBRANCH  22  23
ENDBRANCH   1  22
TORSDOF 10
ENDMDL
MODEL 5
REMARK VINA RESULT:      -7.6      1.149      1.921
REMARK  Name = 
REMARK  12 active torsions:
REMARK  status: ('A' for Active; 'I' for Inactive)
REMARK    1  A    between atoms: C_1  and  C_2
REMARK    2  A    between atoms: C_2  and  O_3
REMARK    3  A    between atoms: O_3  and  C_4
REMARK    4  A    between atoms: C_7  and  C_8
REMARK    5  A    between atoms: C_8  and  C_9
REMARK    6  A    between atoms: C_9  and  N_10
REMARK    7  A    between atoms: C_11  and  C_13
REMARK    8  A    between atoms: C_15  and  C_16
REMARK    9  A    between atoms: C_22  and  N_23
REMARK   10  A    between atoms: C_31  and  O_32
REMARK   11  A    between atoms: O_32  and  C_33
REMARK   12  A    between atoms: C_33  and  C_34
REMARK                            x       y       z     vdW  Elec       q    Type
REMARK                         _______ _______ _______ _____ _____    ______ ____
ROOT
ATOM      1  N   UNL     1       0.754   9.770  18.890  0.00  0.00    +0.000 N 
ATOM      2  C   UNL     1       1.832   9.484  18.070  0.00  0.00    +0.000 C 
ATOM      3  O   UNL     1       2.267  10.318  17.278  0.00  0.00    +0.000 OA
ATOM      4  H   UNL     1       0.427   9.041  19.510  0.00  0.00    +0.000 HD
ENDROOT
BRANCH   2   5
ATOM      5  C   UNL     1       2.409   8.152  18.206  0.00  0.00    +0.000 A 
ATOM      6  C   UNL     1       1.881   7.086  18.904  0.00  0.00    +0.000 A 
ATOM      7  C   UNL     1       2.692   5.893  18.859  0.00  0.00    +0.000 A 
ATOM      8  C   UNL     1       3.835   6.084  18.069  0.00  0.00    +0.000 A 
ATOM      9  S   UNL     1       3.889   7.720  17.491  0.00  0.00    +0.000 S 
BRANCH   7  10
ATOM     10  C   UNL     1       2.360   4.643  19.572  0.00  0.00    +0.000 A 
ATOM     11  C   UNL     1       2.456   4.578  20.971  0.00  0.00    +0.000 A 
ATOM     12  C   UNL     1       2.106   3.407  21.660  0.00  0.00    +0.000 A 
ATOM     13  C   UNL     1       1.613   2.304  20.966  0.00  0.00    +0.000 A 
ATOM     14  C   UNL     1       1.522   2.352  19.578  0.00  0.00    +0.000 A 
ATOM     15  C   UNL     1       1.938   3.494  18.889  0.00  0.00    +0.000 A 
ENDBRANCH   7  10
BRANCH   8  16
ATOM     16  N   UNL     1       4.825   5.199  17.708  0.00  0.00    +0.000 N 
ATOM     17  C   UNL     1       5.876   4.741  18.629  0.00  0.00    +0.000 C 
ATOM     18  C   UNL     1       7.266   5.024  18.037  0.00  0.00    +0.000 C 
ATOM     19  O   UNL     1       7.408   4.475  16.715  0.00  0.00    +0.000 OA
ATOM     20  C   UNL     1       6.419   5.035  15.837  0.00  0.00    +0.000 C 
ATOM     21  C   UNL     1       5.001   4.724  16.326  0.00  0.00    +0.000 C 
ENDBRANCH   8  16
ENDBRANCH   2   5
BRANCH   1  22
ATOM     22  C   UNL     1       0.078  11.055  18.849  0.00  0.00    +0.000 C 
BRANCH  22  23
ATOM     23  C   UNL     1      -1.222  11.012  18.037  0.00  0.00    +0.000 C 
BRANCH  23  27
ATOM     24  C   UNL     1      -4.587  12.755  20.128  0.00  0.00    +0.000 A 
ATOM     25  C   UNL     1      -3.300  12.786  20.676  0.00  0.00    +0.000 A 
ATOM     26  C   UNL     1      -2.209  12.201  20.022  0.00  0.00    +0.000 A 
ATOM     27  C   UNL     1      -2.394  11.568  18.795  0.00  0.00    +0.000 A 
ATOM     28  C   UNL     1      -3.694  11.481  18.270  0.00  0.00    +0.000 A 
ATOM     29  C   UNL     1      -4.802  12.032  18.944  0.00  0.00    +0.000 A 
BRANCH  24  30
ATOM     30  O   UNL     1      -5.634  13.438  20.697  0.00  0.00    +0.000 OA
BRANCH  30  32
ATOM     31  C   UNL     1      -6.013  14.118  22.971  0.00  0.00    +0.000 C 
ATOM     32  C   UNL     1      -6.059  12.969  21.981  0.00  0.00    +0.000 C 
ENDBRANCH  30  32
ENDBRANCH  24  30
BRANCH  29  33
ATOM     33  O   UNL     1      -5.985  11.826  18.282  0.00  0.00    +0.000 OA
BRANCH  33  34
ATOM     34  C   UNL     1      -6.316  12.737  17.235  0.00  0.00    +0.000 C 
ATOM     35  C   UNL     1      -7.541  13.534  17.660  0.00  0.00    +0.000 C 
ENDBRANCH  33  34
ENDBRANCH  29  33
ENDBRANCH  23  27
ENDBRANCH  22  23
ENDBRANCH   1  22
TORSDOF 10
ENDMDL
MODEL 6
REMARK VINA RESULT:      -7.5      1.103      2.297
REMARK  Name = 
REMARK  12 active torsions:
REMARK  status: ('A' for Active; 'I' for Inactive)
REMARK    1  A    between atoms: C_1  and  C_2
REMARK    2  A    between atoms: C_2  and  O_3
REMARK    3  A    between atoms: O_3  and  C_4
REMARK    4  A    between atoms: C_7  and  C_8
REMARK    5  A    between atoms: C_8  and  C_9
REMARK    6  A    between atoms: C_9  and  N_10
REMARK    7  A    between atoms: C_11  and  C_13
REMARK    8  A    between atoms: C_15  and  C_16
REMARK    9  A    between atoms: C_22  and  N_23
REMARK   10  A    between atoms: C_31  and  O_32
REMARK   11  A    between atoms: O_32  and  C_33
REMARK   12  A    between atoms: C_33  and  C_34
REMARK                            x       y       z     vdW  Elec       q    Type
REMARK                         _______ _______ _______ _____ _____    ______ ____
ROOT
ATOM      1  N   UNL     1       0.381   9.596  17.995  0.00  0.00    +0.000 N 
ATOM      2  C   UNL     1       1.758   9.519  17.882  0.00  0.00    +0.000 C 
ATOM      3  O   UNL     1       2.433  10.515  17.629  0.00  0.00    +0.000 OA
ATOM      4  H   UNL     1      -0.125   8.741  18.188  0.00  0.00    +0.000 HD
ENDROOT
BRANCH   2   5
ATOM      5  C   UNL     1       2.348   8.200  18.084  0.00  0.00    +0.000 A 
ATOM      6  C   UNL     1       1.804   7.146  18.788  0.00  0.00    +0.000 A 
ATOM      7  C   UNL     1       2.633   5.965  18.814  0.00  0.00    +0.000 A 
ATOM      8  C   UNL     1       3.808   6.151  18.072  0.00  0.00    +0.000 A 
ATOM      9  S   UNL     1       3.865   7.771  17.450  0.00  0.00    +0.000 S 
BRANCH   7  10
ATOM     10  C   UNL     1       2.286   4.731  19.548  0.00  0.00    +0.000 A 
ATOM     11  C   UNL     1       1.856   3.590  18.853  0.00  0.00    +0.000 A 
ATOM     12  C   UNL     1       1.562   2.401  19.538  0.00  0.00    +0.000 A 
ATOM     13  C   UNL     1       1.737   2.324  20.918  0.00  0.00    +0.000 A 
ATOM     14  C   UNL     1       2.154   3.452  21.621  0.00  0.00    +0.000 A 
ATOM     15  C   UNL     1       2.378   4.653  20.944  0.00  0.00    +0.000 A 
ENDBRANCH   7  10
BRANCH   8  16
ATOM     16  N   UNL     1       4.826   5.272  17.782  0.00  0.00    +0.000 N 
ATOM     17  C   UNL     1       5.865   4.890  18.750  0.00  0.00    +0.000 C 
ATOM     18  C   UNL     1       7.262   5.174  18.175  0.00  0.00    +0.000 C 
ATOM     19  O   UNL     1       7.448   4.558  16.889  0.00  0.00    +0.000 OA
ATOM     20  C   UNL     1       6.468   5.045  15.960  0.00  0.00    +0.000 C 
ATOM     21  C   UNL     1       5.046   4.727  16.433  0.00  0.00    +0.000 C 
ENDBRANCH   8  16
ENDBRANCH   2   5
BRANCH   1  22
ATOM     22  C   UNL     1      -0.335  10.845  17.808  0.00  0.00    +0.000 C 
BRANCH  22  23
ATOM     23  C   UNL     1      -1.825  10.633  17.516  0.00  0.00    +0.000 C 
BRANCH  23  27
ATOM     24  C   UNL     1      -4.369  12.978  20.117  0.00  0.00    +0.000 A 
ATOM     25  C   UNL     1      -3.001  12.838  20.377  0.00  0.00    +0.000 A 
ATOM     26  C   UNL     1      -2.174  12.060  19.558  0.00  0.00    +0.000 A 
ATOM     27  C   UNL     1      -2.712  11.401  18.455  0.00  0.00    +0.000 A 
ATOM     28  C   UNL     1      -4.095  11.489  18.225  0.00  0.00    +0.000 A 
ATOM     29  C   UNL     1      -4.938  12.238  19.069  0.00  0.00    +0.000 A 
BRANCH  24  30
ATOM     30  O   UNL     1      -5.159  13.843  20.835  0.00  0.00    +0.000 OA
BRANCH  30  32
ATOM     31  C   UNL     1      -5.851  12.929  22.947  0.00  0.00    +0.000 C 
ATOM     32  C   UNL     1      -4.910  13.889  22.244  0.00  0.00    +0.000 C 
ENDBRANCH  30  32
ENDBRANCH  24  30
BRANCH  29  33
ATOM     33  O   UNL     1      -6.256  12.183  18.691  0.00  0.00    +0.000 OA
BRANCH  33  34
ATOM     34  C   UNL     1      -7.193  11.704  19.654  0.00  0.00    +0.000 C 
ATOM     35  C   UNL     1      -7.048  10.192  19.755  0.00  0.00    +0.000 C 
ENDBRANCH  33  34
ENDBRANCH  29  33
ENDBRANCH  23  27
ENDBRANCH  22  23
ENDBRANCH   1  22
TORSDOF 10
ENDMDL
MODEL 7
REMARK VINA RESULT:      -7.4      1.091      1.737
REMARK  Name = 
REMARK  12 active torsions:
REMARK  status: ('A' for Active; 'I' for Inactive)
REMARK    1  A    between atoms: C_1  and  C_2
REMARK    2  A    between atoms: C_2  and  O_3
REMARK    3  A    between atoms: O_3  and  C_4
REMARK    4  A    between atoms: C_7  and  C_8
REMARK    5  A    between atoms: C_8  and  C_9
REMARK    6  A    between atoms: C_9  and  N_10
REMARK    7  A    between atoms: C_11  and  C_13
REMARK    8  A    between atoms: C_15  and  C_16
REMARK    9  A    between atoms: C_22  and  N_23
REMARK   10  A    between atoms: C_31  and  O_32
REMARK   11  A    between atoms: O_32  and  C_33
REMARK   12  A    between atoms: C_33  and  C_34
REMARK                            x       y       z     vdW  Elec       q    Type
REMARK                         _______ _______ _______ _____ _____    ______ ____
ROOT
ATOM      1  N   UNL     1       0.862   9.642  18.848  0.00  0.00    +0.000 N 
ATOM      2  C   UNL     1       1.970   9.432  18.047  0.00  0.00    +0.000 C 
ATOM      3  O   UNL     1       2.455  10.344  17.380  0.00  0.00    +0.000 OA
ATOM      4  H   UNL     1       0.494   8.851  19.362  0.00  0.00    +0.000 HD
ENDROOT
BRANCH   2   5
ATOM      5  C   UNL     1       2.518   8.080  18.048  0.00  0.00    +0.000 A 
ATOM      6  C   UNL     1       1.931   6.946  18.568  0.00  0.00    +0.000 A 
ATOM      7  C   UNL     1       2.726   5.751  18.421  0.00  0.00    +0.000 A 
ATOM      8  C   UNL     1       3.921   6.015  17.737  0.00  0.00    +0.000 A 
ATOM      9  S   UNL     1       4.035   7.710  17.378  0.00  0.00    +0.000 S 
BRANCH   7  10
ATOM     10  C   UNL     1       2.330   4.428  18.946  0.00  0.00    +0.000 A 
ATOM     11  C   UNL     1       1.547   3.562  18.168  0.00  0.00    +0.000 A 
ATOM     12  C   UNL     1       1.199   2.288  18.642  0.00  0.00    +0.000 A 
ATOM     13  C   UNL     1       1.665   1.848  19.879  0.00  0.00    +0.000 A 
ATOM     14  C   UNL     1       2.435   2.701  20.666  0.00  0.00    +0.000 A 
ATOM     15  C   UNL     1       2.720   3.994  20.220  0.00  0.00    +0.000 A 
ENDBRANCH   7  10
BRANCH   8  16
ATOM     16  N   UNL     1       4.920   5.162  17.328  0.00  0.00    +0.000 N 
ATOM     17  C   UNL     1       5.915   4.584  18.244  0.00  0.00    +0.000 C 
ATOM     18  C   UNL     1       7.337   4.910  17.762  0.00  0.00    +0.000 C 
ATOM     19  O   UNL     1       7.545   4.514  16.396  0.00  0.00    +0.000 OA
ATOM     20  C   UNL     1       6.611   5.187  15.537  0.00  0.00    +0.000 C 
ATOM     21  C   UNL     1       5.165   4.845  15.913  0.00  0.00    +0.000 C 
ENDBRANCH   8  16
ENDBRANCH   2   5
BRANCH   1  22
ATOM     22  C   UNL     1       0.210  10.937  18.932  0.00  0.00    +0.000 C 
BRANCH  22  23
ATOM     23  C   UNL     1       0.218  11.511  20.354  0.00  0.00    +0.000 C 
BRANCH  23  27
ATOM     24  C   UNL     1      -3.660  12.981  21.592  0.00  0.00    +0.000 A 
ATOM     25  C   UNL     1      -2.630  12.787  22.519  0.00  0.00    +0.000 A 
ATOM     26  C   UNL     1      -1.381  12.286  22.135  0.00  0.00    +0.000 A 
ATOM     27  C   UNL     1      -1.142  11.967  20.800  0.00  0.00    +0.000 A 
ATOM     28  C   UNL     1      -2.192  12.103  19.876  0.00  0.00    +0.000 A 
ATOM     29  C   UNL     1      -3.464  12.568  20.265  0.00  0.00    +0.000 A 
BRANCH  24  30
ATOM     30  O   UNL     1      -4.840  13.594  21.937  0.00  0.00    +0.000 OA
BRANCH  30  32
ATOM     31  C   UNL     1      -6.985  12.561  21.611  0.00  0.00    +0.000 C 
ATOM     32  C   UNL     1      -5.818  12.756  22.561  0.00  0.00    +0.000 C 
ENDBRANCH  30  32
ENDBRANCH  24  30
BRANCH  29  33
ATOM     33  O   UNL     1      -4.357  12.611  19.225  0.00  0.00    +0.000 OA
BRANCH  33  34
ATOM     34  C   UNL     1      -4.403  11.481  18.356  0.00  0.00    +0.000 C 
ATOM     35  C   UNL     1      -5.807  10.893  18.406  0.00  0.00    +0.000 C 
ENDBRANCH  33  34
ENDBRANCH  29  33
ENDBRANCH  23  27
ENDBRANCH  22  23
ENDBRANCH   1  22
TORSDOF 10
ENDMDL
MODEL 8
REMARK VINA RESULT:      -7.4      3.774     10.576
REMARK  Name = 
REMARK  12 active torsions:
REMARK  status: ('A' for Active; 'I' for Inactive)
REMARK    1  A    between atoms: C_1  and  C_2
REMARK    2  A    between atoms: C_2  and  O_3
REMARK    3  A    between atoms: O_3  and  C_4
REMARK    4  A    between atoms: C_7  and  C_8
REMARK    5  A    between atoms: C_8  and  C_9
REMARK    6  A    between atoms: C_9  and  N_10
REMARK    7  A    between atoms: C_11  and  C_13
REMARK    8  A    between atoms: C_15  and  C_16
REMARK    9  A    between atoms: C_22  and  N_23
REMARK   10  A    between atoms: C_31  and  O_32
REMARK   11  A    between atoms: O_32  and  C_33
REMARK   12  A    between atoms: C_33  and  C_34
REMARK                            x       y       z     vdW  Elec       q    Type
REMARK                         _______ _______ _______ _____ _____    ______ ____
ROOT
ATOM      1  N   UNL     1       1.747   8.526  20.215  0.00  0.00    +0.000 N 
ATOM      2  C   UNL     1       0.644   8.724  21.028  0.00  0.00    +0.000 C 
ATOM      3  O   UNL     1       0.034   7.774  21.514  0.00  0.00    +0.000 OA
ATOM      4  H   UNL     1       2.201   9.344  19.829  0.00  0.00    +0.000 HD
ENDROOT
BRANCH   2   5
ATOM      5  C   UNL     1       0.263  10.112  21.270  0.00  0.00    +0.000 A 
ATOM      6  C   UNL     1      -0.609  10.578  22.230  0.00  0.00    +0.000 A 
ATOM      7  C   UNL     1      -0.789  12.010  22.218  0.00  0.00    +0.000 A 
ATOM      8  C   UNL     1       0.010  12.615  21.236  0.00  0.00    +0.000 A 
ATOM      9  S   UNL     1       0.873  11.400  20.344  0.00  0.00    +0.000 S 
BRANCH   7  10
ATOM     10  C   UNL     1      -1.712  12.733  23.116  0.00  0.00    +0.000 A 
ATOM     11  C   UNL     1      -1.340  13.966  23.672  0.00  0.00    +0.000 A 
ATOM     12  C   UNL     1      -2.226  14.679  24.494  0.00  0.00    +0.000 A 
ATOM     13  C   UNL     1      -3.508  14.190  24.735  0.00  0.00    +0.000 A 
ATOM     14  C   UNL     1      -3.886  12.963  24.198  0.00  0.00    +0.000 A 
ATOM     15  C   UNL     1      -2.978  12.223  23.437  0.00  0.00    +0.000 A 
ENDBRANCH   7  10
BRANCH   8  16
ATOM     16  N   UNL     1       0.195  13.944  20.934  0.00  0.00    +0.000 N 
ATOM     17  C   UNL     1      -0.740  14.723  20.108  0.00  0.00    +0.000 C 
ATOM     18  C   UNL     1      -0.001  15.358  18.919  0.00  0.00    +0.000 C 
ATOM     19  O   UNL     1       1.138  16.126  19.344  0.00  0.00    +0.000 OA
ATOM     20  C   UNL     1       2.062  15.290  20.057  0.00  0.00    +0.000 C 
ATOM     21  C   UNL     1       1.413  14.681  21.304  0.00  0.00    +0.000 C 
ENDBRANCH   8  16
ENDBRANCH   2   5
BRANCH   1  22
ATOM     22  C   UNL     1       2.227   7.196  19.885  0.00  0.00    +0.000 C 
BRANCH  22  23
ATOM     23  C   UNL     1       2.038   6.852  18.403  0.00  0.00    +0.000 C 
BRANCH  23  27
ATOM     24  C   UNL     1       5.339   4.703  16.608  0.00  0.00    +0.000 A 
ATOM     25  C   UNL     1       4.189   4.034  17.039  0.00  0.00    +0.000 A 
ATOM     26  C   UNL     1       3.127   4.714  17.646  0.00  0.00    +0.000 A 
ATOM     27  C   UNL     1       3.202   6.092  17.834  0.00  0.00    +0.000 A 
ATOM     28  C   UNL     1       4.380   6.760  17.457  0.00  0.00    +0.000 A 
ATOM     29  C   UNL     1       5.468   6.074  16.883  0.00  0.00    +0.000 A 
BRANCH  24  30
ATOM     30  O   UNL     1       6.325   4.066  15.895  0.00  0.00    +0.000 OA
BRANCH  30  32
ATOM     31  C   UNL     1       7.200   4.777  13.773  0.00  0.00    +0.000 C 
ATOM     32  C   UNL     1       6.117   3.984  14.481  0.00  0.00    +0.000 C 
ENDBRANCH  30  32
ENDBRANCH  24  30
BRANCH  29  33
ATOM     33  O   UNL     1       6.530   6.896  16.605  0.00  0.00    +0.000 OA
BRANCH  33  34
ATOM     34  C   UNL     1       7.542   7.016  17.602  0.00  0.00    +0.000 C 
ATOM     35  C   UNL     1       7.956   8.479  17.694  0.00  0.00    +0.000 C 
ENDBRANCH  33  34
ENDBRANCH  29  33
ENDBRANCH  23  27
ENDBRANCH  22  23
ENDBRANCH   1  22
TORSDOF 10
ENDMDL
MODEL 9
REMARK VINA RESULT:      -7.4      1.223      2.506
REMARK  Name = 
REMARK  12 active torsions:
REMARK  status: ('A' for Active; 'I' for Inactive)
REMARK    1  A    between atoms: C_1  and  C_2
REMARK    2  A    between atoms: C_2  and  O_3
REMARK    3  A    between atoms: O_3  and  C_4
REMARK    4  A    between atoms: C_7  and  C_8
REMARK    5  A    between atoms: C_8  and  C_9
REMARK    6  A    between atoms: C_9  and  N_10
REMARK    7  A    between atoms: C_11  and  C_13
REMARK    8  A    between atoms: C_15  and  C_16
REMARK    9  A    between atoms: C_22  and  N_23
REMARK   10  A    between atoms: C_31  and  O_32
REMARK   11  A    between atoms: O_32  and  C_33
REMARK   12  A    between atoms: C_33  and  C_34
REMARK                            x       y       z     vdW  Elec       q    Type
REMARK                         _______ _______ _______ _____ _____    ______ ____
ROOT
ATOM      1  N   UNL     1       0.607   9.655  18.544  0.00  0.00    +0.000 N 
ATOM      2  C   UNL     1       1.872   9.478  18.011  0.00  0.00    +0.000 C 
ATOM      3  O   UNL     1       2.465  10.403  17.459  0.00  0.00    +0.000 OA
ATOM      4  H   UNL     1       0.160   8.855  18.971  0.00  0.00    +0.000 HD
ENDROOT
BRANCH   2   5
ATOM      5  C   UNL     1       2.448   8.145  18.148  0.00  0.00    +0.000 A 
ATOM      6  C   UNL     1       1.916   7.078  18.841  0.00  0.00    +0.000 A 
ATOM      7  C   UNL     1       2.726   5.884  18.797  0.00  0.00    +0.000 A 
ATOM      8  C   UNL     1       3.873   6.076  18.013  0.00  0.00    +0.000 A 
ATOM      9  S   UNL     1       3.930   7.713  17.438  0.00  0.00    +0.000 S 
BRANCH   7  10
ATOM     10  C   UNL     1       2.390   4.634  19.507  0.00  0.00    +0.000 A 
ATOM     11  C   UNL     1       2.416   4.585  20.910  0.00  0.00    +0.000 A 
ATOM     12  C   UNL     1       2.061   3.413  21.594  0.00  0.00    +0.000 A 
ATOM     13  C   UNL     1       1.633   2.290  20.889  0.00  0.00    +0.000 A 
ATOM     14  C   UNL     1       1.611   2.322  19.497  0.00  0.00    +0.000 A 
ATOM     15  C   UNL     1       2.033   3.467  18.817  0.00  0.00    +0.000 A 
ENDBRANCH   7  10
BRANCH   8  16
ATOM     16  N   UNL     1       4.864   5.191  17.655  0.00  0.00    +0.000 N 
ATOM     17  C   UNL     1       5.907   4.727  18.581  0.00  0.00    +0.000 C 
ATOM     18  C   UNL     1       7.301   5.010  18.000  0.00  0.00    +0.000 C 
ATOM     19  O   UNL     1       7.452   4.467  16.677  0.00  0.00    +0.000 OA
ATOM     20  C   UNL     1       6.471   5.033  15.794  0.00  0.00    +0.000 C 
ATOM     21  C   UNL     1       5.048   4.722  16.273  0.00  0.00    +0.000 C 
ENDBRANCH   8  16
ENDBRANCH   2   5
BRANCH   1  22
ATOM     22  C   UNL     1      -0.087  10.929  18.467  0.00  0.00    +0.000 C 
BRANCH  22  23
ATOM     23  C   UNL     1      -0.482  11.469  19.846  0.00  0.00    +0.000 C 
BRANCH  23  27
ATOM     24  C   UNL     1      -4.655  12.595  20.078  0.00  0.00    +0.000 A 
ATOM     25  C   UNL     1      -4.105  12.096  18.892  0.00  0.00    +0.000 A 
ATOM     26  C   UNL     1      -2.751  11.755  18.797  0.00  0.00    +0.000 A 
ATOM     27  C   UNL     1      -1.917  11.912  19.902  0.00  0.00    +0.000 A 
ATOM     28  C   UNL     1      -2.451  12.469  21.075  0.00  0.00    +0.000 A 
ATOM     29  C   UNL     1      -3.804  12.852  21.163  0.00  0.00    +0.000 A 
BRANCH  24  30
ATOM     30  O   UNL     1      -6.005  12.807  20.218  0.00  0.00    +0.000 OA
BRANCH  30  32
ATOM     31  C   UNL     1      -7.241  10.755  20.030  0.00  0.00    +0.000 C 
ATOM     32  C   UNL     1      -6.715  11.821  20.974  0.00  0.00    +0.000 C 
ENDBRANCH  30  32
ENDBRANCH  24  30
BRANCH  29  33
ATOM     33  O   UNL     1      -4.127  13.393  22.382  0.00  0.00    +0.000 OA
BRANCH  33  34
ATOM     34  C   UNL     1      -4.256  14.811  22.454  0.00  0.00    +0.000 C 
ATOM     35  C   UNL     1      -5.522  15.140  23.233  0.00  0.00    +0.000 C 
ENDBRANCH  33  34
ENDBRANCH  29  33
ENDBRANCH  23  27
ENDBRANCH  22  23
ENDBRANCH   1  22
TORSDOF 10
ENDMDL
