MODEL 1
REMARK VINA RESULT:      -7.5      0.000      0.000
REMARK  Name = 
REMARK  6 active torsions:
REMARK  status: ('A' for Active; 'I' for Inactive)
REMARK    1  A    between atoms: C_2  and  O_3
REMARK    2  A    between atoms: C_2  and  C_4
REMARK    3  A    between atoms: C_9  and  O_10
REMARK    4  A    between atoms: O_10  and  C_11
REMARK    5  A    between atoms: CA_14  and  C_15
REMARK    6  A    between atoms: C_15  and  OXT_17
REMARK                            x       y       z     vdW  Elec       q    Type
REMARK                         _______ _______ _______ _____ _____    ______ ____
ROOT
ATOM      1  O   UNL     1       5.030   4.690  19.222  0.00  0.00    +0.000 OA
ENDROOT
BRANCH   1   7
ATOM      2  C   UNL     1       3.181   3.213  19.665  0.00  0.00    +0.000 A 
ATOM      3  C   UNL     1       1.839   3.066  20.091  0.00  0.00    +0.000 A 
ATOM      4  C   UNL     1       1.076   4.173  20.462  0.00  0.00    +0.000 A 
ATOM      5  C   UNL     1       1.626   5.447  20.423  0.00  0.00    +0.000 A 
ATOM      6  C   UNL     1       2.944   5.623  20.012  0.00  0.00    +0.000 A 
ATOM      7  C   UNL     1       3.736   4.520  19.621  0.00  0.00    +0.000 A 
BRANCH   2   9
ATOM      8  O   UNL     1       3.622   1.279  18.381  0.00  0.00    +0.000 OA
ATOM      9  C   UNL     1       3.997   2.009  19.286  0.00  0.00    +0.000 C 
BRANCH   9  10
ATOM     10  O   UNL     1       5.158   1.687  19.904  0.00  0.00    +0.000 OA
ATOM     11  H   UNL     1       6.033   1.758  19.509  0.00  0.00    +0.000 HD
ENDBRANCH   9  10
ENDBRANCH   2   9
ENDBRANCH   1   7
BRANCH   1  12
ATOM     12  C   UNL     1       5.484   5.622  18.300  0.00  0.00    +0.000 C 
ATOM     13  C   UNL     1       7.004   5.604  18.252  0.00  0.00    +0.000 C 
ATOM     14  N   UNL     1       7.362   4.393  17.506  0.00  0.00    +0.000 NA
ATOM     15  CA  UNL     1       6.266   4.194  16.541  0.00  0.00    +0.000 C 
ATOM     16  C   UNL     1       5.171   5.215  16.872  0.00  0.00    +0.000 C 
ATOM     17  H   UNL     1       7.340   3.598  18.189  0.00  0.00    +0.000 HD
BRANCH  15  18
ATOM     18  C   UNL     1       6.753   4.383  15.116  0.00  0.00    +0.000 C 
ATOM     19  O   UNL     1       7.484   5.324  14.834  0.00  0.00    +0.000 OA
BRANCH  18  20
ATOM     20  OXT UNL     1       6.364   3.542  14.136  0.00  0.00    +0.000 OA
ATOM     21  HXT UNL     1       5.522   3.652  13.675  0.00  0.00    +0.000 HD
ENDBRANCH  18  20
ENDBRANCH  15  18
ENDBRANCH   1  12
TORSDOF 6
ENDMDL
MODEL 2
REMARK VINA RESULT:      -7.1      0.788      1.036
REMARK  Name = 
REMARK  6 active torsions:
REMARK  status: ('A' for Active; 'I' for Inactive)
REMARK    1  A    between atoms: C_2  and  O_3
REMARK    2  A    between atoms: C_2  and  C_4
REMARK    3  A    between atoms: C_9  and  O_10
REMARK    4  A    between atoms: O_10  and  C_11
REMARK    5  A    between atoms: CA_14  and  C_15
REMARK    6  A    between atoms: C_15  and  OXT_17
REMARK                            x       y       z     vdW  Elec       q    Type
REMARK                         _______ _______ _______ _____ _____    ______ ____
ROOT
ATOM      1  O   UNL     1       4.856   5.186  18.586  0.00  0.00    +0.000 OA
ENDROOT
BRANCH   1   7
ATOM      2  C   UNL     1       3.410   3.662  19.762  0.00  0.00    +0.000 A 
ATOM      3  C   UNL     1       2.244   3.477  20.543  0.00  0.00    +0.000 A 
ATOM      4  C   UNL     1       1.429   4.556  20.888  0.00  0.00    +0.000 A 
ATOM      5  C   UNL     1       1.755   5.839  20.471  0.00  0.00    +0.000 A 
ATOM      6  C   UNL     1       2.897   6.054  19.706  0.00  0.00    +0.000 A 
ATOM      7  C   UNL     1       3.734   4.978  19.334  0.00  0.00    +0.000 A 
BRANCH   2   9
ATOM      8  O   UNL     1       4.941   1.941  20.285  0.00  0.00    +0.000 OA
ATOM      9  C   UNL     1       4.288   2.493  19.413  0.00  0.00    +0.000 C 
BRANCH   9  10
ATOM     10  O   UNL     1       4.390   2.004  18.154  0.00  0.00    +0.000 OA
ATOM     11  H   UNL     1       4.982   1.294  17.884  0.00  0.00    +0.000 HD
ENDBRANCH   9  10
ENDBRANCH   2   9
ENDBRANCH   1   7
BRANCH   1  12
ATOM     12  C   UNL     1       4.926   5.902  17.400  0.00  0.00    +0.000 C 
ATOM     13  C   UNL     1       6.289   6.564  17.275  0.00  0.00    +0.000 C 
ATOM     14  N   UNL     1       7.219   5.489  16.915  0.00  0.00    +0.000 NA
ATOM     15  CA  UNL     1       6.423   4.539  16.120  0.00  0.00    +0.000 C 
ATOM     16  C   UNL     1       4.961   4.996  16.184  0.00  0.00    +0.000 C 
ATOM     17  H   UNL     1       7.494   5.013  17.808  0.00  0.00    +0.000 HD
BRANCH  15  18
ATOM     18  C   UNL     1       6.902   4.497  14.679  0.00  0.00    +0.000 C 
ATOM     19  O   UNL     1       7.700   5.330  14.271  0.00  0.00    +0.000 OA
BRANCH  18  20
ATOM     20  OXT UNL     1       6.433   3.566  13.823  0.00  0.00    +0.000 OA
ATOM     21  HXT UNL     1       5.498   3.521  13.582  0.00  0.00    +0.000 HD
ENDBRANCH  18  20
ENDBRANCH  15  18
ENDBRANCH   1  12
TORSDOF 6
ENDMDL
MODEL 3
REMARK VINA RESULT:      -7.0      1.007      1.463
REMARK  Name = 
REMARK  6 active torsions:
REMARK  status: ('A' for Active; 'I' for Inactive)
REMARK    1  A    between atoms: C_2  and  O_3
REMARK    2  A    between atoms: C_2  and  C_4
REMARK    3  A    between atoms: C_9  and  O_10
REMARK    4  A    between atoms: O_10  and  C_11
REMARK    5  A    between atoms: CA_14  and  C_15
REMARK    6  A    between atoms: C_15  and  OXT_17
REMARK                            x       y       z     vdW  Elec       q    Type
REMARK                         _______ _______ _______ _____ _____    ______ ____
ROOT
ATOM      1  O   UNL     1       4.061   3.805  17.921  0.00  0.00    +0.000 OA
ENDROOT
BRANCH   1   7
ATOM      2  C   UNL     1       3.280   2.689  19.906  0.00  0.00    +0.000 A 
ATOM      3  C   UNL     1       2.339   2.640  20.962  0.00  0.00    +0.000 A 
ATOM      4  C   UNL     1       1.321   3.588  21.065  0.00  0.00    +0.000 A 
ATOM      5  C   UNL     1       1.217   4.606  20.127  0.00  0.00    +0.000 A 
ATOM      6  C   UNL     1       2.129   4.683  19.080  0.00  0.00    +0.000 A 
ATOM      7  C   UNL     1       3.163   3.730  18.946  0.00  0.00    +0.000 A 
BRANCH   2   9
ATOM      8  O   UNL     1       5.244   1.631  20.683  0.00  0.00    +0.000 OA
ATOM      9  C   UNL     1       4.383   1.671  19.818  0.00  0.00    +0.000 C 
BRANCH   9  10
ATOM     10  O   UNL     1       4.469   0.770  18.810  0.00  0.00    +0.000 OA
ATOM     11  H   UNL     1       4.781   0.965  17.920  0.00  0.00    +0.000 HD
ENDBRANCH   9  10
ENDBRANCH   2   9
ENDBRANCH   1   7
BRANCH   1  12
ATOM     12  C   UNL     1       4.598   4.969  17.389  0.00  0.00    +0.000 C 
ATOM     13  C   UNL     1       6.052   5.108  17.812  0.00  0.00    +0.000 C 
ATOM     14  N   UNL     1       6.797   4.150  16.990  0.00  0.00    +0.000 NA
ATOM     15  CA  UNL     1       6.064   4.082  15.714  0.00  0.00    +0.000 C 
ATOM     16  C   UNL     1       4.769   4.885  15.884  0.00  0.00    +0.000 C 
ATOM     17  H   UNL     1       6.714   3.217  17.460  0.00  0.00    +0.000 HD
BRANCH  15  18
ATOM     18  C   UNL     1       6.893   4.651  14.576  0.00  0.00    +0.000 C 
ATOM     19  O   UNL     1       6.763   4.213  13.441  0.00  0.00    +0.000 OA
BRANCH  18  20
ATOM     20  OXT UNL     1       7.804   5.619  14.804  0.00  0.00    +0.000 OA
ATOM     21  HXT UNL     1       8.553   5.484  15.399  0.00  0.00    +0.000 HD
ENDBRANCH  18  20
ENDBRANCH  15  18
ENDBRANCH   1  12
TORSDOF 6
ENDMDL
MODEL 4
REMARK VINA RESULT:      -7.0      0.517      1.133
REMARK  Name = 
REMARK  6 active torsions:
REMARK  status: ('A' for Active; 'I' for Inactive)
REMARK    1  A    between atoms: C_2  and  O_3
REMARK    2  A    between atoms: C_2  and  C_4
REMARK    3  A    between atoms: C_9  and  O_10
REMARK    4  A    between atoms: O_10  and  C_11
REMARK    5  A    between atoms: CA_14  and  C_15
REMARK    6  A    between atoms: C_15  and  OXT_17
REMARK                            x       y       z     vdW  Elec       q    Type
REMARK                         _______ _______ _______ _____ _____    ______ ____
ROOT
ATOM      1  O   UNL     1       4.800   4.687  19.635  0.00  0.00    +0.000 OA
ENDROOT
BRANCH   1   7
ATOM      2  C   UNL     1       3.156   2.939  19.825  0.00  0.00    +0.000 A 
ATOM      3  C   UNL     1       1.808   2.581  20.069  0.00  0.00    +0.000 A 
ATOM      4  C   UNL     1       0.843   3.552  20.339  0.00  0.00    +0.000 A 
ATOM      5  C   UNL     1       1.193   4.894  20.378  0.00  0.00    +0.000 A 
ATOM      6  C   UNL     1       2.511   5.276  20.146  0.00  0.00    +0.000 A 
ATOM      7  C   UNL     1       3.506   4.315  19.860  0.00  0.00    +0.000 A 
BRANCH   2   9
ATOM      8  O   UNL     1       5.074   1.670  20.370  0.00  0.00    +0.000 OA
ATOM      9  C   UNL     1       4.189   1.881  19.554  0.00  0.00    +0.000 C 
BRANCH   9  10
ATOM     10  O   UNL     1       4.187   1.126  18.429  0.00  0.00    +0.000 OA
ATOM     11  H   UNL     1       4.485   0.212  18.376  0.00  0.00    +0.000 HD
ENDBRANCH   9  10
ENDBRANCH   2   9
ENDBRANCH   1   7
BRANCH   1  12
ATOM     12  C   UNL     1       5.233   5.602  18.686  0.00  0.00    +0.000 C 
ATOM     13  C   UNL     1       6.753   5.625  18.646  0.00  0.00    +0.000 C 
ATOM     14  N   UNL     1       7.149   4.402  17.941  0.00  0.00    +0.000 NA
ATOM     15  CA  UNL     1       6.065   4.142  16.978  0.00  0.00    +0.000 C 
ATOM     16  C   UNL     1       4.940   5.142  17.270  0.00  0.00    +0.000 C 
ATOM     17  H   UNL     1       7.145   3.628  18.648  0.00  0.00    +0.000 HD
BRANCH  15  18
ATOM     18  C   UNL     1       6.554   4.300  15.549  0.00  0.00    +0.000 C 
ATOM     19  O   UNL     1       5.958   3.754  14.630  0.00  0.00    +0.000 OA
BRANCH  18  20
ATOM     20  OXT UNL     1       7.665   5.014  15.275  0.00  0.00    +0.000 OA
ATOM     21  HXT UNL     1       7.628   5.961  15.089  0.00  0.00    +0.000 HD
ENDBRANCH  18  20
ENDBRANCH  15  18
ENDBRANCH   1  12
TORSDOF 6
ENDMDL
MODEL 5
REMARK VINA RESULT:      -7.0      1.401      1.650
REMARK  Name = 
REMARK  6 active torsions:
REMARK  status: ('A' for Active; 'I' for Inactive)
REMARK    1  A    between atoms: C_2  and  O_3
REMARK    2  A    between atoms: C_2  and  C_4
REMARK    3  A    between atoms: C_9  and  O_10
REMARK    4  A    between atoms: O_10  and  C_11
REMARK    5  A    between atoms: CA_14  and  C_15
REMARK    6  A    between atoms: C_15  and  OXT_17
REMARK                            x       y       z     vdW  Elec       q    Type
REMARK                         _______ _______ _______ _____ _____    ______ ____
ROOT
ATOM      1  O   UNL     1       3.173   5.001  18.054  0.00  0.00    +0.000 OA
ENDROOT
BRANCH   1   7
ATOM      2  C   UNL     1       2.422   2.943  19.052  0.00  0.00    +0.000 A 
ATOM      3  C   UNL     1       1.786   2.300  20.141  0.00  0.00    +0.000 A 
ATOM      4  C   UNL     1       1.304   3.032  21.227  0.00  0.00    +0.000 A 
ATOM      5  C   UNL     1       1.446   4.413  21.258  0.00  0.00    +0.000 A 
ATOM      6  C   UNL     1       2.070   5.072  20.204  0.00  0.00    +0.000 A 
ATOM      7  C   UNL     1       2.558   4.357  19.087  0.00  0.00    +0.000 A 
BRANCH   2   9
ATOM      8  O   UNL     1       2.320   2.084  16.853  0.00  0.00    +0.000 OA
ATOM      9  C   UNL     1       2.952   2.140  17.896  0.00  0.00    +0.000 C 
BRANCH   9  10
ATOM     10  O   UNL     1       4.125   1.466  17.951  0.00  0.00    +0.000 OA
ATOM     11  H   UNL     1       4.706   1.307  17.199  0.00  0.00    +0.000 HD
ENDBRANCH   9  10
ENDBRANCH   2   9
ENDBRANCH   1   7
BRANCH   1  12
ATOM     12  C   UNL     1       4.312   5.788  18.144  0.00  0.00    +0.000 C 
ATOM     13  C   UNL     1       5.318   5.137  19.081  0.00  0.00    +0.000 C 
ATOM     14  N   UNL     1       5.902   4.026  18.323  0.00  0.00    +0.000 NA
ATOM     15  CA  UNL     1       5.890   4.467  16.918  0.00  0.00    +0.000 C 
ATOM     16  C   UNL     1       5.113   5.788  16.856  0.00  0.00    +0.000 C 
ATOM     17  H   UNL     1       5.242   3.216  18.413  0.00  0.00    +0.000 HD
BRANCH  15  18
ATOM     18  C   UNL     1       7.302   4.659  16.393  0.00  0.00    +0.000 C 
ATOM     19  O   UNL     1       8.256   4.212  17.016  0.00  0.00    +0.000 OA
BRANCH  18  20
ATOM     20  OXT UNL     1       7.529   5.350  15.258  0.00  0.00    +0.000 OA
ATOM     21  HXT UNL     1       6.877   5.966  14.898  0.00  0.00    +0.000 HD
ENDBRANCH  18  20
ENDBRANCH  15  18
ENDBRANCH   1  12
TORSDOF 6
ENDMDL
MODEL 6
REMARK VINA RESULT:      -7.0      0.859      1.215
REMARK  Name = 
REMARK  6 active torsions:
REMARK  status: ('A' for Active; 'I' for Inactive)
REMARK    1  A    between atoms: C_2  and  O_3
REMARK    2  A    between atoms: C_2  and  C_4
REMARK    3  A    between atoms: C_9  and  O_10
REMARK    4  A    between atoms: O_10  and  C_11
REMARK    5  A    between atoms: CA_14  and  C_15
REMARK    6  A    between atoms: C_15  and  OXT_17
REMARK                            x       y       z     vdW  Elec       q    Type
REMARK                         _______ _______ _______ _____ _____    ______ ____
ROOT
ATOM      1  O   UNL     1       4.751   4.426  18.517  0.00  0.00    +0.000 OA
ENDROOT
BRANCH   1   7
ATOM      2  C   UNL     1       2.637   3.323  18.847  0.00  0.00    +0.000 A 
ATOM      3  C   UNL     1       1.372   3.321  19.481  0.00  0.00    +0.000 A 
ATOM      4  C   UNL     1       0.997   4.350  20.345  0.00  0.00    +0.000 A 
ATOM      5  C   UNL     1       1.869   5.400  20.602  0.00  0.00    +0.000 A 
ATOM      6  C   UNL     1       3.121   5.428  19.996  0.00  0.00    +0.000 A 
ATOM      7  C   UNL     1       3.522   4.403  19.109  0.00  0.00    +0.000 A 
BRANCH   2   9
ATOM      8  O   UNL     1       2.340   1.924  16.966  0.00  0.00    +0.000 OA
ATOM      9  C   UNL     1       3.035   2.197  17.933  0.00  0.00    +0.000 C 
BRANCH   9  10
ATOM     10  O   UNL     1       4.152   1.457  18.126  0.00  0.00    +0.000 OA
ATOM     11  H   UNL     1       4.164   0.542  18.428  0.00  0.00    +0.000 HD
ENDBRANCH   9  10
ENDBRANCH   2   9
ENDBRANCH   1   7
BRANCH   1  12
ATOM     12  C   UNL     1       5.257   5.447  17.725  0.00  0.00    +0.000 C 
ATOM     13  C   UNL     1       6.776   5.441  17.781  0.00  0.00    +0.000 C 
ATOM     14  N   UNL     1       7.199   4.312  16.946  0.00  0.00    +0.000 NA
ATOM     15  CA  UNL     1       6.174   4.203  15.894  0.00  0.00    +0.000 C 
ATOM     16  C   UNL     1       5.047   5.181  16.246  0.00  0.00    +0.000 C 
ATOM     17  H   UNL     1       7.139   3.453  17.545  0.00  0.00    +0.000 HD
BRANCH  15  18
ATOM     18  C   UNL     1       6.755   4.534  14.530  0.00  0.00    +0.000 C 
ATOM     19  O   UNL     1       6.340   3.966  13.530  0.00  0.00    +0.000 OA
BRANCH  18  20
ATOM     20  OXT UNL     1       7.754   5.431  14.406  0.00  0.00    +0.000 OA
ATOM     21  HXT UNL     1       7.716   6.298  14.832  0.00  0.00    +0.000 HD
ENDBRANCH  18  20
ENDBRANCH  15  18
ENDBRANCH   1  12
TORSDOF 6
ENDMDL
MODEL 7
REMARK VINA RESULT:      -7.0      1.251      1.344
REMARK  Name = 
REMARK  6 active torsions:
REMARK  status: ('A' for Active; 'I' for Inactive)
REMARK    1  A    between atoms: C_2  and  O_3
REMARK    2  A    between atoms: C_2  and  C_4
REMARK    3  A    between atoms: C_9  and  O_10
REMARK    4  A    between atoms: O_10  and  C_11
REMARK    5  A    between atoms: CA_14  and  C_15
REMARK    6  A    between atoms: C_15  and  OXT_17
REMARK                            x       y       z     vdW  Elec       q    Type
REMARK                         _______ _______ _______ _____ _____    ______ ____
ROOT
ATOM      1  O   UNL     1       3.455   4.939  17.647  0.00  0.00    +0.000 OA
ENDROOT
BRANCH   1   7
ATOM      2  C   UNL     1       2.647   3.180  19.079  0.00  0.00    +0.000 A 
ATOM      3  C   UNL     1       2.094   2.809  20.328  0.00  0.00    +0.000 A 
ATOM      4  C   UNL     1       1.819   3.765  21.306  0.00  0.00    +0.000 A 
ATOM      5  C   UNL     1       2.089   5.106  21.069  0.00  0.00    +0.000 A 
ATOM      6  C   UNL     1       2.636   5.500  19.852  0.00  0.00    +0.000 A 
ATOM      7  C   UNL     1       2.915   4.554  18.840  0.00  0.00    +0.000 A 
BRANCH   2   9
ATOM      8  O   UNL     1       2.210   1.989  17.085  0.00  0.00    +0.000 OA
ATOM      9  C   UNL     1       2.956   2.136  18.041  0.00  0.00    +0.000 C 
BRANCH   9  10
ATOM     10  O   UNL     1       4.047   1.337  18.108  0.00  0.00    +0.000 OA
ATOM     11  H   UNL     1       4.595   1.086  17.357  0.00  0.00    +0.000 HD
ENDBRANCH   9  10
ENDBRANCH   2   9
ENDBRANCH   1   7
BRANCH   1  12
ATOM     12  C   UNL     1       4.709   5.504  17.462  0.00  0.00    +0.000 C 
ATOM     13  C   UNL     1       5.789   4.495  17.819  0.00  0.00    +0.000 C 
ATOM     14  N   UNL     1       5.829   3.547  16.701  0.00  0.00    +0.000 NA
ATOM     15  CA  UNL     1       5.463   4.335  15.512  0.00  0.00    +0.000 C 
ATOM     16  C   UNL     1       5.027   5.723  15.995  0.00  0.00    +0.000 C 
ATOM     17  H   UNL     1       5.069   2.845  16.870  0.00  0.00    +0.000 HD
BRANCH  15  18
ATOM     18  C   UNL     1       6.634   4.453  14.552  0.00  0.00    +0.000 C 
ATOM     19  O   UNL     1       7.513   5.281  14.752  0.00  0.00    +0.000 OA
BRANCH  18  20
ATOM     20  OXT UNL     1       6.708   3.673  13.455  0.00  0.00    +0.000 OA
ATOM     21  HXT UNL     1       7.556   3.419  13.066  0.00  0.00    +0.000 HD
ENDBRANCH  18  20
ENDBRANCH  15  18
ENDBRANCH   1  12
TORSDOF 6
ENDMDL
MODEL 8
REMARK VINA RESULT:      -7.0      1.675      2.079
REMARK  Name = 
REMARK  6 active torsions:
REMARK  status: ('A' for Active; 'I' for Inactive)
REMARK    1  A    between atoms: C_2  and  O_3
REMARK    2  A    between atoms: C_2  and  C_4
REMARK    3  A    between atoms: C_9  and  O_10
REMARK    4  A    between atoms: O_10  and  C_11
REMARK    5  A    between atoms: CA_14  and  C_15
REMARK    6  A    between atoms: C_15  and  OXT_17
REMARK                            x       y       z     vdW  Elec       q    Type
REMARK                         _______ _______ _______ _____ _____    ______ ____
ROOT
ATOM      1  O   UNL     1       3.628   3.195  17.703  0.00  0.00    +0.000 OA
ENDROOT
BRANCH   1   7
ATOM      2  C   UNL     1       3.261   2.737  20.039  0.00  0.00    +0.000 A 
ATOM      3  C   UNL     1       2.349   2.666  21.118  0.00  0.00    +0.000 A 
ATOM      4  C   UNL     1       0.996   2.958  20.937  0.00  0.00    +0.000 A 
ATOM      5  C   UNL     1       0.522   3.330  19.686  0.00  0.00    +0.000 A 
ATOM      6  C   UNL     1       1.396   3.412  18.607  0.00  0.00    +0.000 A 
ATOM      7  C   UNL     1       2.768   3.112  18.760  0.00  0.00    +0.000 A 
BRANCH   2   9
ATOM      8  O   UNL     1       5.058   1.652  21.124  0.00  0.00    +0.000 OA
ATOM      9  C   UNL     1       4.719   2.437  20.251  0.00  0.00    +0.000 C 
BRANCH   9  10
ATOM     10  O   UNL     1       5.699   3.000  19.505  0.00  0.00    +0.000 OA
ATOM     11  H   UNL     1       5.708   3.037  18.543  0.00  0.00    +0.000 HD
ENDBRANCH   9  10
ENDBRANCH   2   9
ENDBRANCH   1   7
BRANCH   1  12
ATOM     12  C   UNL     1       3.734   4.258  16.818  0.00  0.00    +0.000 C 
ATOM     13  C   UNL     1       4.039   5.538  17.581  0.00  0.00    +0.000 C 
ATOM     14  N   UNL     1       5.454   5.448  17.955  0.00  0.00    +0.000 NA
ATOM     15  CA  UNL     1       6.092   4.677  16.874  0.00  0.00    +0.000 C 
ATOM     16  C   UNL     1       4.978   4.163  15.955  0.00  0.00    +0.000 C 
ATOM     17  H   UNL     1       5.500   4.874  18.832  0.00  0.00    +0.000 HD
BRANCH  15  18
ATOM     18  C   UNL     1       7.067   5.540  16.092  0.00  0.00    +0.000 C 
ATOM     19  O   UNL     1       7.536   6.552  16.597  0.00  0.00    +0.000 OA
BRANCH  18  20
ATOM     20  OXT UNL     1       7.406   5.223  14.826  0.00  0.00    +0.000 OA
ATOM     21  HXT UNL     1       7.027   5.687  14.067  0.00  0.00    +0.000 HD
ENDBRANCH  18  20
ENDBRANCH  15  18
ENDBRANCH   1  12
TORSDOF 6
ENDMDL
MODEL 9
REMARK VINA RESULT:      -6.9      0.764      1.126
REMARK  Name = 
REMARK  6 active torsions:
REMARK  status: ('A' for Active; 'I' for Inactive)
REMARK    1  A    between atoms: C_2  and  O_3
REMARK    2  A    between atoms: C_2  and  C_4
REMARK    3  A    between atoms: C_9  and  O_10
REMARK    4  A    between atoms: O_10  and  C_11
REMARK    5  A    between atoms: CA_14  and  C_15
REMARK    6  A    between atoms: C_15  and  OXT_17
REMARK                            x       y       z     vdW  Elec       q    Type
REMARK                         _______ _______ _______ _____ _____    ______ ____
ROOT
ATOM      1  O   UNL     1       4.621   4.353  18.597  0.00  0.00    +0.000 OA
ENDROOT
BRANCH   1   7
ATOM      2  C   UNL     1       2.535   3.260  19.100  0.00  0.00    +0.000 A 
ATOM      3  C   UNL     1       1.291   3.303  19.773  0.00  0.00    +0.000 A 
ATOM      4  C   UNL     1       0.930   4.404  20.549  0.00  0.00    +0.000 A 
ATOM      5  C   UNL     1       1.793   5.483  20.677  0.00  0.00    +0.000 A 
ATOM      6  C   UNL     1       3.025   5.469  20.030  0.00  0.00    +0.000 A 
ATOM      7  C   UNL     1       3.412   4.371  19.230  0.00  0.00    +0.000 A 
BRANCH   2   9
ATOM      8  O   UNL     1       3.783   1.296  18.689  0.00  0.00    +0.000 OA
ATOM      9  C   UNL     1       2.920   2.059  18.281  0.00  0.00    +0.000 C 
BRANCH   9  10
ATOM     10  O   UNL     1       2.342   1.767  17.092  0.00  0.00    +0.000 OA
ATOM     11  H   UNL     1       1.653   2.290  16.670  0.00  0.00    +0.000 HD
ENDBRANCH   9  10
ENDBRANCH   2   9
ENDBRANCH   1   7
BRANCH   1  12
ATOM     12  C   UNL     1       5.129   5.353  17.779  0.00  0.00    +0.000 C 
ATOM     13  C   UNL     1       6.646   5.383  17.882  0.00  0.00    +0.000 C 
ATOM     14  N   UNL     1       7.118   4.231  17.107  0.00  0.00    +0.000 NA
ATOM     15  CA  UNL     1       6.129   4.058  16.029  0.00  0.00    +0.000 C 
ATOM     16  C   UNL     1       4.971   5.024  16.307  0.00  0.00    +0.000 C 
ATOM     17  H   UNL     1       7.058   3.395  17.738  0.00  0.00    +0.000 HD
BRANCH  15  18
ATOM     18  C   UNL     1       6.746   4.348  14.671  0.00  0.00    +0.000 C 
ATOM     19  O   UNL     1       7.514   5.289  14.533  0.00  0.00    +0.000 OA
BRANCH  18  20
ATOM     20  OXT UNL     1       6.432   3.596  13.597  0.00  0.00    +0.000 OA
ATOM     21  HXT UNL     1       7.035   2.923  13.253  0.00  0.00    +0.000 HD
ENDBRANCH  18  20
ENDBRANCH  15  18
ENDBRANCH   1  12
TORSDOF 6
ENDMDL
