MODEL 1
REMARK VINA RESULT:      -8.2      0.000      0.000
REMARK  Name = 
REMARK  4 active torsions:
REMARK  status: ('A' for Active; 'I' for Inactive)
REMARK    1  A    between atoms: C_2  and  C_3
REMARK    2  A    between atoms: C_5  and  N_6
REMARK    3  A    between atoms: N_6  and  C_7
REMARK    4  A    between atoms: C_7  and  C_8
REMARK                            x       y       z     vdW  Elec       q    Type
REMARK                         _______ _______ _______ _____ _____    ______ ____
ROOT
ATOM      1  C   UNL     1       5.652   5.256  16.193  0.00  0.00    +0.000 C 
ATOM      2  C   UNL     1       5.579   6.381  17.201  0.00  0.00    +0.000 C 
ATOM      3  C   UNL     1       4.675   5.781  18.285  0.00  0.00    +0.000 C 
ATOM      4  C   UNL     1       5.057   4.279  18.249  0.00  0.00    +0.000 C 
ATOM      5  N   UNL     1       5.897   4.074  17.054  0.00  0.00    +0.000 NA
ATOM      6  H   UNL     1       5.682   3.217  16.594  0.00  0.00    +0.000 HD
ENDROOT
BRANCH   1   8
ATOM      7  O   UNL     1       7.840   5.912  15.359  0.00  0.00    +0.000 OA
ATOM      8  C   UNL     1       6.757   5.366  15.142  0.00  0.00    +0.000 C 
ATOM      9  N   UNL     1       6.469   4.742  13.943  0.00  0.00    +0.000 N 
ATOM     10  C   UNL     1       7.507   4.468  12.950  0.00  0.00    +0.000 C 
ATOM     11  C   UNL     1       6.879   3.369  12.146  0.00  0.00    +0.000 A 
ATOM     12  C   UNL     1       7.422   2.253  11.551  0.00  0.00    +0.000 A 
ATOM     13  C   UNL     1       6.551   1.348  10.934  0.00  0.00    +0.000 A 
ATOM     14  C   UNL     1       5.174   1.620  10.824  0.00  0.00    +0.000 A 
ATOM     15  C   UNL     1       4.622   2.699  11.501  0.00  0.00    +0.000 A 
ATOM     16  C   UNL     1       5.489   3.463  12.257  0.00  0.00    +0.000 A 
ATOM     17  C   UNL     1       5.202   4.121  13.574  0.00  0.00    +0.000 C 
ENDBRANCH   1   8
BRANCH   3  18
ATOM     18  N   UNL     1       3.251   6.017  17.972  0.00  0.00    +0.000 NA
ATOM     19  H   UNL     1       2.859   5.222  17.466  0.00  0.00    +0.000 HD
BRANCH  18  20
ATOM     20  C   UNL     1       2.449   6.229  19.184  0.00  0.00    +0.000 C 
BRANCH  20  21
ATOM     21  C   UNL     1       2.030   4.925  19.823  0.00  0.00    +0.000 A 
ATOM     22  C   UNL     1       1.328   3.957  19.085  0.00  0.00    +0.000 A 
ATOM     23  C   UNL     1       0.979   2.736  19.664  0.00  0.00    +0.000 A 
ATOM     24  C   UNL     1       1.319   2.467  20.988  0.00  0.00    +0.000 A 
ATOM     25  C   UNL     1       2.017   3.418  21.731  0.00  0.00    +0.000 A 
ATOM     26  C   UNL     1       2.373   4.638  21.153  0.00  0.00    +0.000 A 
ENDBRANCH  20  21
ENDBRANCH  18  20
ENDBRANCH   3  18
TORSDOF 4
ENDMDL
MODEL 2
REMARK VINA RESULT:      -8.0      1.615      3.000
REMARK  Name = 
REMARK  4 active torsions:
REMARK  status: ('A' for Active; 'I' for Inactive)
REMARK    1  A    between atoms: C_2  and  C_3
REMARK    2  A    between atoms: C_5  and  N_6
REMARK    3  A    between atoms: N_6  and  C_7
REMARK    4  A    between atoms: C_7  and  C_8
REMARK                            x       y       z     vdW  Elec       q    Type
REMARK                         _______ _______ _______ _____ _____    ______ ____
ROOT
ATOM      1  C   UNL     1       5.633   5.192  16.667  0.00  0.00    +0.000 C 
ATOM      2  C   UNL     1       5.497   6.228  17.760  0.00  0.00    +0.000 C 
ATOM      3  C   UNL     1       4.711   5.460  18.831  0.00  0.00    +0.000 C 
ATOM      4  C   UNL     1       5.240   4.012  18.664  0.00  0.00    +0.000 C 
ATOM      5  N   UNL     1       6.038   3.982  17.423  0.00  0.00    +0.000 NA
ATOM      6  H   UNL     1       5.887   3.143  16.908  0.00  0.00    +0.000 HD
ENDROOT
BRANCH   1   8
ATOM      7  O   UNL     1       7.705   6.123  15.798  0.00  0.00    +0.000 OA
ATOM      8  C   UNL     1       6.669   5.492  15.582  0.00  0.00    +0.000 C 
ATOM      9  N   UNL     1       6.383   4.937  14.350  0.00  0.00    +0.000 N 
ATOM     10  C   UNL     1       7.391   4.844  13.295  0.00  0.00    +0.000 C 
ATOM     11  C   UNL     1       6.831   3.755  12.430  0.00  0.00    +0.000 A 
ATOM     12  C   UNL     1       7.447   2.747  11.724  0.00  0.00    +0.000 A 
ATOM     13  C   UNL     1       6.637   1.811  11.072  0.00  0.00    +0.000 A 
ATOM     14  C   UNL     1       5.236   1.953  11.043  0.00  0.00    +0.000 A 
ATOM     15  C   UNL     1       4.619   2.916  11.828  0.00  0.00    +0.000 A 
ATOM     16  C   UNL     1       5.445   3.702  12.608  0.00  0.00    +0.000 A 
ATOM     17  C   UNL     1       5.164   4.224  13.985  0.00  0.00    +0.000 C 
ENDBRANCH   1   8
BRANCH   3  18
ATOM     18  N   UNL     1       3.257   5.569  18.596  0.00  0.00    +0.000 NA
ATOM     19  H   UNL     1       2.852   4.648  18.427  0.00  0.00    +0.000 HD
BRANCH  18  20
ATOM     20  C   UNL     1       2.559   6.175  19.737  0.00  0.00    +0.000 C 
BRANCH  20  21
ATOM     21  C   UNL     1       2.043   7.560  19.417  0.00  0.00    +0.000 A 
ATOM     22  C   UNL     1       1.368   8.316  20.390  0.00  0.00    +0.000 A 
ATOM     23  C   UNL     1       0.930   9.611  20.107  0.00  0.00    +0.000 A 
ATOM     24  C   UNL     1       1.153  10.165  18.848  0.00  0.00    +0.000 A 
ATOM     25  C   UNL     1       1.824   9.425  17.875  0.00  0.00    +0.000 A 
ATOM     26  C   UNL     1       2.268   8.132  18.157  0.00  0.00    +0.000 A 
ENDBRANCH  20  21
ENDBRANCH  18  20
ENDBRANCH   3  18
TORSDOF 4
ENDMDL
MODEL 3
REMARK VINA RESULT:      -8.0      4.112      8.149
REMARK  Name = 
REMARK  4 active torsions:
REMARK  status: ('A' for Active; 'I' for Inactive)
REMARK    1  A    between atoms: C_2  and  C_3
REMARK    2  A    between atoms: C_5  and  N_6
REMARK    3  A    between atoms: N_6  and  C_7
REMARK    4  A    between atoms: C_7  and  C_8
REMARK                            x       y       z     vdW  Elec       q    Type
REMARK                         _______ _______ _______ _____ _____    ______ ____
ROOT
ATOM      1  C   UNL     1       6.086   6.127  17.824  0.00  0.00    +0.000 C 
ATOM      2  C   UNL     1       7.219   6.755  17.043  0.00  0.00    +0.000 C 
ATOM      3  C   UNL     1       8.221   7.096  18.153  0.00  0.00    +0.000 C 
ATOM      4  C   UNL     1       8.011   5.941  19.164  0.00  0.00    +0.000 C 
ATOM      5  N   UNL     1       6.803   5.207  18.740  0.00  0.00    +0.000 NA
ATOM      6  H   UNL     1       6.245   4.934  19.518  0.00  0.00    +0.000 HD
ENDROOT
BRANCH   1   8
ATOM      7  O   UNL     1       5.255   4.990  15.841  0.00  0.00    +0.000 OA
ATOM      8  C   UNL     1       5.059   5.344  17.005  0.00  0.00    +0.000 C 
ATOM      9  N   UNL     1       3.915   5.002  17.701  0.00  0.00    +0.000 N 
ATOM     10  C   UNL     1       2.979   3.998  17.197  0.00  0.00    +0.000 C 
ATOM     11  C   UNL     1       2.262   3.592  18.449  0.00  0.00    +0.000 A 
ATOM     12  C   UNL     1       1.787   2.370  18.869  0.00  0.00    +0.000 A 
ATOM     13  C   UNL     1       1.232   2.286  20.151  0.00  0.00    +0.000 A 
ATOM     14  C   UNL     1       1.060   3.434  20.948  0.00  0.00    +0.000 A 
ATOM     15  C   UNL     1       1.620   4.642  20.557  0.00  0.00    +0.000 A 
ATOM     16  C   UNL     1       2.327   4.641  19.370  0.00  0.00    +0.000 A 
ATOM     17  C   UNL     1       3.570   5.418  19.056  0.00  0.00    +0.000 C 
ENDBRANCH   1   8
BRANCH   3  18
ATOM     18  N   UNL     1       7.933   8.424  18.732  0.00  0.00    +0.000 NA
ATOM     19  H   UNL     1       8.406   8.533  19.630  0.00  0.00    +0.000 HD
BRANCH  18  20
ATOM     20  C   UNL     1       8.366   9.516  17.850  0.00  0.00    +0.000 C 
BRANCH  20  21
ATOM     21  C   UNL     1       9.305  10.472  18.549  0.00  0.00    +0.000 A 
ATOM     22  C   UNL     1       9.295  10.593  19.949  0.00  0.00    +0.000 A 
ATOM     23  C   UNL     1      10.192  11.445  20.597  0.00  0.00    +0.000 A 
ATOM     24  C   UNL     1      11.105  12.193  19.856  0.00  0.00    +0.000 A 
ATOM     25  C   UNL     1      11.126  12.081  18.466  0.00  0.00    +0.000 A 
ATOM     26  C   UNL     1      10.235  11.225  17.816  0.00  0.00    +0.000 A 
ENDBRANCH  20  21
ENDBRANCH  18  20
ENDBRANCH   3  18
TORSDOF 4
ENDMDL
MODEL 4
REMARK VINA RESULT:      -8.0      4.169      8.141
REMARK  Name = 
REMARK  4 active torsions:
REMARK  status: ('A' for Active; 'I' for Inactive)
REMARK    1  A    between atoms: C_2  and  C_3
REMARK    2  A    between atoms: C_5  and  N_6
REMARK    3  A    between atoms: N_6  and  C_7
REMARK    4  A    between atoms: C_7  and  C_8
REMARK                            x       y       z     vdW  Elec       q    Type
REMARK                         _______ _______ _______ _____ _____    ______ ____
ROOT
ATOM      1  C   UNL     1       6.077   6.288  17.724  0.00  0.00    +0.000 C 
ATOM      2  C   UNL     1       7.195   6.941  16.942  0.00  0.00    +0.000 C 
ATOM      3  C   UNL     1       8.194   7.297  18.049  0.00  0.00    +0.000 C 
ATOM      4  C   UNL     1       8.009   6.134  19.057  0.00  0.00    +0.000 C 
ATOM      5  N   UNL     1       6.814   5.379  18.634  0.00  0.00    +0.000 NA
ATOM      6  H   UNL     1       6.264   5.092  19.413  0.00  0.00    +0.000 HD
ENDROOT
BRANCH   1   8
ATOM      7  O   UNL     1       5.270   5.123  15.748  0.00  0.00    +0.000 OA
ATOM      8  C   UNL     1       5.062   5.488  16.906  0.00  0.00    +0.000 C 
ATOM      9  N   UNL     1       3.916   5.145  17.597  0.00  0.00    +0.000 N 
ATOM     10  C   UNL     1       2.991   4.129  17.096  0.00  0.00    +0.000 C 
ATOM     11  C   UNL     1       2.267   3.730  18.347  0.00  0.00    +0.000 A 
ATOM     12  C   UNL     1       1.798   2.510  18.776  0.00  0.00    +0.000 A 
ATOM     13  C   UNL     1       1.233   2.436  20.055  0.00  0.00    +0.000 A 
ATOM     14  C   UNL     1       1.046   3.591  20.838  0.00  0.00    +0.000 A 
ATOM     15  C   UNL     1       1.601   4.799  20.438  0.00  0.00    +0.000 A 
ATOM     16  C   UNL     1       2.317   4.790  19.257  0.00  0.00    +0.000 A 
ATOM     17  C   UNL     1       3.557   5.573  18.944  0.00  0.00    +0.000 C 
ENDBRANCH   1   8
BRANCH   3  18
ATOM     18  N   UNL     1       7.882   8.617  18.635  0.00  0.00    +0.000 NA
ATOM     19  H   UNL     1       8.296   8.703  19.564  0.00  0.00    +0.000 HD
BRANCH  18  20
ATOM     20  C   UNL     1       8.385   9.720  17.805  0.00  0.00    +0.000 C 
BRANCH  20  21
ATOM     21  C   UNL     1       9.405  10.562  18.537  0.00  0.00    +0.000 A 
ATOM     22  C   UNL     1      10.428  11.221  17.834  0.00  0.00    +0.000 A 
ATOM     23  C   UNL     1      11.344  12.032  18.506  0.00  0.00    +0.000 A 
ATOM     24  C   UNL     1      11.256  12.191  19.887  0.00  0.00    +0.000 A 
ATOM     25  C   UNL     1      10.245  11.543  20.596  0.00  0.00    +0.000 A 
ATOM     26  C   UNL     1       9.323  10.736  19.926  0.00  0.00    +0.000 A 
ENDBRANCH  20  21
ENDBRANCH  18  20
ENDBRANCH   3  18
TORSDOF 4
ENDMDL
MODEL 5
REMARK VINA RESULT:      -8.0      0.382      1.048
REMARK  Name = 
REMARK  4 active torsions:
REMARK  status: ('A' for Active; 'I' for Inactive)
REMARK    1  A    between atoms: C_2  and  C_3
REMARK    2  A    between atoms: C_5  and  N_6
REMARK    3  A    between atoms: N_6  and  C_7
REMARK    4  A    between atoms: C_7  and  C_8
REMARK                            x       y       z     vdW  Elec       q    Type
REMARK                         _______ _______ _______ _____ _____    ______ ____
ROOT
ATOM      1  C   UNL     1       5.785   5.359  16.343  0.00  0.00    +0.000 C 
ATOM      2  C   UNL     1       5.785   6.473  17.367  0.00  0.00    +0.000 C 
ATOM      3  C   UNL     1       4.909   5.884  18.479  0.00  0.00    +0.000 C 
ATOM      4  C   UNL     1       5.246   4.372  18.410  0.00  0.00    +0.000 C 
ATOM      5  N   UNL     1       6.031   4.159  17.179  0.00  0.00    +0.000 NA
ATOM      6  H   UNL     1       5.773   3.315  16.718  0.00  0.00    +0.000 HD
ENDROOT
BRANCH   1   8
ATOM      7  O   UNL     1       7.957   5.960  15.430  0.00  0.00    +0.000 OA
ATOM      8  C   UNL     1       6.850   5.452  15.249  0.00  0.00    +0.000 C 
ATOM      9  N   UNL     1       6.493   4.858  14.053  0.00  0.00    +0.000 N 
ATOM     10  C   UNL     1       7.479   4.569  13.014  0.00  0.00    +0.000 C 
ATOM     11  C   UNL     1       6.784   3.504  12.219  0.00  0.00    +0.000 A 
ATOM     12  C   UNL     1       7.266   2.382  11.585  0.00  0.00    +0.000 A 
ATOM     13  C   UNL     1       6.342   1.515  10.990  0.00  0.00    +0.000 A 
ATOM     14  C   UNL     1       4.971   1.833  10.941  0.00  0.00    +0.000 A 
ATOM     15  C   UNL     1       4.482   2.917  11.657  0.00  0.00    +0.000 A 
ATOM     16  C   UNL     1       5.403   3.640  12.390  0.00  0.00    +0.000 A 
ATOM     17  C   UNL     1       5.192   4.284  13.727  0.00  0.00    +0.000 C 
ENDBRANCH   1   8
BRANCH   3  18
ATOM     18  N   UNL     1       3.480   6.163  18.228  0.00  0.00    +0.000 NA
ATOM     19  H   UNL     1       3.093   5.485  17.571  0.00  0.00    +0.000 HD
BRANCH  18  20
ATOM     20  C   UNL     1       2.684   6.114  19.461  0.00  0.00    +0.000 C 
BRANCH  20  21
ATOM     21  C   UNL     1       2.071   4.751  19.687  0.00  0.00    +0.000 A 
ATOM     22  C   UNL     1       1.981   4.211  20.982  0.00  0.00    +0.000 A 
ATOM     23  C   UNL     1       1.376   2.971  21.194  0.00  0.00    +0.000 A 
ATOM     24  C   UNL     1       0.861   2.250  20.119  0.00  0.00    +0.000 A 
ATOM     25  C   UNL     1       0.943   2.776  18.830  0.00  0.00    +0.000 A 
ATOM     26  C   UNL     1       1.542   4.019  18.615  0.00  0.00    +0.000 A 
ENDBRANCH  20  21
ENDBRANCH  18  20
ENDBRANCH   3  18
TORSDOF 4
ENDMDL
MODEL 6
REMARK VINA RESULT:      -8.0      2.387      8.270
REMARK  Name = 
REMARK  4 active torsions:
REMARK  status: ('A' for Active; 'I' for Inactive)
REMARK    1  A    between atoms: C_2  and  C_3
REMARK    2  A    between atoms: C_5  and  N_6
REMARK    3  A    between atoms: N_6  and  C_7
REMARK    4  A    between atoms: C_7  and  C_8
REMARK                            x       y       z     vdW  Elec       q    Type
REMARK                         _______ _______ _______ _____ _____    ______ ____
ROOT
ATOM      1  C   UNL     1       5.464   5.239  18.617  0.00  0.00    +0.000 C 
ATOM      2  C   UNL     1       5.998   4.145  17.719  0.00  0.00    +0.000 C 
ATOM      3  C   UNL     1       7.415   4.648  17.411  0.00  0.00    +0.000 C 
ATOM      4  C   UNL     1       7.811   5.365  18.727  0.00  0.00    +0.000 C 
ATOM      5  N   UNL     1       6.592   5.460  19.553  0.00  0.00    +0.000 NA
ATOM      6  H   UNL     1       6.531   6.337  20.021  0.00  0.00    +0.000 HD
ENDROOT
BRANCH   1   8
ATOM      7  O   UNL     1       4.080   3.881  20.085  0.00  0.00    +0.000 OA
ATOM      8  C   UNL     1       4.197   4.901  19.405  0.00  0.00    +0.000 C 
ATOM      9  N   UNL     1       3.215   5.871  19.349  0.00  0.00    +0.000 N 
ATOM     10  C   UNL     1       2.085   5.877  20.277  0.00  0.00    +0.000 C 
ATOM     11  C   UNL     1       1.637   7.306  20.206  0.00  0.00    +0.000 A 
ATOM     12  C   UNL     1       1.142   8.152  21.172  0.00  0.00    +0.000 A 
ATOM     13  C   UNL     1       0.892   9.482  20.814  0.00  0.00    +0.000 A 
ATOM     14  C   UNL     1       1.034   9.918  19.482  0.00  0.00    +0.000 A 
ATOM     15  C   UNL     1       1.616   9.086  18.536  0.00  0.00    +0.000 A 
ATOM     16  C   UNL     1       2.025   7.842  18.975  0.00  0.00    +0.000 A 
ATOM     17  C   UNL     1       3.239   7.081  18.533  0.00  0.00    +0.000 C 
ENDBRANCH   1   8
BRANCH   3  18
ATOM     18  N   UNL     1       7.410   5.554  16.245  0.00  0.00    +0.000 NA
ATOM     19  H   UNL     1       8.186   5.336  15.620  0.00  0.00    +0.000 HD
BRANCH  18  20
ATOM     20  C   UNL     1       6.161   5.455  15.476  0.00  0.00    +0.000 C 
BRANCH  20  21
ATOM     21  C   UNL     1       6.381   4.837  14.114  0.00  0.00    +0.000 A 
ATOM     22  C   UNL     1       7.490   5.201  13.332  0.00  0.00    +0.000 A 
ATOM     23  C   UNL     1       7.715   4.598  12.093  0.00  0.00    +0.000 A 
ATOM     24  C   UNL     1       6.833   3.631  11.615  0.00  0.00    +0.000 A 
ATOM     25  C   UNL     1       5.729   3.261  12.382  0.00  0.00    +0.000 A 
ATOM     26  C   UNL     1       5.505   3.857  13.625  0.00  0.00    +0.000 A 
ENDBRANCH  20  21
ENDBRANCH  18  20
ENDBRANCH   3  18
TORSDOF 4
ENDMDL
MODEL 7
REMARK VINA RESULT:      -7.9      1.651      2.935
REMARK  Name = 
REMARK  4 active torsions:
REMARK  status: ('A' for Active; 'I' for Inactive)
REMARK    1  A    between atoms: C_2  and  C_3
REMARK    2  A    between atoms: C_5  and  N_6
REMARK    3  A    between atoms: N_6  and  C_7
REMARK    4  A    between atoms: C_7  and  C_8
REMARK                            x       y       z     vdW  Elec       q    Type
REMARK                         _______ _______ _______ _____ _____    ______ ____
ROOT
ATOM      1  C   UNL     1       5.569   5.193  16.505  0.00  0.00    +0.000 C 
ATOM      2  C   UNL     1       5.553   6.179  17.653  0.00  0.00    +0.000 C 
ATOM      3  C   UNL     1       4.679   5.453  18.683  0.00  0.00    +0.000 C 
ATOM      4  C   UNL     1       5.034   3.964  18.438  0.00  0.00    +0.000 C 
ATOM      5  N   UNL     1       5.826   3.906  17.194  0.00  0.00    +0.000 NA
ATOM      6  H   UNL     1       5.579   3.120  16.636  0.00  0.00    +0.000 HD
ENDROOT
BRANCH   1   8
ATOM      7  O   UNL     1       7.694   6.018  15.657  0.00  0.00    +0.000 OA
ATOM      8  C   UNL     1       6.637   5.427  15.435  0.00  0.00    +0.000 C 
ATOM      9  N   UNL     1       6.350   4.858  14.209  0.00  0.00    +0.000 N 
ATOM     10  C   UNL     1       7.372   4.701  13.175  0.00  0.00    +0.000 C 
ATOM     11  C   UNL     1       6.782   3.618  12.323  0.00  0.00    +0.000 A 
ATOM     12  C   UNL     1       7.368   2.571  11.649  0.00  0.00    +0.000 A 
ATOM     13  C   UNL     1       6.531   1.655  11.001  0.00  0.00    +0.000 A 
ATOM     14  C   UNL     1       5.139   1.856  10.942  0.00  0.00    +0.000 A 
ATOM     15  C   UNL     1       4.548   2.861  11.695  0.00  0.00    +0.000 A 
ATOM     16  C   UNL     1       5.393   3.627  12.474  0.00  0.00    +0.000 A 
ATOM     17  C   UNL     1       5.108   4.189  13.835  0.00  0.00    +0.000 C 
ENDBRANCH   1   8
BRANCH   3  18
ATOM     18  N   UNL     1       3.248   5.745  18.459  0.00  0.00    +0.000 NA
ATOM     19  H   UNL     1       2.741   4.891  18.229  0.00  0.00    +0.000 HD
BRANCH  18  20
ATOM     20  C   UNL     1       2.618   6.349  19.641  0.00  0.00    +0.000 C 
BRANCH  20  21
ATOM     21  C   UNL     1       2.067   7.726  19.349  0.00  0.00    +0.000 A 
ATOM     22  C   UNL     1       2.173   8.283  18.063  0.00  0.00    +0.000 A 
ATOM     23  C   UNL     1       1.625   9.537  17.784  0.00  0.00    +0.000 A 
ATOM     24  C   UNL     1       0.971  10.253  18.785  0.00  0.00    +0.000 A 
ATOM     25  C   UNL     1       0.858   9.710  20.064  0.00  0.00    +0.000 A 
ATOM     26  C   UNL     1       1.400   8.454  20.345  0.00  0.00    +0.000 A 
ENDBRANCH  20  21
ENDBRANCH  18  20
ENDBRANCH   3  18
TORSDOF 4
ENDMDL
MODEL 8
REMARK VINA RESULT:      -7.9      4.076      8.232
REMARK  Name = 
REMARK  4 active torsions:
REMARK  status: ('A' for Active; 'I' for Inactive)
REMARK    1  A    between atoms: C_2  and  C_3
REMARK    2  A    between atoms: C_5  and  N_6
REMARK    3  A    between atoms: N_6  and  C_7
REMARK    4  A    between atoms: C_7  and  C_8
REMARK                            x       y       z     vdW  Elec       q    Type
REMARK                         _______ _______ _______ _____ _____    ______ ____
ROOT
ATOM      1  C   UNL     1       5.970   6.315  17.419  0.00  0.00    +0.000 C 
ATOM      2  C   UNL     1       7.121   6.802  16.566  0.00  0.00    +0.000 C 
ATOM      3  C   UNL     1       8.084   7.363  17.621  0.00  0.00    +0.000 C 
ATOM      4  C   UNL     1       7.853   6.416  18.826  0.00  0.00    +0.000 C 
ATOM      5  N   UNL     1       6.667   5.596  18.513  0.00  0.00    +0.000 NA
ATOM      6  H   UNL     1       6.087   5.466  19.312  0.00  0.00    +0.000 HD
ENDROOT
BRANCH   1   8
ATOM      7  O   UNL     1       5.169   4.894  15.616  0.00  0.00    +0.000 OA
ATOM      8  C   UNL     1       4.978   5.374  16.734  0.00  0.00    +0.000 C 
ATOM      9  N   UNL     1       3.876   5.050  17.502  0.00  0.00    +0.000 N 
ATOM     10  C   UNL     1       2.996   3.935  17.153  0.00  0.00    +0.000 C 
ATOM     11  C   UNL     1       2.337   3.642  18.467  0.00  0.00    +0.000 A 
ATOM     12  C   UNL     1       1.953   2.453  19.046  0.00  0.00    +0.000 A 
ATOM     13  C   UNL     1       1.435   2.493  20.346  0.00  0.00    +0.000 A 
ATOM     14  C   UNL     1       1.208   3.718  21.003  0.00  0.00    +0.000 A 
ATOM     15  C   UNL     1       1.678   4.901  20.452  0.00  0.00    +0.000 A 
ATOM     16  C   UNL     1       2.355   4.798  19.252  0.00  0.00    +0.000 A 
ATOM     17  C   UNL     1       3.536   5.607  18.807  0.00  0.00    +0.000 C 
ENDBRANCH   1   8
BRANCH   3  18
ATOM     18  N   UNL     1       7.764   8.771  17.929  0.00  0.00    +0.000 NA
ATOM     19  H   UNL     1       6.848   8.841  18.374  0.00  0.00    +0.000 HD
BRANCH  18  20
ATOM     20  C   UNL     1       8.757   9.378  18.825  0.00  0.00    +0.000 C 
BRANCH  20  21
ATOM     21  C   UNL     1       9.238  10.718  18.316  0.00  0.00    +0.000 A 
ATOM     22  C   UNL     1       8.320  11.696  17.894  0.00  0.00    +0.000 A 
ATOM     23  C   UNL     1       8.763  12.949  17.465  0.00  0.00    +0.000 A 
ATOM     24  C   UNL     1      10.126  13.239  17.444  0.00  0.00    +0.000 A 
ATOM     25  C   UNL     1      11.046  12.278  17.861  0.00  0.00    +0.000 A 
ATOM     26  C   UNL     1      10.606  11.026  18.297  0.00  0.00    +0.000 A 
ENDBRANCH  20  21
ENDBRANCH  18  20
ENDBRANCH   3  18
TORSDOF 4
ENDMDL
MODEL 9
REMARK VINA RESULT:      -7.7      2.075      8.122
REMARK  Name = 
REMARK  4 active torsions:
REMARK  status: ('A' for Active; 'I' for Inactive)
REMARK    1  A    between atoms: C_2  and  C_3
REMARK    2  A    between atoms: C_5  and  N_6
REMARK    3  A    between atoms: N_6  and  C_7
REMARK    4  A    between atoms: C_7  and  C_8
REMARK                            x       y       z     vdW  Elec       q    Type
REMARK                         _______ _______ _______ _____ _____    ______ ____
ROOT
ATOM      1  C   UNL     1       5.341   4.834  17.668  0.00  0.00    +0.000 C 
ATOM      2  C   UNL     1       5.314   3.907  16.473  0.00  0.00    +0.000 C 
ATOM      3  C   UNL     1       6.702   4.135  15.861  0.00  0.00    +0.000 C 
ATOM      4  C   UNL     1       7.584   4.391  17.111  0.00  0.00    +0.000 C 
ATOM      5  N   UNL     1       6.671   4.552  18.260  0.00  0.00    +0.000 NA
ATOM      6  H   UNL     1       6.975   5.274  18.874  0.00  0.00    +0.000 HD
ENDROOT
BRANCH   1   8
ATOM      7  O   UNL     1       4.262   3.658  19.504  0.00  0.00    +0.000 OA
ATOM      8  C   UNL     1       4.252   4.607  18.718  0.00  0.00    +0.000 C 
ATOM      9  N   UNL     1       3.286   5.595  18.761  0.00  0.00    +0.000 N 
ATOM     10  C   UNL     1       2.362   5.718  19.887  0.00  0.00    +0.000 C 
ATOM     11  C   UNL     1       1.921   7.146  19.766  0.00  0.00    +0.000 A 
ATOM     12  C   UNL     1       1.634   8.093  20.723  0.00  0.00    +0.000 A 
ATOM     13  C   UNL     1       1.330   9.390  20.293  0.00  0.00    +0.000 A 
ATOM     14  C   UNL     1       1.211   9.695  18.924  0.00  0.00    +0.000 A 
ATOM     15  C   UNL     1       1.587   8.763  17.968  0.00  0.00    +0.000 A 
ATOM     16  C   UNL     1       2.064   7.554  18.437  0.00  0.00    +0.000 A 
ATOM     17  C   UNL     1       3.160   6.721  17.843  0.00  0.00    +0.000 C 
ENDBRANCH   1   8
BRANCH   3  18
ATOM     18  N   UNL     1       6.685   5.281  14.929  0.00  0.00    +0.000 NA
ATOM     19  H   UNL     1       7.121   6.097  15.357  0.00  0.00    +0.000 HD
BRANCH  18  20
ATOM     20  C   UNL     1       7.396   4.984  13.678  0.00  0.00    +0.000 C 
BRANCH  20  21
ATOM     21  C   UNL     1       6.621   4.030  12.797  0.00  0.00    +0.000 A 
ATOM     22  C   UNL     1       7.287   3.053  12.038  0.00  0.00    +0.000 A 
ATOM     23  C   UNL     1       6.567   2.146  11.259  0.00  0.00    +0.000 A 
ATOM     24  C   UNL     1       5.176   2.206  11.220  0.00  0.00    +0.000 A 
ATOM     25  C   UNL     1       4.503   3.171  11.969  0.00  0.00    +0.000 A 
ATOM     26  C   UNL     1       5.220   4.076  12.755  0.00  0.00    +0.000 A 
ENDBRANCH  20  21
ENDBRANCH  18  20
ENDBRANCH   3  18
TORSDOF 4
ENDMDL
