MODEL 1
REMARK VINA RESULT:      -8.5      0.000      0.000
REMARK  Name = 
REMARK  8 active torsions:
REMARK  status: ('A' for Active; 'I' for Inactive)
REMARK    1  A    between atoms: C_1  and  C_2
REMARK    2  A    between atoms: C_5  and  S_6
REMARK    3  A    between atoms: S_6  and  N_9
REMARK    4  A    between atoms: C_13  and  C_14
REMARK    5  A    between atoms: C_14  and  N_15
REMARK    6  A    between atoms: C_16  and  C_18
REMARK    7  A    between atoms: N_20  and  C_21
REMARK    8  A    between atoms: C_21  and  C_22
REMARK                            x       y       z     vdW  Elec       q    Type
REMARK                         _______ _______ _______ _____ _____    ______ ____
ROOT
ATOM      1  C   UNL     1       2.373   6.275  19.709  0.00  0.00    +0.000 C 
ENDROOT
BRANCH   1   6
ATOM      2  N   UNL     1       2.352   3.860  19.231  0.00  0.00    +0.000 NA
ATOM      3  C   UNL     1       1.272   3.142  19.866  0.00  0.00    +0.000 C 
ATOM      4  C   UNL     1       1.423   3.497  21.333  0.00  0.00    +0.000 C 
ATOM      5  O   UNL     1       2.399   4.538  21.440  0.00  0.00    +0.000 OA
ATOM      6  C   UNL     1       2.881   4.868  20.131  0.00  0.00    +0.000 C 
BRANCH   2   7
ATOM      7  S   UNL     1       3.178   3.345  17.898  0.00  0.00    +0.000 S 
ATOM      8  O   UNL     1       2.309   3.524  16.754  0.00  0.00    +0.000 OA
ATOM      9  O   UNL     1       3.730   2.047  18.213  0.00  0.00    +0.000 OA
BRANCH   7  14
ATOM     10  C   UNL     1       7.627   7.489  17.617  0.00  0.00    +0.000 C 
ATOM     11  C   UNL     1       6.558   6.434  17.631  0.00  0.00    +0.000 A 
ATOM     12  C   UNL     1       5.422   6.547  16.820  0.00  0.00    +0.000 A 
ATOM     13  C   UNL     1       4.418   5.574  16.861  0.00  0.00    +0.000 A 
ATOM     14  C   UNL     1       4.551   4.468  17.706  0.00  0.00    +0.000 A 
ATOM     15  C   UNL     1       5.673   4.352  18.534  0.00  0.00    +0.000 A 
ATOM     16  C   UNL     1       6.672   5.331  18.490  0.00  0.00    +0.000 A 
ENDBRANCH   7  14
ENDBRANCH   2   7
ENDBRANCH   1   6
BRANCH   1  17
ATOM     17  N   UNL     1       1.887   7.095  20.818  0.00  0.00    +0.000 N 
ATOM     18  C   UNL     1       1.378   8.360  20.644  0.00  0.00    +0.000 C 
ATOM     19  O   UNL     1       1.186   8.927  19.577  0.00  0.00    +0.000 OA
ATOM     20  H   UNL     1       2.063   6.793  21.774  0.00  0.00    +0.000 HD
BRANCH  18  21
ATOM     21  C   UNL     1       1.044   9.092  21.968  0.00  0.00    +0.000 C 
ATOM     22  O   UNL     1       1.923   9.299  22.790  0.00  0.00    +0.000 OA
ATOM     23  N   UNL     1      -0.277   9.456  22.077  0.00  0.00    +0.000 N 
ATOM     24  H   UNL     1      -0.878   9.247  21.283  0.00  0.00    +0.000 HD
BRANCH  23  25
ATOM     25  C   UNL     1      -0.810  10.155  23.220  0.00  0.00    +0.000 C 
BRANCH  25  26
ATOM     26  C   UNL     1      -1.298  11.530  22.849  0.00  0.00    +0.000 A 
ATOM     27  C   UNL     1      -0.498  12.396  22.099  0.00  0.00    +0.000 A 
ATOM     28  C   UNL     1      -0.999  13.642  21.755  0.00  0.00    +0.000 A 
ATOM     29  N   UNL     1      -2.230  14.076  22.096  0.00  0.00    +0.000 NA
ATOM     30  C   UNL     1      -2.993  13.225  22.814  0.00  0.00    +0.000 A 
ATOM     31  C   UNL     1      -2.580  11.964  23.213  0.00  0.00    +0.000 A 
ENDBRANCH  25  26
ENDBRANCH  23  25
ENDBRANCH  18  21
ENDBRANCH   1  17
TORSDOF 7
ENDMDL
MODEL 2
REMARK VINA RESULT:      -8.4      0.444      1.316
REMARK  Name = 
REMARK  8 active torsions:
REMARK  status: ('A' for Active; 'I' for Inactive)
REMARK    1  A    between atoms: C_1  and  C_2
REMARK    2  A    between atoms: C_5  and  S_6
REMARK    3  A    between atoms: S_6  and  N_9
REMARK    4  A    between atoms: C_13  and  C_14
REMARK    5  A    between atoms: C_14  and  N_15
REMARK    6  A    between atoms: C_16  and  C_18
REMARK    7  A    between atoms: N_20  and  C_21
REMARK    8  A    between atoms: C_21  and  C_22
REMARK                            x       y       z     vdW  Elec       q    Type
REMARK                         _______ _______ _______ _____ _____    ______ ____
ROOT
ATOM      1  C   UNL     1       2.316   6.319  19.795  0.00  0.00    +0.000 C 
ENDROOT
BRANCH   1   6
ATOM      2  N   UNL     1       2.522   3.937  19.212  0.00  0.00    +0.000 NA
ATOM      3  C   UNL     1       1.365   3.144  19.554  0.00  0.00    +0.000 C 
ATOM      4  C   UNL     1       1.168   3.419  21.032  0.00  0.00    +0.000 C 
ATOM      5  O   UNL     1       2.043   4.490  21.404  0.00  0.00    +0.000 OA
ATOM      6  C   UNL     1       2.786   4.912  20.254  0.00  0.00    +0.000 C 
BRANCH   2   7
ATOM      7  S   UNL     1       3.648   3.530  18.076  0.00  0.00    +0.000 S 
ATOM      8  O   UNL     1       2.973   3.474  16.797  0.00  0.00    +0.000 OA
ATOM      9  O   UNL     1       4.372   2.386  18.582  0.00  0.00    +0.000 OA
BRANCH   7  14
ATOM     10  C   UNL     1       7.842   7.901  17.485  0.00  0.00    +0.000 C 
ATOM     11  C   UNL     1       6.780   6.858  17.685  0.00  0.00    +0.000 A 
ATOM     12  C   UNL     1       6.962   5.810  18.596  0.00  0.00    +0.000 A 
ATOM     13  C   UNL     1       5.980   4.827  18.755  0.00  0.00    +0.000 A 
ATOM     14  C   UNL     1       4.797   4.893  18.013  0.00  0.00    +0.000 A 
ATOM     15  C   UNL     1       4.611   5.925  17.087  0.00  0.00    +0.000 A 
ATOM     16  C   UNL     1       5.599   6.904  16.931  0.00  0.00    +0.000 A 
ENDBRANCH   7  14
ENDBRANCH   2   7
ENDBRANCH   1   6
BRANCH   1  17
ATOM     17  N   UNL     1       1.825   7.171  20.878  0.00  0.00    +0.000 N 
ATOM     18  C   UNL     1       1.356   8.447  20.671  0.00  0.00    +0.000 C 
ATOM     19  O   UNL     1       1.206   9.000  19.591  0.00  0.00    +0.000 OA
ATOM     20  H   UNL     1       1.969   6.880  21.843  0.00  0.00    +0.000 HD
BRANCH  18  21
ATOM     21  C   UNL     1       1.010   9.208  21.975  0.00  0.00    +0.000 C 
ATOM     22  O   UNL     1       1.878   9.425  22.806  0.00  0.00    +0.000 OA
ATOM     23  N   UNL     1      -0.309   9.587  22.056  0.00  0.00    +0.000 N 
ATOM     24  H   UNL     1      -0.900   9.367  21.259  0.00  0.00    +0.000 HD
BRANCH  23  25
ATOM     25  C   UNL     1      -0.853  10.314  23.176  0.00  0.00    +0.000 C 
BRANCH  25  26
ATOM     26  C   UNL     1      -1.561  11.567  22.732  0.00  0.00    +0.000 A 
ATOM     27  C   UNL     1      -2.728  11.994  23.370  0.00  0.00    +0.000 A 
ATOM     28  C   UNL     1      -3.331  13.168  22.948  0.00  0.00    +0.000 A 
ATOM     29  N   UNL     1      -2.852  13.941  21.951  0.00  0.00    +0.000 NA
ATOM     30  C   UNL     1      -1.720  13.518  21.349  0.00  0.00    +0.000 A 
ATOM     31  C   UNL     1      -1.049  12.356  21.693  0.00  0.00    +0.000 A 
ENDBRANCH  25  26
ENDBRANCH  23  25
ENDBRANCH  18  21
ENDBRANCH   1  17
TORSDOF 7
ENDMDL
MODEL 3
REMARK VINA RESULT:      -8.3      3.297      3.716
REMARK  Name = 
REMARK  8 active torsions:
REMARK  status: ('A' for Active; 'I' for Inactive)
REMARK    1  A    between atoms: C_1  and  C_2
REMARK    2  A    between atoms: C_5  and  S_6
REMARK    3  A    between atoms: S_6  and  N_9
REMARK    4  A    between atoms: C_13  and  C_14
REMARK    5  A    between atoms: C_14  and  N_15
REMARK    6  A    between atoms: C_16  and  C_18
REMARK    7  A    between atoms: N_20  and  C_21
REMARK    8  A    between atoms: C_21  and  C_22
REMARK                            x       y       z     vdW  Elec       q    Type
REMARK                         _______ _______ _______ _____ _____    ______ ____
ROOT
ATOM      1  C   UNL     1       2.779   6.990  18.720  0.00  0.00    +0.000 C 
ENDROOT
BRANCH   1   6
ATOM      2  N   UNL     1       3.536   4.706  19.241  0.00  0.00    +0.000 NA
ATOM      3  C   UNL     1       2.495   3.708  19.166  0.00  0.00    +0.000 C 
ATOM      4  C   UNL     1       1.420   4.245  20.090  0.00  0.00    +0.000 C 
ATOM      5  O   UNL     1       1.778   5.581  20.459  0.00  0.00    +0.000 OA
ATOM      6  C   UNL     1       3.017   5.927  19.828  0.00  0.00    +0.000 C 
BRANCH   2   7
ATOM      7  S   UNL     1       5.153   4.399  19.123  0.00  0.00    +0.000 S 
ATOM      8  O   UNL     1       5.367   3.030  19.540  0.00  0.00    +0.000 OA
ATOM      9  O   UNL     1       5.844   5.489  19.775  0.00  0.00    +0.000 OA
BRANCH   7  14
ATOM     10  C   UNL     1       6.656   4.205  13.227  0.00  0.00    +0.000 C 
ATOM     11  C   UNL     1       6.273   4.322  14.675  0.00  0.00    +0.000 A 
ATOM     12  C   UNL     1       7.218   4.687  15.643  0.00  0.00    +0.000 A 
ATOM     13  C   UNL     1       6.860   4.765  16.993  0.00  0.00    +0.000 A 
ATOM     14  C   UNL     1       5.545   4.493  17.385  0.00  0.00    +0.000 A 
ATOM     15  C   UNL     1       4.597   4.111  16.430  0.00  0.00    +0.000 A 
ATOM     16  C   UNL     1       4.963   4.031  15.082  0.00  0.00    +0.000 A 
ENDBRANCH   7  14
ENDBRANCH   2   7
ENDBRANCH   1   6
BRANCH   1  17
ATOM     17  N   UNL     1       1.759   7.984  19.051  0.00  0.00    +0.000 N 
ATOM     18  C   UNL     1       1.597   9.152  18.343  0.00  0.00    +0.000 C 
ATOM     19  O   UNL     1       2.196   9.476  17.327  0.00  0.00    +0.000 OA
ATOM     20  H   UNL     1       1.243   7.895  19.924  0.00  0.00    +0.000 HD
BRANCH  18  21
ATOM     21  C   UNL     1       0.544  10.113  18.949  0.00  0.00    +0.000 C 
ATOM     22  O   UNL     1       0.109   9.914  20.073  0.00  0.00    +0.000 OA
ATOM     23  N   UNL     1       0.201  11.150  18.114  0.00  0.00    +0.000 N 
ATOM     24  H   UNL     1       0.686  11.200  17.221  0.00  0.00    +0.000 HD
BRANCH  23  25
ATOM     25  C   UNL     1      -0.753  12.169  18.473  0.00  0.00    +0.000 C 
BRANCH  25  26
ATOM     26  C   UNL     1      -2.150  11.791  18.055  0.00  0.00    +0.000 A 
ATOM     27  C   UNL     1      -2.391  11.215  16.805  0.00  0.00    +0.000 A 
ATOM     28  C   UNL     1      -3.688  10.856  16.471  0.00  0.00    +0.000 A 
ATOM     29  N   UNL     1      -4.746  11.022  17.292  0.00  0.00    +0.000 NA
ATOM     30  C   UNL     1      -4.495  11.573  18.498  0.00  0.00    +0.000 A 
ATOM     31  C   UNL     1      -3.237  11.972  18.920  0.00  0.00    +0.000 A 
ENDBRANCH  25  26
ENDBRANCH  23  25
ENDBRANCH  18  21
ENDBRANCH   1  17
TORSDOF 7
ENDMDL
MODEL 4
REMARK VINA RESULT:      -8.3      3.314      3.719
REMARK  Name = 
REMARK  8 active torsions:
REMARK  status: ('A' for Active; 'I' for Inactive)
REMARK    1  A    between atoms: C_1  and  C_2
REMARK    2  A    between atoms: C_5  and  S_6
REMARK    3  A    between atoms: S_6  and  N_9
REMARK    4  A    between atoms: C_13  and  C_14
REMARK    5  A    between atoms: C_14  and  N_15
REMARK    6  A    between atoms: C_16  and  C_18
REMARK    7  A    between atoms: N_20  and  C_21
REMARK    8  A    between atoms: C_21  and  C_22
REMARK                            x       y       z     vdW  Elec       q    Type
REMARK                         _______ _______ _______ _____ _____    ______ ____
ROOT
ATOM      1  C   UNL     1       2.840   6.919  18.742  0.00  0.00    +0.000 C 
ENDROOT
BRANCH   1   6
ATOM      2  N   UNL     1       3.535   4.584  19.094  0.00  0.00    +0.000 NA
ATOM      3  C   UNL     1       2.514   3.611  18.783  0.00  0.00    +0.000 C 
ATOM      4  C   UNL     1       1.333   4.053  19.624  0.00  0.00    +0.000 C 
ATOM      5  O   UNL     1       1.639   5.336  20.180  0.00  0.00    +0.000 OA
ATOM      6  C   UNL     1       2.945   5.738  19.746  0.00  0.00    +0.000 C 
BRANCH   2   7
ATOM      7  S   UNL     1       5.156   4.275  19.140  0.00  0.00    +0.000 S 
ATOM      8  O   UNL     1       5.328   2.936  19.661  0.00  0.00    +0.000 OA
ATOM      9  O   UNL     1       5.789   5.406  19.780  0.00  0.00    +0.000 OA
BRANCH   7  14
ATOM     10  C   UNL     1       6.876   4.749  13.321  0.00  0.00    +0.000 C 
ATOM     11  C   UNL     1       6.463   4.562  14.753  0.00  0.00    +0.000 A 
ATOM     12  C   UNL     1       5.144   4.224  15.084  0.00  0.00    +0.000 A 
ATOM     13  C   UNL     1       4.761   4.081  16.421  0.00  0.00    +0.000 A 
ATOM     14  C   UNL     1       5.701   4.260  17.441  0.00  0.00    +0.000 A 
ATOM     15  C   UNL     1       7.017   4.616  17.124  0.00  0.00    +0.000 A 
ATOM     16  C   UNL     1       7.392   4.761  15.783  0.00  0.00    +0.000 A 
ENDBRANCH   7  14
ENDBRANCH   2   7
ENDBRANCH   1   6
BRANCH   1  17
ATOM     17  N   UNL     1       1.857   7.936  19.114  0.00  0.00    +0.000 N 
ATOM     18  C   UNL     1       1.634   9.067  18.364  0.00  0.00    +0.000 C 
ATOM     19  O   UNL     1       2.137   9.334  17.282  0.00  0.00    +0.000 OA
ATOM     20  H   UNL     1       1.423   7.896  20.033  0.00  0.00    +0.000 HD
BRANCH  18  21
ATOM     21  C   UNL     1       0.643  10.066  19.013  0.00  0.00    +0.000 C 
ATOM     22  O   UNL     1       0.426  10.018  20.214  0.00  0.00    +0.000 OA
ATOM     23  N   UNL     1       0.093  10.954  18.119  0.00  0.00    +0.000 N 
ATOM     24  H   UNL     1       0.409  10.890  17.154  0.00  0.00    +0.000 HD
BRANCH  23  25
ATOM     25  C   UNL     1      -0.848  11.977  18.502  0.00  0.00    +0.000 C 
BRANCH  25  26
ATOM     26  C   UNL     1      -2.236  11.664  18.011  0.00  0.00    +0.000 A 
ATOM     27  C   UNL     1      -3.352  11.911  18.815  0.00  0.00    +0.000 A 
ATOM     28  C   UNL     1      -4.614  11.636  18.312  0.00  0.00    +0.000 A 
ATOM     29  N   UNL     1      -4.838  11.144  17.076  0.00  0.00    +0.000 NA
ATOM     30  C   UNL     1      -3.750  10.915  16.310  0.00  0.00    +0.000 A 
ATOM     31  C   UNL     1      -2.449  11.151  16.724  0.00  0.00    +0.000 A 
ENDBRANCH  25  26
ENDBRANCH  23  25
ENDBRANCH  18  21
ENDBRANCH   1  17
TORSDOF 7
ENDMDL
MODEL 5
REMARK VINA RESULT:      -8.2      3.358      9.173
REMARK  Name = 
REMARK  8 active torsions:
REMARK  status: ('A' for Active; 'I' for Inactive)
REMARK    1  A    between atoms: C_1  and  C_2
REMARK    2  A    between atoms: C_5  and  S_6
REMARK    3  A    between atoms: S_6  and  N_9
REMARK    4  A    between atoms: C_13  and  C_14
REMARK    5  A    between atoms: C_14  and  N_15
REMARK    6  A    between atoms: C_16  and  C_18
REMARK    7  A    between atoms: N_20  and  C_21
REMARK    8  A    between atoms: C_21  and  C_22
REMARK                            x       y       z     vdW  Elec       q    Type
REMARK                         _______ _______ _______ _____ _____    ______ ____
ROOT
ATOM      1  C   UNL     1       1.505   7.795  20.978  0.00  0.00    +0.000 C 
ENDROOT
BRANCH   1   6
ATOM      2  N   UNL     1       0.637  10.016  20.368  0.00  0.00    +0.000 NA
ATOM      3  C   UNL     1       0.591  10.953  21.466  0.00  0.00    +0.000 C 
ATOM      4  C   UNL     1      -0.218  10.225  22.522  0.00  0.00    +0.000 C 
ATOM      5  O   UNL     1      -0.397   8.872  22.090  0.00  0.00    +0.000 OA
ATOM      6  C   UNL     1       0.248   8.694  20.822  0.00  0.00    +0.000 C 
BRANCH   2   7
ATOM      7  S   UNL     1       0.669  10.429  18.771  0.00  0.00    +0.000 S 
ATOM      8  O   UNL     1       1.100   9.264  18.030  0.00  0.00    +0.000 OA
ATOM      9  O   UNL     1       1.385  11.680  18.667  0.00  0.00    +0.000 OA
BRANCH   7  14
ATOM     10  C   UNL     1      -5.254  11.169  17.580  0.00  0.00    +0.000 C 
ATOM     11  C   UNL     1      -3.778  11.029  17.819  0.00  0.00    +0.000 A 
ATOM     12  C   UNL     1      -3.027  10.060  17.140  0.00  0.00    +0.000 A 
ATOM     13  C   UNL     1      -1.659   9.918  17.390  0.00  0.00    +0.000 A 
ATOM     14  C   UNL     1      -1.025  10.755  18.314  0.00  0.00    +0.000 A 
ATOM     15  C   UNL     1      -1.768  11.713  19.011  0.00  0.00    +0.000 A 
ATOM     16  C   UNL     1      -3.138  11.849  18.759  0.00  0.00    +0.000 A 
ENDBRANCH   7  14
ENDBRANCH   2   7
ENDBRANCH   1   6
BRANCH   1  17
ATOM     17  N   UNL     1       1.687   6.825  19.899  0.00  0.00    +0.000 N 
ATOM     18  C   UNL     1       2.068   5.523  20.122  0.00  0.00    +0.000 C 
ATOM     19  O   UNL     1       2.218   4.984  21.209  0.00  0.00    +0.000 OA
ATOM     20  H   UNL     1       1.684   7.149  18.934  0.00  0.00    +0.000 HD
BRANCH  18  21
ATOM     21  C   UNL     1       2.325   4.713  18.826  0.00  0.00    +0.000 C 
ATOM     22  O   UNL     1       1.386   4.362  18.128  0.00  0.00    +0.000 OA
ATOM     23  N   UNL     1       3.656   4.471  18.584  0.00  0.00    +0.000 N 
ATOM     24  H   UNL     1       4.322   4.868  19.242  0.00  0.00    +0.000 HD
BRANCH  23  25
ATOM     25  C   UNL     1       4.128   3.744  17.432  0.00  0.00    +0.000 C 
BRANCH  25  26
ATOM     26  C   UNL     1       5.319   4.416  16.803  0.00  0.00    +0.000 A 
ATOM     27  C   UNL     1       5.864   3.938  15.609  0.00  0.00    +0.000 A 
ATOM     28  C   UNL     1       6.942   4.605  15.048  0.00  0.00    +0.000 A 
ATOM     29  N   UNL     1       7.503   5.708  15.587  0.00  0.00    +0.000 NA
ATOM     30  C   UNL     1       6.962   6.161  16.737  0.00  0.00    +0.000 A 
ATOM     31  C   UNL     1       5.890   5.560  17.377  0.00  0.00    +0.000 A 
ENDBRANCH  25  26
ENDBRANCH  23  25
ENDBRANCH  18  21
ENDBRANCH   1  17
TORSDOF 7
ENDMDL
MODEL 6
REMARK VINA RESULT:      -8.1      2.597      3.232
REMARK  Name = 
REMARK  8 active torsions:
REMARK  status: ('A' for Active; 'I' for Inactive)
REMARK    1  A    between atoms: C_1  and  C_2
REMARK    2  A    between atoms: C_5  and  S_6
REMARK    3  A    between atoms: S_6  and  N_9
REMARK    4  A    between atoms: C_13  and  C_14
REMARK    5  A    between atoms: C_14  and  N_15
REMARK    6  A    between atoms: C_16  and  C_18
REMARK    7  A    between atoms: N_20  and  C_21
REMARK    8  A    between atoms: C_21  and  C_22
REMARK                            x       y       z     vdW  Elec       q    Type
REMARK                         _______ _______ _______ _____ _____    ______ ____
ROOT
ATOM      1  C   UNL     1       2.461   5.151  20.929  0.00  0.00    +0.000 C 
ENDROOT
BRANCH   1   6
ATOM      2  N   UNL     1       2.852   3.739  18.952  0.00  0.00    +0.000 NA
ATOM      3  C   UNL     1       1.789   3.783  17.976  0.00  0.00    +0.000 C 
ATOM      4  C   UNL     1       0.554   3.422  18.777  0.00  0.00    +0.000 C 
ATOM      5  O   UNL     1       0.912   3.413  20.163  0.00  0.00    +0.000 OA
ATOM      6  C   UNL     1       2.300   3.743  20.294  0.00  0.00    +0.000 C 
BRANCH   2   7
ATOM      7  S   UNL     1       4.409   3.290  18.638  0.00  0.00    +0.000 S 
ATOM      8  O   UNL     1       4.412   2.591  17.371  0.00  0.00    +0.000 OA
ATOM      9  O   UNL     1       4.922   2.659  19.834  0.00  0.00    +0.000 OA
BRANCH   7  14
ATOM     10  C   UNL     1       7.807   8.207  17.485  0.00  0.00    +0.000 C 
ATOM     11  C   UNL     1       6.940   7.028  17.824  0.00  0.00    +0.000 A 
ATOM     12  C   UNL     1       7.351   6.079  18.769  0.00  0.00    +0.000 A 
ATOM     13  C   UNL     1       6.551   4.969  19.058  0.00  0.00    +0.000 A 
ATOM     14  C   UNL     1       5.321   4.806  18.412  0.00  0.00    +0.000 A 
ATOM     15  C   UNL     1       4.907   5.738  17.454  0.00  0.00    +0.000 A 
ATOM     16  C   UNL     1       5.715   6.845  17.167  0.00  0.00    +0.000 A 
ENDBRANCH   7  14
ENDBRANCH   2   7
ENDBRANCH   1   6
BRANCH   1  17
ATOM     17  N   UNL     1       2.367   6.255  19.975  0.00  0.00    +0.000 N 
ATOM     18  C   UNL     1       1.893   7.500  20.318  0.00  0.00    +0.000 C 
ATOM     19  O   UNL     1       1.578   7.876  21.438  0.00  0.00    +0.000 OA
ATOM     20  H   UNL     1       2.510   6.070  18.985  0.00  0.00    +0.000 HD
BRANCH  18  21
ATOM     21  C   UNL     1       1.761   8.474  19.120  0.00  0.00    +0.000 C 
ATOM     22  O   UNL     1       2.509   8.368  18.160  0.00  0.00    +0.000 OA
ATOM     23  N   UNL     1       0.755   9.399  19.271  0.00  0.00    +0.000 N 
ATOM     24  H   UNL     1       0.191   9.330  20.115  0.00  0.00    +0.000 HD
BRANCH  23  25
ATOM     25  C   UNL     1       0.447  10.397  18.278  0.00  0.00    +0.000 C 
BRANCH  25  26
ATOM     26  C   UNL     1      -1.039  10.592  18.132  0.00  0.00    +0.000 A 
ATOM     27  C   UNL     1      -1.707  11.579  18.862  0.00  0.00    +0.000 A 
ATOM     28  C   UNL     1      -3.070  11.744  18.676  0.00  0.00    +0.000 A 
ATOM     29  N   UNL     1      -3.804  11.005  17.817  0.00  0.00    +0.000 NA
ATOM     30  C   UNL     1      -3.144  10.060  17.116  0.00  0.00    +0.000 A 
ATOM     31  C   UNL     1      -1.786   9.814  17.236  0.00  0.00    +0.000 A 
ENDBRANCH  25  26
ENDBRANCH  23  25
ENDBRANCH  18  21
ENDBRANCH   1  17
TORSDOF 7
ENDMDL
MODEL 7
REMARK VINA RESULT:      -8.1      3.372      9.199
REMARK  Name = 
REMARK  8 active torsions:
REMARK  status: ('A' for Active; 'I' for Inactive)
REMARK    1  A    between atoms: C_1  and  C_2
REMARK    2  A    between atoms: C_5  and  S_6
REMARK    3  A    between atoms: S_6  and  N_9
REMARK    4  A    between atoms: C_13  and  C_14
REMARK    5  A    between atoms: C_14  and  N_15
REMARK    6  A    between atoms: C_16  and  C_18
REMARK    7  A    between atoms: N_20  and  C_21
REMARK    8  A    between atoms: C_21  and  C_22
REMARK                            x       y       z     vdW  Elec       q    Type
REMARK                         _______ _______ _______ _____ _____    ______ ____
ROOT
ATOM      1  C   UNL     1       1.250   7.881  21.303  0.00  0.00    +0.000 C 
ENDROOT
BRANCH   1   6
ATOM      2  N   UNL     1       0.345  10.134  20.899  0.00  0.00    +0.000 NA
ATOM      3  C   UNL     1       0.218  10.941  22.090  0.00  0.00    +0.000 C 
ATOM      4  C   UNL     1      -0.618  10.079  23.016  0.00  0.00    +0.000 C 
ATOM      5  O   UNL     1      -0.734   8.779  22.429  0.00  0.00    +0.000 OA
ATOM      6  C   UNL     1      -0.024   8.760  21.183  0.00  0.00    +0.000 C 
BRANCH   2   7
ATOM      7  S   UNL     1       0.441  10.724  19.361  0.00  0.00    +0.000 S 
ATOM      8  O   UNL     1       1.124   9.733  18.558  0.00  0.00    +0.000 OA
ATOM      9  O   UNL     1       0.940  12.077  19.452  0.00  0.00    +0.000 OA
BRANCH   7  14
ATOM     10  C   UNL     1      -5.137  11.495  17.048  0.00  0.00    +0.000 C 
ATOM     11  C   UNL     1      -3.787  11.255  17.661  0.00  0.00    +0.000 A 
ATOM     12  C   UNL     1      -3.403  11.911  18.838  0.00  0.00    +0.000 A 
ATOM     13  C   UNL     1      -2.133  11.703  19.386  0.00  0.00    +0.000 A 
ATOM     14  C   UNL     1      -1.239  10.823  18.768  0.00  0.00    +0.000 A 
ATOM     15  C   UNL     1      -1.604  10.176  17.582  0.00  0.00    +0.000 A 
ATOM     16  C   UNL     1      -2.875  10.391  17.037  0.00  0.00    +0.000 A 
ENDBRANCH   7  14
ENDBRANCH   2   7
ENDBRANCH   1   6
BRANCH   1  17
ATOM     17  N   UNL     1       1.785   7.420  20.022  0.00  0.00    +0.000 N 
ATOM     18  C   UNL     1       2.252   6.142  19.824  0.00  0.00    +0.000 C 
ATOM     19  O   UNL     1       2.210   5.220  20.626  0.00  0.00    +0.000 OA
ATOM     20  H   UNL     1       1.964   8.099  19.286  0.00  0.00    +0.000 HD
BRANCH  18  21
ATOM     21  C   UNL     1       2.889   5.915  18.430  0.00  0.00    +0.000 C 
ATOM     22  O   UNL     1       2.594   4.925  17.777  0.00  0.00    +0.000 OA
ATOM     23  N   UNL     1       3.758   6.911  18.053  0.00  0.00    +0.000 N 
ATOM     24  H   UNL     1       3.865   7.693  18.695  0.00  0.00    +0.000 HD
BRANCH  23  25
ATOM     25  C   UNL     1       4.458   6.911  16.793  0.00  0.00    +0.000 C 
BRANCH  25  26
ATOM     26  C   UNL     1       5.636   5.973  16.815  0.00  0.00    +0.000 A 
ATOM     27  C   UNL     1       5.947   5.188  15.701  0.00  0.00    +0.000 A 
ATOM     28  C   UNL     1       7.057   4.360  15.753  0.00  0.00    +0.000 A 
ATOM     29  N   UNL     1       7.873   4.266  16.824  0.00  0.00    +0.000 NA
ATOM     30  C   UNL     1       7.562   5.035  17.890  0.00  0.00    +0.000 A 
ATOM     31  C   UNL     1       6.471   5.888  17.937  0.00  0.00    +0.000 A 
ENDBRANCH  25  26
ENDBRANCH  23  25
ENDBRANCH  18  21
ENDBRANCH   1  17
TORSDOF 7
ENDMDL
MODEL 8
REMARK VINA RESULT:      -8.0      2.258      3.114
REMARK  Name = 
REMARK  8 active torsions:
REMARK  status: ('A' for Active; 'I' for Inactive)
REMARK    1  A    between atoms: C_1  and  C_2
REMARK    2  A    between atoms: C_5  and  S_6
REMARK    3  A    between atoms: S_6  and  N_9
REMARK    4  A    between atoms: C_13  and  C_14
REMARK    5  A    between atoms: C_14  and  N_15
REMARK    6  A    between atoms: C_16  and  C_18
REMARK    7  A    between atoms: N_20  and  C_21
REMARK    8  A    between atoms: C_21  and  C_22
REMARK                            x       y       z     vdW  Elec       q    Type
REMARK                         _______ _______ _______ _____ _____    ______ ____
ROOT
ATOM      1  C   UNL     1       1.822   5.386  17.772  0.00  0.00    +0.000 C 
ENDROOT
BRANCH   1   6
ATOM      2  N   UNL     1       3.122   3.687  18.989  0.00  0.00    +0.000 NA
ATOM      3  C   UNL     1       2.538   2.366  18.964  0.00  0.00    +0.000 C 
ATOM      4  C   UNL     1       1.134   2.588  19.492  0.00  0.00    +0.000 C 
ATOM      5  O   UNL     1       0.909   3.999  19.576  0.00  0.00    +0.000 OA
ATOM      6  C   UNL     1       2.085   4.690  19.136  0.00  0.00    +0.000 C 
BRANCH   2   7
ATOM      7  S   UNL     1       4.715   4.013  19.274  0.00  0.00    +0.000 S 
ATOM      8  O   UNL     1       5.277   2.865  19.953  0.00  0.00    +0.000 OA
ATOM      9  O   UNL     1       4.782   5.330  19.865  0.00  0.00    +0.000 OA
BRANCH   7  14
ATOM     10  C   UNL     1       7.176   4.877  13.775  0.00  0.00    +0.000 C 
ATOM     11  C   UNL     1       6.586   4.596  15.127  0.00  0.00    +0.000 A 
ATOM     12  C   UNL     1       5.269   4.137  15.258  0.00  0.00    +0.000 A 
ATOM     13  C   UNL     1       4.719   3.905  16.522  0.00  0.00    +0.000 A 
ATOM     14  C   UNL     1       5.489   4.116  17.670  0.00  0.00    +0.000 A 
ATOM     15  C   UNL     1       6.800   4.592  17.554  0.00  0.00    +0.000 A 
ATOM     16  C   UNL     1       7.343   4.825  16.285  0.00  0.00    +0.000 A 
ENDBRANCH   7  14
ENDBRANCH   2   7
ENDBRANCH   1   6
BRANCH   1  17
ATOM     17  N   UNL     1       1.552   6.819  17.871  0.00  0.00    +0.000 N 
ATOM     18  C   UNL     1       2.545   7.771  17.824  0.00  0.00    +0.000 C 
ATOM     19  O   UNL     1       3.733   7.572  17.614  0.00  0.00    +0.000 OA
ATOM     20  H   UNL     1       0.621   7.133  18.136  0.00  0.00    +0.000 HD
BRANCH  18  21
ATOM     21  C   UNL     1       2.044   9.214  18.077  0.00  0.00    +0.000 C 
ATOM     22  O   UNL     1       2.576  10.155  17.508  0.00  0.00    +0.000 OA
ATOM     23  N   UNL     1       0.991   9.285  18.958  0.00  0.00    +0.000 N 
ATOM     24  H   UNL     1       0.633   8.403  19.317  0.00  0.00    +0.000 HD
BRANCH  23  25
ATOM     25  C   UNL     1       0.360  10.525  19.334  0.00  0.00    +0.000 C 
BRANCH  25  26
ATOM     26  C   UNL     1      -0.073  10.510  20.776  0.00  0.00    +0.000 A 
ATOM     27  C   UNL     1       0.182   9.403  21.589  0.00  0.00    +0.000 A 
ATOM     28  C   UNL     1      -0.207   9.443  22.918  0.00  0.00    +0.000 A 
ATOM     29  N   UNL     1      -0.820  10.501  23.489  0.00  0.00    +0.000 NA
ATOM     30  C   UNL     1      -1.055  11.565  22.692  0.00  0.00    +0.000 A 
ATOM     31  C   UNL     1      -0.710  11.619  21.351  0.00  0.00    +0.000 A 
ENDBRANCH  25  26
ENDBRANCH  23  25
ENDBRANCH  18  21
ENDBRANCH   1  17
TORSDOF 7
ENDMDL
MODEL 9
REMARK VINA RESULT:      -8.0      1.701      1.855
REMARK  Name = 
REMARK  8 active torsions:
REMARK  status: ('A' for Active; 'I' for Inactive)
REMARK    1  A    between atoms: C_1  and  C_2
REMARK    2  A    between atoms: C_5  and  S_6
REMARK    3  A    between atoms: S_6  and  N_9
REMARK    4  A    between atoms: C_13  and  C_14
REMARK    5  A    between atoms: C_14  and  N_15
REMARK    6  A    between atoms: C_16  and  C_18
REMARK    7  A    between atoms: N_20  and  C_21
REMARK    8  A    between atoms: C_21  and  C_22
REMARK                            x       y       z     vdW  Elec       q    Type
REMARK                         _______ _______ _______ _____ _____    ______ ____
ROOT
ATOM      1  C   UNL     1       2.954   6.108  19.787  0.00  0.00    +0.000 C 
ENDROOT
BRANCH   1   6
ATOM      2  N   UNL     1       2.861   3.729  19.163  0.00  0.00    +0.000 NA
ATOM      3  C   UNL     1       1.537   3.256  18.836  0.00  0.00    +0.000 C 
ATOM      4  C   UNL     1       0.717   3.622  20.058  0.00  0.00    +0.000 C 
ATOM      5  O   UNL     1       1.520   4.458  20.897  0.00  0.00    +0.000 OA
ATOM      6  C   UNL     1       2.803   4.645  20.286  0.00  0.00    +0.000 C 
BRANCH   2   7
ATOM      7  S   UNL     1       4.269   3.019  18.673  0.00  0.00    +0.000 S 
ATOM      8  O   UNL     1       3.984   2.283  17.460  0.00  0.00    +0.000 OA
ATOM      9  O   UNL     1       4.838   2.357  19.825  0.00  0.00    +0.000 OA
BRANCH   7  14
ATOM     10  C   UNL     1       7.675   7.913  17.451  0.00  0.00    +0.000 C 
ATOM     11  C   UNL     1       6.877   6.668  17.711  0.00  0.00    +0.000 A 
ATOM     12  C   UNL     1       5.848   6.277  16.844  0.00  0.00    +0.000 A 
ATOM     13  C   UNL     1       5.091   5.132  17.109  0.00  0.00    +0.000 A 
ATOM     14  C   UNL     1       5.368   4.356  18.239  0.00  0.00    +0.000 A 
ATOM     15  C   UNL     1       6.381   4.745  19.122  0.00  0.00    +0.000 A 
ATOM     16  C   UNL     1       7.133   5.895  18.852  0.00  0.00    +0.000 A 
ENDBRANCH   7  14
ENDBRANCH   2   7
ENDBRANCH   1   6
BRANCH   1  17
ATOM     17  N   UNL     1       2.037   7.056  20.420  0.00  0.00    +0.000 N 
ATOM     18  C   UNL     1       1.639   8.226  19.817  0.00  0.00    +0.000 C 
ATOM     19  O   UNL     1       1.912   8.588  18.681  0.00  0.00    +0.000 OA
ATOM     20  H   UNL     1       1.795   6.933  21.400  0.00  0.00    +0.000 HD
BRANCH  18  21
ATOM     21  C   UNL     1       0.770   9.135  20.721  0.00  0.00    +0.000 C 
ATOM     22  O   UNL     1       0.138   8.652  21.647  0.00  0.00    +0.000 OA
ATOM     23  N   UNL     1       0.813  10.463  20.369  0.00  0.00    +0.000 N 
ATOM     24  H   UNL     1       1.422  10.713  19.594  0.00  0.00    +0.000 HD
BRANCH  23  25
ATOM     25  C   UNL     1       0.089  11.490  21.076  0.00  0.00    +0.000 C 
BRANCH  25  26
ATOM     26  C   UNL     1      -1.240  11.775  20.428  0.00  0.00    +0.000 A 
ATOM     27  C   UNL     1      -1.522  11.315  19.139  0.00  0.00    +0.000 A 
ATOM     28  C   UNL     1      -2.769  11.574  18.592  0.00  0.00    +0.000 A 
ATOM     29  N   UNL     1      -3.746  12.245  19.237  0.00  0.00    +0.000 NA
ATOM     30  C   UNL     1      -3.460  12.677  20.484  0.00  0.00    +0.000 A 
ATOM     31  C   UNL     1      -2.243  12.474  21.113  0.00  0.00    +0.000 A 
ENDBRANCH  25  26
ENDBRANCH  23  25
ENDBRANCH  18  21
ENDBRANCH   1  17
TORSDOF 7
ENDMDL
