MODEL 1
REMARK VINA RESULT:      -7.3      0.000      0.000
REMARK  Name = 
REMARK  4 active torsions:
REMARK  status: ('A' for Active; 'I' for Inactive)
REMARK    1  A    between atoms: C_1  and  C_2
REMARK    2  A    between atoms: C_2  and  C_3
REMARK    3  A    between atoms: N_5  and  C_6
REMARK    4  A    between atoms: C_11  and  C_12
REMARK                            x       y       z     vdW  Elec       q    Type
REMARK                         _______ _______ _______ _____ _____    ______ ____
ROOT
ATOM      1  C   UNL     1       0.309  10.785  20.474  0.00  0.00    +0.000 C 
ATOM      2  C   UNL     1      -0.350  10.083  21.668  0.00  0.00    +0.000 C 
ATOM      3  C   UNL     1       0.684   9.245  22.404  0.00  0.00    +0.000 C 
ATOM      4  C   UNL     1       1.202   8.140  21.485  0.00  0.00    +0.000 C 
ATOM      5  C   UNL     1       1.485   8.536  20.047  0.00  0.00    +0.000 A 
ATOM      6  C   UNL     1       2.148   7.659  19.145  0.00  0.00    +0.000 A 
ATOM      7  C   UNL     1       2.309   8.141  17.836  0.00  0.00    +0.000 A 
ATOM      8  N   UNL     1       1.897   9.349  17.378  0.00  0.00    +0.000 NA
ATOM      9  C   UNL     1       1.272  10.143  18.260  0.00  0.00    +0.000 A 
ATOM     10  C   UNL     1       1.020   9.793  19.585  0.00  0.00    +0.000 A 
ENDROOT
BRANCH   6  11
ATOM     11  C   UNL     1       2.716   6.331  19.521  0.00  0.00    +0.000 A 
ATOM     12  C   UNL     1       4.023   5.946  19.177  0.00  0.00    +0.000 A 
ATOM     13  C   UNL     1       4.482   4.635  19.350  0.00  0.00    +0.000 A 
ATOM     14  C   UNL     1       3.675   3.689  19.973  0.00  0.00    +0.000 A 
ATOM     15 CL   UNL     1       4.283   2.081  20.119  0.00  0.00    +0.000 Cl
ATOM     16  C   UNL     1       2.421   4.072  20.449  0.00  0.00    +0.000 A 
ATOM     17 CL   UNL     1       1.401   2.990  21.329  0.00  0.00    +0.000 Cl
ATOM     18  C   UNL     1       1.944   5.372  20.207  0.00  0.00    +0.000 A 
ENDBRANCH   6  11
BRANCH   1  21
ATOM     19  C   UNL     1       1.201  13.094  20.442  0.00  0.00    +0.000 C 
ATOM     20  O   UNL     1       0.412  13.462  19.587  0.00  0.00    +0.000 OA
ATOM     21  N   UNL     1       1.252  11.802  20.915  0.00  0.00    +0.000 N 
ATOM     22  H   UNL     1       1.856  11.590  21.700  0.00  0.00    +0.000 HD
BRANCH  19  24
ATOM     23  C   UNL     1       3.380  14.329  20.207  0.00  0.00    +0.000 C 
ATOM     24  C   UNL     1       2.205  14.008  21.112  0.00  0.00    +0.000 C 
ENDBRANCH  19  24
ENDBRANCH   1  21
TORSDOF 3
ENDMDL
MODEL 2
REMARK VINA RESULT:      -7.1      4.184      5.825
REMARK  Name = 
REMARK  4 active torsions:
REMARK  status: ('A' for Active; 'I' for Inactive)
REMARK    1  A    between atoms: C_1  and  C_2
REMARK    2  A    between atoms: C_2  and  C_3
REMARK    3  A    between atoms: N_5  and  C_6
REMARK    4  A    between atoms: C_11  and  C_12
REMARK                            x       y       z     vdW  Elec       q    Type
REMARK                         _______ _______ _______ _____ _____    ______ ____
ROOT
ATOM      1  C   UNL     1      -3.731  11.635  17.662  0.00  0.00    +0.000 C 
ATOM      2  C   UNL     1      -3.464  11.133  16.237  0.00  0.00    +0.000 C 
ATOM      3  C   UNL     1      -2.911   9.717  16.288  0.00  0.00    +0.000 C 
ATOM      4  C   UNL     1      -1.564   9.714  17.007  0.00  0.00    +0.000 C 
ATOM      5  C   UNL     1      -1.462  10.574  18.255  0.00  0.00    +0.000 A 
ATOM      6  C   UNL     1      -0.335  10.511  19.118  0.00  0.00    +0.000 A 
ATOM      7  C   UNL     1      -0.357  11.390  20.214  0.00  0.00    +0.000 A 
ATOM      8  N   UNL     1      -1.349  12.267  20.508  0.00  0.00    +0.000 NA
ATOM      9  C   UNL     1      -2.392  12.297  19.664  0.00  0.00    +0.000 A 
ATOM     10  C   UNL     1      -2.499  11.503  18.525  0.00  0.00    +0.000 A 
ENDROOT
BRANCH   6  11
ATOM     11  C   UNL     1       0.798   9.552  18.963  0.00  0.00    +0.000 A 
ATOM     12  C   UNL     1       1.727   9.647  17.913  0.00  0.00    +0.000 A 
ATOM     13  C   UNL     1       2.660   8.637  17.652  0.00  0.00    +0.000 A 
ATOM     14  C   UNL     1       2.761   7.542  18.505  0.00  0.00    +0.000 A 
ATOM     15 CL   UNL     1       3.904   6.312  18.105  0.00  0.00    +0.000 Cl
ATOM     16  C   UNL     1       1.945   7.481  19.634  0.00  0.00    +0.000 A 
ATOM     17 CL   UNL     1       2.080   6.214  20.800  0.00  0.00    +0.000 Cl
ATOM     18  C   UNL     1       0.965   8.466  19.846  0.00  0.00    +0.000 A 
ENDBRANCH   6  11
BRANCH   1  21
ATOM     19  C   UNL     1      -6.075  11.481  18.442  0.00  0.00    +0.000 C 
ATOM     20  O   UNL     1      -6.324  12.638  18.144  0.00  0.00    +0.000 OA
ATOM     21  N   UNL     1      -4.833  10.910  18.278  0.00  0.00    +0.000 N 
ATOM     22  H   UNL     1      -4.723   9.918  18.445  0.00  0.00    +0.000 HD
BRANCH  19  24
ATOM     23  C   UNL     1      -7.383  10.778  20.474  0.00  0.00    +0.000 C 
ATOM     24  C   UNL     1      -7.098  10.517  19.006  0.00  0.00    +0.000 C 
ENDBRANCH  19  24
ENDBRANCH   1  21
TORSDOF 3
ENDMDL
MODEL 3
REMARK VINA RESULT:      -6.8      4.710      7.956
REMARK  Name = 
REMARK  4 active torsions:
REMARK  status: ('A' for Active; 'I' for Inactive)
REMARK    1  A    between atoms: C_1  and  C_2
REMARK    2  A    between atoms: C_2  and  C_3
REMARK    3  A    between atoms: N_5  and  C_6
REMARK    4  A    between atoms: C_11  and  C_12
REMARK                            x       y       z     vdW  Elec       q    Type
REMARK                         _______ _______ _______ _____ _____    ______ ____
ROOT
ATOM      1  C   UNL     1       5.059   3.894  16.649  0.00  0.00    +0.000 C 
ATOM      2  C   UNL     1       4.040   3.041  17.415  0.00  0.00    +0.000 C 
ATOM      3  C   UNL     1       2.642   3.605  17.211  0.00  0.00    +0.000 C 
ATOM      4  C   UNL     1       2.561   5.010  17.804  0.00  0.00    +0.000 C 
ATOM      5  C   UNL     1       3.751   5.919  17.551  0.00  0.00    +0.000 A 
ATOM      6  C   UNL     1       3.719   7.302  17.879  0.00  0.00    +0.000 A 
ATOM      7  C   UNL     1       4.903   8.015  17.626  0.00  0.00    +0.000 A 
ATOM      8  N   UNL     1       6.043   7.500  17.100  0.00  0.00    +0.000 NA
ATOM      9  C   UNL     1       6.031   6.190  16.809  0.00  0.00    +0.000 A 
ATOM     10  C   UNL     1       4.939   5.352  17.026  0.00  0.00    +0.000 A 
ENDROOT
BRANCH   6  11
ATOM     11  C   UNL     1       2.520   8.022  18.398  0.00  0.00    +0.000 A 
ATOM     12  C   UNL     1       1.726   8.849  17.586  0.00  0.00    +0.000 A 
ATOM     13  C   UNL     1       0.730   9.677  18.116  0.00  0.00    +0.000 A 
ATOM     14  C   UNL     1       0.425   9.623  19.472  0.00  0.00    +0.000 A 
ATOM     15 CL   UNL     1      -0.785  10.698  20.069  0.00  0.00    +0.000 Cl
ATOM     16  C   UNL     1       1.101   8.715  20.285  0.00  0.00    +0.000 A 
ATOM     17 CL   UNL     1       0.711   8.507  21.956  0.00  0.00    +0.000 Cl
ATOM     18  C   UNL     1       2.147   7.939  19.755  0.00  0.00    +0.000 A 
ENDBRANCH   6  11
BRANCH   1  21
ATOM     19  C   UNL     1       5.957   3.834  14.343  0.00  0.00    +0.000 C 
ATOM     20  O   UNL     1       7.094   4.087  14.705  0.00  0.00    +0.000 OA
ATOM     21  N   UNL     1       4.890   3.752  15.210  0.00  0.00    +0.000 N 
ATOM     22  H   UNL     1       3.997   3.432  14.860  0.00  0.00    +0.000 HD
BRANCH  19  24
ATOM     23  C   UNL     1       6.773   3.565  11.978  0.00  0.00    +0.000 C 
ATOM     24  C   UNL     1       5.572   3.551  12.906  0.00  0.00    +0.000 C 
ENDBRANCH  19  24
ENDBRANCH   1  21
TORSDOF 3
ENDMDL
MODEL 4
REMARK VINA RESULT:      -6.7      4.342      7.354
REMARK  Name = 
REMARK  4 active torsions:
REMARK  status: ('A' for Active; 'I' for Inactive)
REMARK    1  A    between atoms: C_1  and  C_2
REMARK    2  A    between atoms: C_2  and  C_3
REMARK    3  A    between atoms: N_5  and  C_6
REMARK    4  A    between atoms: C_11  and  C_12
REMARK                            x       y       z     vdW  Elec       q    Type
REMARK                         _______ _______ _______ _____ _____    ______ ____
ROOT
ATOM      1  C   UNL     1       4.515   4.678  17.723  0.00  0.00    +0.000 C 
ATOM      2  C   UNL     1       4.410   5.603  16.503  0.00  0.00    +0.000 C 
ATOM      3  C   UNL     1       4.529   7.053  16.948  0.00  0.00    +0.000 C 
ATOM      4  C   UNL     1       3.360   7.410  17.863  0.00  0.00    +0.000 C 
ATOM      5  C   UNL     1       2.968   6.368  18.896  0.00  0.00    +0.000 A 
ATOM      6  C   UNL     1       2.032   6.652  19.927  0.00  0.00    +0.000 A 
ATOM      7  C   UNL     1       1.734   5.583  20.789  0.00  0.00    +0.000 A 
ATOM      8  N   UNL     1       2.263   4.336  20.720  0.00  0.00    +0.000 NA
ATOM      9  C   UNL     1       3.139   4.111  19.729  0.00  0.00    +0.000 A 
ATOM     10  C   UNL     1       3.513   5.065  18.785  0.00  0.00    +0.000 A 
ENDROOT
BRANCH   6  11
ATOM     11  C   UNL     1       1.420   7.991  20.171  0.00  0.00    +0.000 A 
ATOM     12  C   UNL     1       1.389   8.995  19.188  0.00  0.00    +0.000 A 
ATOM     13  C   UNL     1       1.002  10.308  19.479  0.00  0.00    +0.000 A 
ATOM     14  C   UNL     1       0.531  10.633  20.746  0.00  0.00    +0.000 A 
ATOM     15 CL   UNL     1       0.108  12.278  21.052  0.00  0.00    +0.000 Cl
ATOM     16  C   UNL     1       0.421   9.631  21.709  0.00  0.00    +0.000 A 
ATOM     17 CL   UNL     1      -0.255   9.925  23.272  0.00  0.00    +0.000 Cl
ATOM     18  C   UNL     1       0.878   8.332  21.426  0.00  0.00    +0.000 A 
ENDBRANCH   6  11
BRANCH   1  21
ATOM     19  C   UNL     1       6.975   4.495  17.514  0.00  0.00    +0.000 C 
ATOM     20  O   UNL     1       6.923   4.219  16.327  0.00  0.00    +0.000 OA
ATOM     21  N   UNL     1       5.855   4.704  18.289  0.00  0.00    +0.000 N 
ATOM     22  H   UNL     1       5.971   5.035  19.238  0.00  0.00    +0.000 HD
BRANCH  19  24
ATOM     23  C   UNL     1       8.147   5.724  19.370  0.00  0.00    +0.000 C 
ATOM     24  C   UNL     1       8.266   4.671  18.285  0.00  0.00    +0.000 C 
ENDBRANCH  19  24
ENDBRANCH   1  21
TORSDOF 3
ENDMDL
MODEL 5
REMARK VINA RESULT:      -6.7      2.868      4.381
REMARK  Name = 
REMARK  4 active torsions:
REMARK  status: ('A' for Active; 'I' for Inactive)
REMARK    1  A    between atoms: C_1  and  C_2
REMARK    2  A    between atoms: C_2  and  C_3
REMARK    3  A    between atoms: N_5  and  C_6
REMARK    4  A    between atoms: C_11  and  C_12
REMARK                            x       y       z     vdW  Elec       q    Type
REMARK                         _______ _______ _______ _____ _____    ______ ____
ROOT
ATOM      1  C   UNL     1      -1.567  12.409  20.278  0.00  0.00    +0.000 C 
ATOM      2  C   UNL     1      -1.129  12.636  18.826  0.00  0.00    +0.000 C 
ATOM      3  C   UNL     1      -1.147  11.315  18.073  0.00  0.00    +0.000 C 
ATOM      4  C   UNL     1      -0.128  10.357  18.686  0.00  0.00    +0.000 C 
ATOM      5  C   UNL     1      -0.062  10.322  20.203  0.00  0.00    +0.000 A 
ATOM      6  C   UNL     1       0.700   9.343  20.897  0.00  0.00    +0.000 A 
ATOM      7  C   UNL     1       0.702   9.454  22.297  0.00  0.00    +0.000 A 
ATOM      8  N   UNL     1       0.045  10.395  23.020  0.00  0.00    +0.000 NA
ATOM      9  C   UNL     1      -0.658  11.302  22.326  0.00  0.00    +0.000 A 
ATOM     10  C   UNL     1      -0.735  11.333  20.935  0.00  0.00    +0.000 A 
ENDROOT
BRANCH   6  11
ATOM     11  C   UNL     1       1.418   8.210  20.244  0.00  0.00    +0.000 A 
ATOM     12  C   UNL     1       2.032   8.332  18.986  0.00  0.00    +0.000 A 
ATOM     13  C   UNL     1       2.525   7.223  18.288  0.00  0.00    +0.000 A 
ATOM     14  C   UNL     1       2.512   5.964  18.879  0.00  0.00    +0.000 A 
ATOM     15 CL   UNL     1       3.097   4.632  17.951  0.00  0.00    +0.000 Cl
ATOM     16  C   UNL     1       2.033   5.828  20.181  0.00  0.00    +0.000 A 
ATOM     17 CL   UNL     1       2.081   4.323  21.028  0.00  0.00    +0.000 Cl
ATOM     18  C   UNL     1       1.477   6.936  20.845  0.00  0.00    +0.000 A 
ENDBRANCH   6  11
BRANCH   1  21
ATOM     19  C   UNL     1      -3.951  12.979  20.622  0.00  0.00    +0.000 C 
ATOM     20  O   UNL     1      -3.708  14.148  20.871  0.00  0.00    +0.000 OA
ATOM     21  N   UNL     1      -2.974  12.046  20.354  0.00  0.00    +0.000 N 
ATOM     22  H   UNL     1      -3.250  11.121  20.050  0.00  0.00    +0.000 HD
BRANCH  19  24
ATOM     23  C   UNL     1      -6.157  12.702  21.800  0.00  0.00    +0.000 C 
ATOM     24  C   UNL     1      -5.350  12.406  20.548  0.00  0.00    +0.000 C 
ENDBRANCH  19  24
ENDBRANCH   1  21
TORSDOF 3
ENDMDL
MODEL 6
REMARK VINA RESULT:      -6.6      4.559      7.395
REMARK  Name = 
REMARK  4 active torsions:
REMARK  status: ('A' for Active; 'I' for Inactive)
REMARK    1  A    between atoms: C_1  and  C_2
REMARK    2  A    between atoms: C_2  and  C_3
REMARK    3  A    between atoms: N_5  and  C_6
REMARK    4  A    between atoms: C_11  and  C_12
REMARK                            x       y       z     vdW  Elec       q    Type
REMARK                         _______ _______ _______ _____ _____    ______ ____
ROOT
ATOM      1  C   UNL     1       4.258   5.033  17.689  0.00  0.00    +0.000 C 
ATOM      2  C   UNL     1       4.146   6.063  16.558  0.00  0.00    +0.000 C 
ATOM      3  C   UNL     1       4.324   7.465  17.120  0.00  0.00    +0.000 C 
ATOM      4  C   UNL     1       3.194   7.774  18.101  0.00  0.00    +0.000 C 
ATOM      5  C   UNL     1       2.802   6.659  19.053  0.00  0.00    +0.000 A 
ATOM      6  C   UNL     1       1.906   6.878  20.135  0.00  0.00    +0.000 A 
ATOM      7  C   UNL     1       1.601   5.748  20.911  0.00  0.00    +0.000 A 
ATOM      8  N   UNL     1       2.088   4.497  20.718  0.00  0.00    +0.000 NA
ATOM      9  C   UNL     1       2.927   4.334  19.684  0.00  0.00    +0.000 A 
ATOM     10  C   UNL     1       3.302   5.355  18.813  0.00  0.00    +0.000 A 
ENDROOT
BRANCH   6  11
ATOM     11  C   UNL     1       1.344   8.209  20.512  0.00  0.00    +0.000 A 
ATOM     12  C   UNL     1       1.231   8.628  21.848  0.00  0.00    +0.000 A 
ATOM     13  C   UNL     1       0.523   9.780  22.209  0.00  0.00    +0.000 A 
ATOM     14  C   UNL     1      -0.008  10.610  21.226  0.00  0.00    +0.000 A 
ATOM     15 CL   UNL     1      -0.904  11.993  21.738  0.00  0.00    +0.000 Cl
ATOM     16  C   UNL     1       0.202  10.296  19.884  0.00  0.00    +0.000 A 
ATOM     17 CL   UNL     1      -0.328  11.327  18.604  0.00  0.00    +0.000 Cl
ATOM     18  C   UNL     1       0.854   9.100  19.536  0.00  0.00    +0.000 A 
ENDBRANCH   6  11
BRANCH   1  21
ATOM     19  C   UNL     1       6.668   4.522  17.445  0.00  0.00    +0.000 C 
ATOM     20  O   UNL     1       6.534   4.094  16.311  0.00  0.00    +0.000 OA
ATOM     21  N   UNL     1       5.615   4.971  18.212  0.00  0.00    +0.000 N 
ATOM     22  H   UNL     1       5.810   5.413  19.101  0.00  0.00    +0.000 HD
BRANCH  19  24
ATOM     23  C   UNL     1       8.011   5.759  19.177  0.00  0.00    +0.000 C 
ATOM     24  C   UNL     1       8.003   4.642  18.150  0.00  0.00    +0.000 C 
ENDBRANCH  19  24
ENDBRANCH   1  21
TORSDOF 3
ENDMDL
MODEL 7
REMARK VINA RESULT:      -6.6      1.920      3.378
REMARK  Name = 
REMARK  4 active torsions:
REMARK  status: ('A' for Active; 'I' for Inactive)
REMARK    1  A    between atoms: C_1  and  C_2
REMARK    2  A    between atoms: C_2  and  C_3
REMARK    3  A    between atoms: N_5  and  C_6
REMARK    4  A    between atoms: C_11  and  C_12
REMARK                            x       y       z     vdW  Elec       q    Type
REMARK                         _______ _______ _______ _____ _____    ______ ____
ROOT
ATOM      1  C   UNL     1       0.594  10.882  18.997  0.00  0.00    +0.000 C 
ATOM      2  C   UNL     1       1.873  10.957  18.155  0.00  0.00    +0.000 C 
ATOM      3  C   UNL     1       2.089   9.637  17.431  0.00  0.00    +0.000 C 
ATOM      4  C   UNL     1       2.308   8.520  18.450  0.00  0.00    +0.000 C 
ATOM      5  C   UNL     1       1.407   8.535  19.671  0.00  0.00    +0.000 A 
ATOM      6  C   UNL     1       1.376   7.452  20.592  0.00  0.00    +0.000 A 
ATOM      7  C   UNL     1       0.525   7.617  21.697  0.00  0.00    +0.000 A 
ATOM      8  N   UNL     1      -0.255   8.699  21.944  0.00  0.00    +0.000 NA
ATOM      9  C   UNL     1      -0.193   9.699  21.053  0.00  0.00    +0.000 A 
ATOM     10  C   UNL     1       0.622   9.688  19.923  0.00  0.00    +0.000 A 
ENDROOT
BRANCH   6  11
ATOM     11  C   UNL     1       2.124   6.172  20.419  0.00  0.00    +0.000 A 
ATOM     12  C   UNL     1       3.256   6.067  19.594  0.00  0.00    +0.000 A 
ATOM     13  C   UNL     1       3.831   4.832  19.274  0.00  0.00    +0.000 A 
ATOM     14  C   UNL     1       3.350   3.665  19.859  0.00  0.00    +0.000 A 
ATOM     15 CL   UNL     1       4.076   2.170  19.392  0.00  0.00    +0.000 Cl
ATOM     16  C   UNL     1       2.313   3.747  20.787  0.00  0.00    +0.000 A 
ATOM     17 CL   UNL     1       1.729   2.362  21.640  0.00  0.00    +0.000 Cl
ATOM     18  C   UNL     1       1.699   4.984  21.047  0.00  0.00    +0.000 A 
ENDBRANCH   6  11
BRANCH   1  21
ATOM     19  C   UNL     1      -1.662  11.656  18.335  0.00  0.00    +0.000 C 
ATOM     20  O   UNL     1      -1.724  12.472  19.239  0.00  0.00    +0.000 OA
ATOM     21  N   UNL     1      -0.590  10.811  18.153  0.00  0.00    +0.000 N 
ATOM     22  H   UNL     1      -0.555  10.235  17.322  0.00  0.00    +0.000 HD
BRANCH  19  24
ATOM     23  C   UNL     1      -2.408  10.362  16.310  0.00  0.00    +0.000 C 
ATOM     24  C   UNL     1      -2.736  11.480  17.282  0.00  0.00    +0.000 C 
ENDBRANCH  19  24
ENDBRANCH   1  21
TORSDOF 3
ENDMDL
MODEL 8
REMARK VINA RESULT:      -6.5      4.676      6.588
REMARK  Name = 
REMARK  4 active torsions:
REMARK  status: ('A' for Active; 'I' for Inactive)
REMARK    1  A    between atoms: C_1  and  C_2
REMARK    2  A    between atoms: C_2  and  C_3
REMARK    3  A    between atoms: N_5  and  C_6
REMARK    4  A    between atoms: C_11  and  C_12
REMARK                            x       y       z     vdW  Elec       q    Type
REMARK                         _______ _______ _______ _____ _____    ______ ____
ROOT
ATOM      1  C   UNL     1      -4.882  12.232  18.823  0.00  0.00    +0.000 C 
ATOM      2  C   UNL     1      -4.766  11.781  17.361  0.00  0.00    +0.000 C 
ATOM      3  C   UNL     1      -4.094  10.418  17.297  0.00  0.00    +0.000 C 
ATOM      4  C   UNL     1      -2.667  10.520  17.833  0.00  0.00    +0.000 C 
ATOM      5  C   UNL     1      -2.474  11.362  19.081  0.00  0.00    +0.000 A 
ATOM      6  C   UNL     1      -1.240  11.382  19.787  0.00  0.00    +0.000 A 
ATOM      7  C   UNL     1      -1.190  12.235  20.902  0.00  0.00    +0.000 A 
ATOM      8  N   UNL     1      -2.204  13.016  21.350  0.00  0.00    +0.000 NA
ATOM      9  C   UNL     1      -3.349  12.971  20.652  0.00  0.00    +0.000 A 
ATOM     10  C   UNL     1      -3.539  12.192  19.513  0.00  0.00    +0.000 A 
ENDROOT
BRANCH   6  11
ATOM     11  C   UNL     1      -0.062  10.528  19.456  0.00  0.00    +0.000 A 
ATOM     12  C   UNL     1       0.773  10.789  18.355  0.00  0.00    +0.000 A 
ATOM     13  C   UNL     1       1.748   9.880  17.929  0.00  0.00    +0.000 A 
ATOM     14  C   UNL     1       1.989   8.722  18.660  0.00  0.00    +0.000 A 
ATOM     15 CL   UNL     1       3.177   7.622  18.059  0.00  0.00    +0.000 Cl
ATOM     16  C   UNL     1       1.273   8.495  19.834  0.00  0.00    +0.000 A 
ATOM     17 CL   UNL     1       1.585   7.139  20.857  0.00  0.00    +0.000 Cl
ATOM     18  C   UNL     1       0.248   9.380  20.214  0.00  0.00    +0.000 A 
ENDBRANCH   6  11
BRANCH   1  21
ATOM     19  C   UNL     1      -6.845  11.950  20.305  0.00  0.00    +0.000 C 
ATOM     20  O   UNL     1      -6.992  13.152  20.455  0.00  0.00    +0.000 OA
ATOM     21  N   UNL     1      -5.827  11.402  19.557  0.00  0.00    +0.000 N 
ATOM     22  H   UNL     1      -5.827  10.405  19.385  0.00  0.00    +0.000 HD
BRANCH  19  24
ATOM     23  C   UNL     1      -7.476   9.515  20.367  0.00  0.00    +0.000 C 
ATOM     24  C   UNL     1      -7.770  10.907  20.895  0.00  0.00    +0.000 C 
ENDBRANCH  19  24
ENDBRANCH   1  21
TORSDOF 3
ENDMDL
MODEL 9
REMARK VINA RESULT:      -6.5      2.694      4.072
REMARK  Name = 
REMARK  4 active torsions:
REMARK  status: ('A' for Active; 'I' for Inactive)
REMARK    1  A    between atoms: C_1  and  C_2
REMARK    2  A    between atoms: C_2  and  C_3
REMARK    3  A    between atoms: N_5  and  C_6
REMARK    4  A    between atoms: C_11  and  C_12
REMARK                            x       y       z     vdW  Elec       q    Type
REMARK                         _______ _______ _______ _____ _____    ______ ____
ROOT
ATOM      1  C   UNL     1       0.694  10.214  19.851  0.00  0.00    +0.000 C 
ATOM      2  C   UNL     1       1.605  11.048  18.940  0.00  0.00    +0.000 C 
ATOM      3  C   UNL     1       1.777  10.343  17.604  0.00  0.00    +0.000 C 
ATOM      4  C   UNL     1       2.483   9.005  17.813  0.00  0.00    +0.000 C 
ATOM      5  C   UNL     1       2.034   8.184  19.009  0.00  0.00    +0.000 A 
ATOM      6  C   UNL     1       2.470   6.845  19.205  0.00  0.00    +0.000 A 
ATOM      7  C   UNL     1       2.006   6.219  20.374  0.00  0.00    +0.000 A 
ATOM      8  N   UNL     1       1.190   6.776  21.303  0.00  0.00    +0.000 NA
ATOM      9  C   UNL     1       0.806   8.043  21.081  0.00  0.00    +0.000 A 
ATOM     10  C   UNL     1       1.204   8.798  19.980  0.00  0.00    +0.000 A 
ENDROOT
BRANCH   6  11
ATOM     11  C   UNL     1       3.310   6.079  18.239  0.00  0.00    +0.000 A 
ATOM     12  C   UNL     1       2.870   4.887  17.637  0.00  0.00    +0.000 A 
ATOM     13  C   UNL     1       3.729   4.068  16.895  0.00  0.00    +0.000 A 
ATOM     14  C   UNL     1       5.035   4.473  16.643  0.00  0.00    +0.000 A 
ATOM     15 CL   UNL     1       6.055   3.399  15.756  0.00  0.00    +0.000 Cl
ATOM     16  C   UNL     1       5.466   5.714  17.111  0.00  0.00    +0.000 A 
ATOM     17 CL   UNL     1       7.036   6.340  16.751  0.00  0.00    +0.000 Cl
ATOM     18  C   UNL     1       4.617   6.495  17.914  0.00  0.00    +0.000 A 
ENDBRANCH   6  11
BRANCH   1  21
ATOM     19  C   UNL     1      -1.460  11.322  19.340  0.00  0.00    +0.000 C 
ATOM     20  O   UNL     1      -1.098  12.393  19.798  0.00  0.00    +0.000 OA
ATOM     21  N   UNL     1      -0.673  10.192  19.350  0.00  0.00    +0.000 N 
ATOM     22  H   UNL     1      -0.992   9.367  18.859  0.00  0.00    +0.000 HD
BRANCH  19  24
ATOM     23  C   UNL     1      -2.763   9.974  17.662  0.00  0.00    +0.000 C 
ATOM     24  C   UNL     1      -2.805  11.098  18.681  0.00  0.00    +0.000 C 
ENDBRANCH  19  24
ENDBRANCH   1  21
TORSDOF 3
ENDMDL
