MODEL 1
REMARK VINA RESULT:      -8.0      0.000      0.000
REMARK  Name = 
REMARK  2 active torsions:
REMARK  status: ('A' for Active; 'I' for Inactive)
REMARK    1  A    between atoms: C_4  and  N_5
REMARK    2  A    between atoms: N_22  and  C_23
REMARK                            x       y       z     vdW  Elec       q    Type
REMARK                         _______ _______ _______ _____ _____    ______ ____
ROOT
ATOM      1  N   UNL     1       1.013  10.498  21.066  0.00  0.00    +0.000 NA
ATOM      2  C   UNL     1       1.671   9.282  21.629  0.00  0.00    +0.000 C 
ATOM      3  C   UNL     1       1.515   7.991  20.790  0.00  0.00    +0.000 C 
ATOM      4  N   UNL     1       1.913   8.228  19.403  0.00  0.00    +0.000 N 
ATOM      5  C   UNL     1       2.550   7.280  18.662  0.00  0.00    +0.000 A 
ATOM      6  N   UNL     1       3.339   7.570  17.650  0.00  0.00    +0.000 NA
ATOM      7  C   UNL     1       3.973   6.434  17.179  0.00  0.00    +0.000 A 
ATOM      8  C   UNL     1       4.975   6.390  16.188  0.00  0.00    +0.000 A 
ATOM      9  C   UNL     1       5.535   5.163  15.817  0.00  0.00    +0.000 A 
ATOM     10  C   UNL     1       5.098   3.981  16.408  0.00  0.00    +0.000 A 
ATOM     11  C   UNL     1       4.105   3.998  17.391  0.00  0.00    +0.000 A 
ATOM     12  C   UNL     1       3.569   5.238  17.771  0.00  0.00    +0.000 A 
ATOM     13  S   UNL     1       2.397   5.584  18.971  0.00  0.00    +0.000 S 
ATOM     14  C   UNL     1       1.440   9.450  18.757  0.00  0.00    +0.000 C 
ATOM     15  C   UNL     1       1.576  10.667  19.699  0.00  0.00    +0.000 C 
ENDROOT
BRANCH   1  19
ATOM     16  O   UNL     1      -2.515  13.178  20.160  0.00  0.00    +0.000 OA
ATOM     17  C   UNL     1      -1.892  12.312  20.763  0.00  0.00    +0.000 C 
ATOM     18  C   UNL     1      -1.192  11.212  20.032  0.00  0.00    +0.000 C 
ATOM     19  C   UNL     1      -0.471  10.399  21.099  0.00  0.00    +0.000 C 
ATOM     20  C   UNL     1      -1.032  10.997  22.392  0.00  0.00    +0.000 C 
ATOM     21  O   UNL     1      -0.939  10.433  23.480  0.00  0.00    +0.000 OA
ATOM     22  N   UNL     1      -1.707  12.161  22.114  0.00  0.00    +0.000 N 
BRANCH  22  23
ATOM     23  C   UNL     1      -2.211  13.051  23.111  0.00  0.00    +0.000 A 
ATOM     24  C   UNL     1      -3.547  13.000  23.542  0.00  0.00    +0.000 A 
ATOM     25  C   UNL     1      -4.047  13.901  24.492  0.00  0.00    +0.000 A 
ATOM     26  C   UNL     1      -3.218  14.884  25.019  0.00  0.00    +0.000 A 
ATOM     27  C   UNL     1      -1.897  14.946  24.602  0.00  0.00    +0.000 A 
ATOM     28  F   UNL     1      -1.099  15.904  25.092  0.00  0.00    +0.000 F 
ATOM     29  C   UNL     1      -1.389  14.044  23.668  0.00  0.00    +0.000 A 
ENDBRANCH  22  23
ENDBRANCH   1  19
TORSDOF 2
ENDMDL
MODEL 2
REMARK VINA RESULT:      -7.9      0.914      1.269
REMARK  Name = 
REMARK  2 active torsions:
REMARK  status: ('A' for Active; 'I' for Inactive)
REMARK    1  A    between atoms: C_4  and  N_5
REMARK    2  A    between atoms: N_22  and  C_23
REMARK                            x       y       z     vdW  Elec       q    Type
REMARK                         _______ _______ _______ _____ _____    ______ ____
ROOT
ATOM      1  N   UNL     1       0.950  10.481  21.104  0.00  0.00    +0.000 NA
ATOM      2  C   UNL     1       1.591   9.255  21.663  0.00  0.00    +0.000 C 
ATOM      3  C   UNL     1       1.449   7.976  20.802  0.00  0.00    +0.000 C 
ATOM      4  N   UNL     1       1.879   8.232  19.428  0.00  0.00    +0.000 N 
ATOM      5  C   UNL     1       2.528   7.293  18.687  0.00  0.00    +0.000 A 
ATOM      6  N   UNL     1       3.340   7.594  17.697  0.00  0.00    +0.000 NA
ATOM      7  C   UNL     1       3.981   6.462  17.224  0.00  0.00    +0.000 A 
ATOM      8  C   UNL     1       5.004   6.429  16.255  0.00  0.00    +0.000 A 
ATOM      9  C   UNL     1       5.569   5.205  15.879  0.00  0.00    +0.000 A 
ATOM     10  C   UNL     1       5.114   4.016  16.443  0.00  0.00    +0.000 A 
ATOM     11  C   UNL     1       4.100   4.023  17.403  0.00  0.00    +0.000 A 
ATOM     12  C   UNL     1       3.560   5.260  17.789  0.00  0.00    +0.000 A 
ATOM     13  S   UNL     1       2.363   5.593  18.969  0.00  0.00    +0.000 S 
ATOM     14  C   UNL     1       1.424   9.465  18.789  0.00  0.00    +0.000 C 
ATOM     15  C   UNL     1       1.543  10.668  19.752  0.00  0.00    +0.000 C 
ENDROOT
BRANCH   1  19
ATOM     16  O   UNL     1      -2.543  13.103  19.929  0.00  0.00    +0.000 OA
ATOM     17  C   UNL     1      -1.940  12.276  20.604  0.00  0.00    +0.000 C 
ATOM     18  C   UNL     1      -1.224  11.130  19.966  0.00  0.00    +0.000 C 
ATOM     19  C   UNL     1      -0.535  10.387  21.103  0.00  0.00    +0.000 C 
ATOM     20  C   UNL     1      -1.129  11.069  22.338  0.00  0.00    +0.000 C 
ATOM     21  O   UNL     1      -1.067  10.577  23.463  0.00  0.00    +0.000 OA
ATOM     22  N   UNL     1      -1.791  12.213  21.966  0.00  0.00    +0.000 N 
BRANCH  22  23
ATOM     23  C   UNL     1      -2.319  13.168  22.889  0.00  0.00    +0.000 A 
ATOM     24  C   UNL     1      -1.483  14.010  23.643  0.00  0.00    +0.000 A 
ATOM     25  C   UNL     1      -2.003  14.917  24.575  0.00  0.00    +0.000 A 
ATOM     26  C   UNL     1      -3.376  14.989  24.782  0.00  0.00    +0.000 A 
ATOM     27  C   UNL     1      -4.212  14.164  24.045  0.00  0.00    +0.000 A 
ATOM     28  F   UNL     1      -5.534  14.216  24.253  0.00  0.00    +0.000 F 
ATOM     29  C   UNL     1      -3.702  13.269  23.104  0.00  0.00    +0.000 A 
ENDBRANCH  22  23
ENDBRANCH   1  19
TORSDOF 2
ENDMDL
MODEL 3
REMARK VINA RESULT:      -7.6      3.798      4.973
REMARK  Name = 
REMARK  2 active torsions:
REMARK  status: ('A' for Active; 'I' for Inactive)
REMARK    1  A    between atoms: C_4  and  N_5
REMARK    2  A    between atoms: N_22  and  C_23
REMARK                            x       y       z     vdW  Elec       q    Type
REMARK                         _______ _______ _______ _____ _____    ______ ____
ROOT
ATOM      1  N   UNL     1       0.523  10.879  19.405  0.00  0.00    +0.000 NA
ATOM      2  C   UNL     1       0.970  10.032  18.260  0.00  0.00    +0.000 C 
ATOM      3  C   UNL     1       2.091   9.014  18.581  0.00  0.00    +0.000 C 
ATOM      4  N   UNL     1       1.731   8.204  19.745  0.00  0.00    +0.000 N 
ATOM      5  C   UNL     1       2.067   6.889  19.841  0.00  0.00    +0.000 A 
ATOM      6  N   UNL     1       1.389   6.026  20.566  0.00  0.00    +0.000 NA
ATOM      7  C   UNL     1       1.851   4.738  20.359  0.00  0.00    +0.000 A 
ATOM      8  C   UNL     1       1.282   3.556  20.876  0.00  0.00    +0.000 A 
ATOM      9  C   UNL     1       1.856   2.316  20.574  0.00  0.00    +0.000 A 
ATOM     10  C   UNL     1       2.997   2.242  19.780  0.00  0.00    +0.000 A 
ATOM     11  C   UNL     1       3.581   3.399  19.258  0.00  0.00    +0.000 A 
ATOM     12  C   UNL     1       2.980   4.634  19.548  0.00  0.00    +0.000 A 
ATOM     13  S   UNL     1       3.422   6.200  19.013  0.00  0.00    +0.000 S 
ATOM     14  C   UNL     1       1.163   8.889  20.904  0.00  0.00    +0.000 C 
ATOM     15  C   UNL     1       0.105   9.930  20.473  0.00  0.00    +0.000 C 
ENDROOT
BRANCH   1  19
ATOM     16  O   UNL     1       0.728  14.743  21.746  0.00  0.00    +0.000 OA
ATOM     17  C   UNL     1       1.036  13.951  20.863  0.00  0.00    +0.000 C 
ATOM     18  C   UNL     1       1.317  12.516  21.175  0.00  0.00    +0.000 C 
ATOM     19  C   UNL     1       1.573  11.843  19.833  0.00  0.00    +0.000 C 
ATOM     20  C   UNL     1       1.639  13.040  18.881  0.00  0.00    +0.000 C 
ATOM     21  O   UNL     1       2.122  12.966  17.753  0.00  0.00    +0.000 OA
ATOM     22  N   UNL     1       1.180  14.168  19.517  0.00  0.00    +0.000 N 
BRANCH  22  23
ATOM     23  C   UNL     1       0.956  15.419  18.864  0.00  0.00    +0.000 A 
ATOM     24  C   UNL     1       2.017  16.194  18.365  0.00  0.00    +0.000 A 
ATOM     25  C   UNL     1       1.797  17.439  17.760  0.00  0.00    +0.000 A 
ATOM     26  C   UNL     1       0.504  17.940  17.657  0.00  0.00    +0.000 A 
ATOM     27  C   UNL     1      -0.551  17.186  18.145  0.00  0.00    +0.000 A 
ATOM     28  F   UNL     1      -1.797  17.673  18.066  0.00  0.00    +0.000 F 
ATOM     29  C   UNL     1      -0.341  15.940  18.735  0.00  0.00    +0.000 A 
ENDBRANCH  22  23
ENDBRANCH   1  19
TORSDOF 2
ENDMDL
MODEL 4
REMARK VINA RESULT:      -7.3      3.870      4.927
REMARK  Name = 
REMARK  2 active torsions:
REMARK  status: ('A' for Active; 'I' for Inactive)
REMARK    1  A    between atoms: C_4  and  N_5
REMARK    2  A    between atoms: N_22  and  C_23
REMARK                            x       y       z     vdW  Elec       q    Type
REMARK                         _______ _______ _______ _____ _____    ______ ____
ROOT
ATOM      1  N   UNL     1       0.456  10.885  19.438  0.00  0.00    +0.000 NA
ATOM      2  C   UNL     1       0.875  10.031  18.288  0.00  0.00    +0.000 C 
ATOM      3  C   UNL     1       2.021   9.033  18.582  0.00  0.00    +0.000 C 
ATOM      4  N   UNL     1       1.713   8.231  19.766  0.00  0.00    +0.000 N 
ATOM      5  C   UNL     1       2.071   6.922  19.865  0.00  0.00    +0.000 A 
ATOM      6  N   UNL     1       1.431   6.058  20.623  0.00  0.00    +0.000 NA
ATOM      7  C   UNL     1       1.904   4.775  20.414  0.00  0.00    +0.000 A 
ATOM      8  C   UNL     1       1.371   3.591  20.964  0.00  0.00    +0.000 A 
ATOM      9  C   UNL     1       1.952   2.356  20.656  0.00  0.00    +0.000 A 
ATOM     10  C   UNL     1       3.066   2.289  19.823  0.00  0.00    +0.000 A 
ATOM     11  C   UNL     1       3.614   3.448  19.269  0.00  0.00    +0.000 A 
ATOM     12  C   UNL     1       3.006   4.677  19.566  0.00  0.00    +0.000 A 
ATOM     13  S   UNL     1       3.407   6.243  18.999  0.00  0.00    +0.000 S 
ATOM     14  C   UNL     1       1.176   8.922  20.936  0.00  0.00    +0.000 C 
ATOM     15  C   UNL     1       0.089   9.943  20.530  0.00  0.00    +0.000 C 
ENDROOT
BRANCH   1  19
ATOM     16  O   UNL     1       0.714  14.698  21.858  0.00  0.00    +0.000 OA
ATOM     17  C   UNL     1       0.983  13.936  20.936  0.00  0.00    +0.000 C 
ATOM     18  C   UNL     1       1.323  12.502  21.192  0.00  0.00    +0.000 C 
ATOM     19  C   UNL     1       1.505  11.869  19.819  0.00  0.00    +0.000 C 
ATOM     20  C   UNL     1       1.474  13.089  18.895  0.00  0.00    +0.000 C 
ATOM     21  O   UNL     1       1.881  13.056  17.736  0.00  0.00    +0.000 OA
ATOM     22  N   UNL     1       1.028  14.188  19.589  0.00  0.00    +0.000 N 
BRANCH  22  23
ATOM     23  C   UNL     1       0.727  15.447  18.985  0.00  0.00    +0.000 A 
ATOM     24  C   UNL     1      -0.573  15.982  18.996  0.00  0.00    +0.000 A 
ATOM     25  C   UNL     1      -0.871  17.199  18.369  0.00  0.00    +0.000 A 
ATOM     26  C   UNL     1       0.128  17.899  17.702  0.00  0.00    +0.000 A 
ATOM     27  C   UNL     1       1.414  17.382  17.683  0.00  0.00    +0.000 A 
ATOM     28  F   UNL     1       2.377  18.044  17.026  0.00  0.00    +0.000 F 
ATOM     29  C   UNL     1       1.722  16.180  18.318  0.00  0.00    +0.000 A 
ENDBRANCH  22  23
ENDBRANCH   1  19
TORSDOF 2
ENDMDL
MODEL 5
REMARK VINA RESULT:      -7.2      3.275      4.160
REMARK  Name = 
REMARK  2 active torsions:
REMARK  status: ('A' for Active; 'I' for Inactive)
REMARK    1  A    between atoms: C_4  and  N_5
REMARK    2  A    between atoms: N_22  and  C_23
REMARK                            x       y       z     vdW  Elec       q    Type
REMARK                         _______ _______ _______ _____ _____    ______ ____
ROOT
ATOM      1  N   UNL     1      -0.116  10.696  19.498  0.00  0.00    +0.000 NA
ATOM      2  C   UNL     1       0.198   9.788  18.355  0.00  0.00    +0.000 C 
ATOM      3  C   UNL     1       1.511   8.980  18.486  0.00  0.00    +0.000 C 
ATOM      4  N   UNL     1       1.553   8.272  19.766  0.00  0.00    +0.000 N 
ATOM      5  C   UNL     1       2.109   7.036  19.890  0.00  0.00    +0.000 A 
ATOM      6  N   UNL     1       1.757   6.181  20.825  0.00  0.00    +0.000 NA
ATOM      7  C   UNL     1       2.364   4.954  20.624  0.00  0.00    +0.000 A 
ATOM      8  C   UNL     1       2.122   3.775  21.358  0.00  0.00    +0.000 A 
ATOM      9  C   UNL     1       2.808   2.599  21.034  0.00  0.00    +0.000 A 
ATOM     10  C   UNL     1       3.741   2.589  20.002  0.00  0.00    +0.000 A 
ATOM     11  C   UNL     1       4.001   3.744  19.261  0.00  0.00    +0.000 A 
ATOM     12  C   UNL     1       3.288   4.911  19.581  0.00  0.00    +0.000 A 
ATOM     13  S   UNL     1       3.342   6.448  18.827  0.00  0.00    +0.000 S 
ATOM     14  C   UNL     1       1.152   9.006  20.964  0.00  0.00    +0.000 C 
ATOM     15  C   UNL     1      -0.129   9.832  20.710  0.00  0.00    +0.000 C 
ENDROOT
BRANCH   1  19
ATOM     16  O   UNL     1       0.672  14.156  22.301  0.00  0.00    +0.000 OA
ATOM     17  C   UNL     1       0.591  13.588  21.218  0.00  0.00    +0.000 C 
ATOM     18  C   UNL     1       1.218  12.249  20.997  0.00  0.00    +0.000 C 
ATOM     19  C   UNL     1       0.832  11.839  19.582  0.00  0.00    +0.000 C 
ATOM     20  C   UNL     1       0.196  13.121  19.039  0.00  0.00    +0.000 C 
ATOM     21  O   UNL     1       0.018  13.317  17.839  0.00  0.00    +0.000 OA
ATOM     22  N   UNL     1      -0.033  14.001  20.068  0.00  0.00    +0.000 N 
BRANCH  22  23
ATOM     23  C   UNL     1      -0.762  15.222  19.930  0.00  0.00    +0.000 A 
ATOM     24  C   UNL     1      -1.945  15.464  20.649  0.00  0.00    +0.000 A 
ATOM     25  C   UNL     1      -2.678  16.646  20.481  0.00  0.00    +0.000 A 
ATOM     26  C   UNL     1      -2.246  17.607  19.574  0.00  0.00    +0.000 A 
ATOM     27  C   UNL     1      -1.080  17.381  18.858  0.00  0.00    +0.000 A 
ATOM     28  F   UNL     1      -0.669  18.295  17.969  0.00  0.00    +0.000 F 
ATOM     29  C   UNL     1      -0.338  16.213  19.031  0.00  0.00    +0.000 A 
ENDBRANCH  22  23
ENDBRANCH   1  19
TORSDOF 2
ENDMDL
MODEL 6
REMARK VINA RESULT:      -7.1      4.932      9.573
REMARK  Name = 
REMARK  2 active torsions:
REMARK  status: ('A' for Active; 'I' for Inactive)
REMARK    1  A    between atoms: C_4  and  N_5
REMARK    2  A    between atoms: N_22  and  C_23
REMARK                            x       y       z     vdW  Elec       q    Type
REMARK                         _______ _______ _______ _____ _____    ______ ____
ROOT
ATOM      1  N   UNL     1       0.829   9.258  18.856  0.00  0.00    +0.000 NA
ATOM      2  C   UNL     1       0.115   9.899  20.000  0.00  0.00    +0.000 C 
ATOM      3  C   UNL     1       0.796  11.157  20.591  0.00  0.00    +0.000 C 
ATOM      4  N   UNL     1       1.099  12.121  19.534  0.00  0.00    +0.000 N 
ATOM      5  C   UNL     1       1.008  13.464  19.734  0.00  0.00    +0.000 A 
ATOM      6  N   UNL     1       0.785  14.322  18.762  0.00  0.00    +0.000 NA
ATOM      7  C   UNL     1       0.584  15.596  19.266  0.00  0.00    +0.000 A 
ATOM      8  C   UNL     1       0.202  16.733  18.525  0.00  0.00    +0.000 A 
ATOM      9  C   UNL     1       0.027  17.960  19.173  0.00  0.00    +0.000 A 
ATOM     10  C   UNL     1       0.245  18.071  20.543  0.00  0.00    +0.000 A 
ATOM     11  C   UNL     1       0.628  16.960  21.299  0.00  0.00    +0.000 A 
ATOM     12  C   UNL     1       0.775  15.729  20.640  0.00  0.00    +0.000 A 
ATOM     13  S   UNL     1       1.171  14.197  21.294  0.00  0.00    +0.000 S 
ATOM     14  C   UNL     1       1.693  11.616  18.299  0.00  0.00    +0.000 C 
ATOM     15  C   UNL     1       0.987  10.323  17.829  0.00  0.00    +0.000 C 
ENDROOT
BRANCH   1  19
ATOM     16  O   UNL     1       3.459   5.842  17.490  0.00  0.00    +0.000 OA
ATOM     17  C   UNL     1       2.917   6.583  18.302  0.00  0.00    +0.000 C 
ATOM     18  C   UNL     1       2.953   8.068  18.139  0.00  0.00    +0.000 C 
ATOM     19  C   UNL     1       2.111   8.631  19.276  0.00  0.00    +0.000 C 
ATOM     20  C   UNL     1       1.858   7.388  20.134  0.00  0.00    +0.000 C 
ATOM     21  O   UNL     1       1.471   7.451  21.298  0.00  0.00    +0.000 OA
ATOM     22  N   UNL     1       2.218   6.259  19.437  0.00  0.00    +0.000 N 
BRANCH  22  23
ATOM     23  C   UNL     1       1.960   4.927  19.884  0.00  0.00    +0.000 A 
ATOM     24  C   UNL     1       2.383   4.474  21.145  0.00  0.00    +0.000 A 
ATOM     25  C   UNL     1       2.161   3.155  21.563  0.00  0.00    +0.000 A 
ATOM     26  C   UNL     1       1.522   2.257  20.716  0.00  0.00    +0.000 A 
ATOM     27  C   UNL     1       1.100   2.691  19.470  0.00  0.00    +0.000 A 
ATOM     28  F   UNL     1       0.500   1.824  18.642  0.00  0.00    +0.000 F 
ATOM     29  C   UNL     1       1.303   4.006  19.052  0.00  0.00    +0.000 A 
ENDBRANCH  22  23
ENDBRANCH   1  19
TORSDOF 2
ENDMDL
MODEL 7
REMARK VINA RESULT:      -7.1      2.999      3.962
REMARK  Name = 
REMARK  2 active torsions:
REMARK  status: ('A' for Active; 'I' for Inactive)
REMARK    1  A    between atoms: C_4  and  N_5
REMARK    2  A    between atoms: N_22  and  C_23
REMARK                            x       y       z     vdW  Elec       q    Type
REMARK                         _______ _______ _______ _____ _____    ______ ____
ROOT
ATOM      1  N   UNL     1      -0.203  10.711  19.330  0.00  0.00    +0.000 NA
ATOM      2  C   UNL     1       0.154   9.804  18.199  0.00  0.00    +0.000 C 
ATOM      3  C   UNL     1       1.482   9.027  18.361  0.00  0.00    +0.000 C 
ATOM      4  N   UNL     1       1.514   8.327  19.646  0.00  0.00    +0.000 N 
ATOM      5  C   UNL     1       2.095   7.105  19.788  0.00  0.00    +0.000 A 
ATOM      6  N   UNL     1       1.744   6.247  20.721  0.00  0.00    +0.000 NA
ATOM      7  C   UNL     1       2.382   5.033  20.540  0.00  0.00    +0.000 A 
ATOM      8  C   UNL     1       2.152   3.853  21.276  0.00  0.00    +0.000 A 
ATOM      9  C   UNL     1       2.870   2.691  20.973  0.00  0.00    +0.000 A 
ATOM     10  C   UNL     1       3.824   2.696  19.959  0.00  0.00    +0.000 A 
ATOM     11  C   UNL     1       4.072   3.853  19.217  0.00  0.00    +0.000 A 
ATOM     12  C   UNL     1       3.327   5.005  19.515  0.00  0.00    +0.000 A 
ATOM     13  S   UNL     1       3.362   6.538  18.753  0.00  0.00    +0.000 S 
ATOM     14  C   UNL     1       1.073   9.058  20.831  0.00  0.00    +0.000 C 
ATOM     15  C   UNL     1      -0.221   9.854  20.546  0.00  0.00    +0.000 C 
ENDROOT
BRANCH   1  19
ATOM     16  O   UNL     1       0.687  14.003  22.301  0.00  0.00    +0.000 OA
ATOM     17  C   UNL     1       0.544  13.505  21.189  0.00  0.00    +0.000 C 
ATOM     18  C   UNL     1       1.191  12.204  20.836  0.00  0.00    +0.000 C 
ATOM     19  C   UNL     1       0.717  11.876  19.426  0.00  0.00    +0.000 C 
ATOM     20  C   UNL     1       0.010  13.170  19.016  0.00  0.00    +0.000 C 
ATOM     21  O   UNL     1      -0.258  13.438  17.847  0.00  0.00    +0.000 OA
ATOM     22  N   UNL     1      -0.170  13.973  20.116  0.00  0.00    +0.000 N 
BRANCH  22  23
ATOM     23  C   UNL     1      -0.940  15.176  20.111  0.00  0.00    +0.000 A 
ATOM     24  C   UNL     1      -0.479  16.348  19.486  0.00  0.00    +0.000 A 
ATOM     25  C   UNL     1      -1.220  17.537  19.517  0.00  0.00    +0.000 A 
ATOM     26  C   UNL     1      -2.436  17.579  20.190  0.00  0.00    +0.000 A 
ATOM     27  C   UNL     1      -2.902  16.430  20.810  0.00  0.00    +0.000 A 
ATOM     28  F   UNL     1      -4.064  16.470  21.476  0.00  0.00    +0.000 F 
ATOM     29  C   UNL     1      -2.177  15.240  20.771  0.00  0.00    +0.000 A 
ENDBRANCH  22  23
ENDBRANCH   1  19
TORSDOF 2
ENDMDL
MODEL 8
REMARK VINA RESULT:      -7.0      3.427      4.419
REMARK  Name = 
REMARK  2 active torsions:
REMARK  status: ('A' for Active; 'I' for Inactive)
REMARK    1  A    between atoms: C_4  and  N_5
REMARK    2  A    between atoms: N_22  and  C_23
REMARK                            x       y       z     vdW  Elec       q    Type
REMARK                         _______ _______ _______ _____ _____    ______ ____
ROOT
ATOM      1  N   UNL     1       0.600  10.671  19.231  0.00  0.00    +0.000 NA
ATOM      2  C   UNL     1       1.054  10.008  17.973  0.00  0.00    +0.000 C 
ATOM      3  C   UNL     1       2.216   8.998  18.134  0.00  0.00    +0.000 C 
ATOM      4  N   UNL     1       1.907   8.022  19.179  0.00  0.00    +0.000 N 
ATOM      5  C   UNL     1       2.290   6.719  19.086  0.00  0.00    +0.000 A 
ATOM      6  N   UNL     1       1.656   5.740  19.694  0.00  0.00    +0.000 NA
ATOM      7  C   UNL     1       2.159   4.511  19.304  0.00  0.00    +0.000 A 
ATOM      8  C   UNL     1       1.641   3.249  19.660  0.00  0.00    +0.000 A 
ATOM      9  C   UNL     1       2.252   2.085  19.181  0.00  0.00    +0.000 A 
ATOM     10  C   UNL     1       3.379   2.164  18.368  0.00  0.00    +0.000 A 
ATOM     11  C   UNL     1       3.913   3.402  18.003  0.00  0.00    +0.000 A 
ATOM     12  C   UNL     1       3.275   4.562  18.471  0.00  0.00    +0.000 A 
ATOM     13  S   UNL     1       3.652   6.202  18.153  0.00  0.00    +0.000 S 
ATOM     14  C   UNL     1       1.338   8.519  20.429  0.00  0.00    +0.000 C 
ATOM     15  C   UNL     1       0.236   9.569  20.162  0.00  0.00    +0.000 C 
ENDROOT
BRANCH   1  19
ATOM     16  O   UNL     1       0.752  14.055  22.229  0.00  0.00    +0.000 OA
ATOM     17  C   UNL     1       1.045  13.456  21.200  0.00  0.00    +0.000 C 
ATOM     18  C   UNL     1       1.418  12.008  21.228  0.00  0.00    +0.000 C 
ATOM     19  C   UNL     1       1.624  11.605  19.774  0.00  0.00    +0.000 C 
ATOM     20  C   UNL     1       1.569  12.956  19.056  0.00  0.00    +0.000 C 
ATOM     21  O   UNL     1       1.984  13.117  17.910  0.00  0.00    +0.000 OA
ATOM     22  N   UNL     1       1.093  13.920  19.911  0.00  0.00    +0.000 N 
BRANCH  22  23
ATOM     23  C   UNL     1       0.766  15.253  19.512  0.00  0.00    +0.000 A 
ATOM     24  C   UNL     1      -0.358  15.532  18.715  0.00  0.00    +0.000 A 
ATOM     25  C   UNL     1      -0.653  16.836  18.293  0.00  0.00    +0.000 A 
ATOM     26  C   UNL     1       0.183  17.886  18.652  0.00  0.00    +0.000 A 
ATOM     27  C   UNL     1       1.295  17.624  19.437  0.00  0.00    +0.000 A 
ATOM     28  F   UNL     1       2.115  18.631  19.770  0.00  0.00    +0.000 F 
ATOM     29  C   UNL     1       1.587  16.332  19.873  0.00  0.00    +0.000 A 
ENDBRANCH  22  23
ENDBRANCH   1  19
TORSDOF 2
ENDMDL
MODEL 9
REMARK VINA RESULT:      -7.0      4.809      9.842
REMARK  Name = 
REMARK  2 active torsions:
REMARK  status: ('A' for Active; 'I' for Inactive)
REMARK    1  A    between atoms: C_4  and  N_5
REMARK    2  A    between atoms: N_22  and  C_23
REMARK                            x       y       z     vdW  Elec       q    Type
REMARK                         _______ _______ _______ _____ _____    ______ ____
ROOT
ATOM      1  N   UNL     1       0.886   8.838  18.884  0.00  0.00    +0.000 NA
ATOM      2  C   UNL     1       0.209   9.461  20.060  0.00  0.00    +0.000 C 
ATOM      3  C   UNL     1       0.847  10.772  20.579  0.00  0.00    +0.000 C 
ATOM      4  N   UNL     1       1.018  11.728  19.486  0.00  0.00    +0.000 N 
ATOM      5  C   UNL     1       0.856  13.067  19.665  0.00  0.00    +0.000 A 
ATOM      6  N   UNL     1       0.515  13.886  18.693  0.00  0.00    +0.000 NA
ATOM      7  C   UNL     1       0.268  15.156  19.183  0.00  0.00    +0.000 A 
ATOM      8  C   UNL     1      -0.233  16.249  18.447  0.00  0.00    +0.000 A 
ATOM      9  C   UNL     1      -0.443  17.479  19.081  0.00  0.00    +0.000 A 
ATOM     10  C   UNL     1      -0.142  17.636  20.432  0.00  0.00    +0.000 A 
ATOM     11  C   UNL     1       0.359  16.569  21.181  0.00  0.00    +0.000 A 
ATOM     12  C   UNL     1       0.540  15.334  20.538  0.00  0.00    +0.000 A 
ATOM     13  S   UNL     1       1.075  13.845  21.195  0.00  0.00    +0.000 S 
ATOM     14  C   UNL     1       1.561  11.231  18.223  0.00  0.00    +0.000 C 
ATOM     15  C   UNL     1       0.909   9.886  17.828  0.00  0.00    +0.000 C 
ENDROOT
BRANCH   1  19
ATOM     16  O   UNL     1       4.057   6.295  16.901  0.00  0.00    +0.000 OA
ATOM     17  C   UNL     1       3.376   6.714  17.830  0.00  0.00    +0.000 C 
ATOM     18  C   UNL     1       3.193   8.180  18.056  0.00  0.00    +0.000 C 
ATOM     19  C   UNL     1       2.230   8.301  19.230  0.00  0.00    +0.000 C 
ATOM     20  C   UNL     1       2.133   6.853  19.717  0.00  0.00    +0.000 C 
ATOM     21  O   UNL     1       1.694   6.553  20.825  0.00  0.00    +0.000 OA
ATOM     22  N   UNL     1       2.688   6.010  18.785  0.00  0.00    +0.000 N 
BRANCH  22  23
ATOM     23  C   UNL     1       2.617   4.584  18.854  0.00  0.00    +0.000 A 
ATOM     24  C   UNL     1       1.463   3.881  18.468  0.00  0.00    +0.000 A 
ATOM     25  C   UNL     1       1.383   2.486  18.573  0.00  0.00    +0.000 A 
ATOM     26  C   UNL     1       2.457   1.767  19.084  0.00  0.00    +0.000 A 
ATOM     27  C   UNL     1       3.601   2.448  19.469  0.00  0.00    +0.000 A 
ATOM     28  F   UNL     1       4.633   1.762  19.980  0.00  0.00    +0.000 F 
ATOM     29  C   UNL     1       3.694   3.835  19.353  0.00  0.00    +0.000 A 
ENDBRANCH  22  23
ENDBRANCH   1  19
TORSDOF 2
ENDMDL
