MODEL 1
REMARK VINA RESULT:      -8.8      0.000      0.000
REMARK  Name = 
REMARK  12 active torsions:
REMARK  status: ('A' for Active; 'I' for Inactive)
REMARK    1  A    between atoms: C_1  and  C_2
REMARK    2  A    between atoms: C_2  and  C_3
REMARK    3  A    between atoms: C_4  and  C_5
REMARK    4  A    between atoms: C_5  and  C_6
REMARK    5  A    between atoms: C_6  and  O_7
REMARK    6  A    between atoms: C_6  and  C_20
REMARK    7  A    between atoms: O_7  and  C_8
REMARK    8  A    between atoms: C_8  and  C_10
REMARK    9  A    between atoms: C_11  and  C_12
REMARK   10  A    between atoms: C_12  and  C_14
REMARK   11  A    between atoms: C_25  and  O_26
REMARK   12  A    between atoms: C_29  and  O_30
REMARK                            x       y       z     vdW  Elec       q    Type
REMARK                         _______ _______ _______ _____ _____    ______ ____
ROOT
ATOM      1  C   UNL     1       2.622   6.082  18.570  0.00  0.00    +0.000 C 
ENDROOT
BRANCH   1   2
ATOM      2  C   UNL     1       2.213   7.519  18.829  0.00  0.00    +0.000 C 
ATOM      3  C   UNL     1       2.288   8.402  17.822  0.00  0.00    +0.000 C 
ATOM      4  C   UNL     1       2.047   9.824  18.036  0.00  0.00    +0.000 C 
ATOM      5  O   UNL     1       2.540  10.674  17.303  0.00  0.00    +0.000 OA
ATOM      6  C   UNL     1       1.144  10.194  19.126  0.00  0.00    +0.000 A 
ATOM      7  C   UNL     1       0.487  11.432  19.084  0.00  0.00    +0.000 A 
ATOM      8  C   UNL     1      -0.548  11.697  19.964  0.00  0.00    +0.000 A 
ATOM      9  C   UNL     1      -0.912  10.730  20.904  0.00  0.00    +0.000 A 
ATOM     10  C   UNL     1      -0.199   9.522  20.994  0.00  0.00    +0.000 A 
ATOM     11  C   UNL     1       0.854   9.244  20.109  0.00  0.00    +0.000 A 
ATOM     12  C   UNL     1       1.693   8.001  20.148  0.00  0.00    +0.000 C 
ATOM     13  O   UNL     1       2.003   7.438  21.188  0.00  0.00    +0.000 OA
BRANCH   7  14
ATOM     14  O   UNL     1       0.803  12.413  18.185  0.00  0.00    +0.000 OA
ATOM     15  H   UNL     1       1.620  12.866  18.496  0.00  0.00    +0.000 HD
ENDBRANCH   7  14
BRANCH  10  16
ATOM     16  O   UNL     1      -0.599   8.599  21.918  0.00  0.00    +0.000 OA
ATOM     17  H   UNL     1       0.181   8.233  22.371  0.00  0.00    +0.000 HD
ENDBRANCH  10  16
ENDBRANCH   1   2
BRANCH   1  18
ATOM     18  C   UNL     1       1.595   4.915  18.449  0.00  0.00    +0.000 C 
BRANCH  18  22
ATOM     19  C   UNL     1       1.566   2.556  21.635  0.00  0.00    +0.000 C 
ATOM     20  C   UNL     1       1.852   3.045  20.233  0.00  0.00    +0.000 C 
ATOM     21  C   UNL     1       2.650   2.118  19.361  0.00  0.00    +0.000 C 
ATOM     22  C   UNL     1       1.373   4.233  19.806  0.00  0.00    +0.000 C 
ENDBRANCH  18  22
ENDBRANCH   1  18
BRANCH   1  23
ATOM     23  O   UNL     1       3.560   5.973  17.468  0.00  0.00    +0.000 OA
BRANCH  23  24
ATOM     24  C   UNL     1       4.815   5.578  17.782  0.00  0.00    +0.000 C 
ATOM     25  O   UNL     1       5.128   4.639  18.491  0.00  0.00    +0.000 OA
BRANCH  24  26
ATOM     26  C   UNL     1       5.717   6.651  17.322  0.00  0.00    +0.000 C 
ATOM     27  C   UNL     1       6.908   6.441  16.751  0.00  0.00    +0.000 C 
BRANCH  27  28
ATOM     28  C   UNL     1       7.387   5.128  16.247  0.00  0.00    +0.000 C 
ATOM     29  O   UNL     1       7.930   4.313  16.983  0.00  0.00    +0.000 OA
BRANCH  28  30
ATOM     30  C   UNL     1       6.990   4.761  14.862  0.00  0.00    +0.000 A 
ATOM     31  C   UNL     1       5.895   3.937  14.596  0.00  0.00    +0.000 A 
ATOM     32  C   UNL     1       5.620   3.556  13.280  0.00  0.00    +0.000 A 
ATOM     33  C   UNL     1       6.435   3.996  12.238  0.00  0.00    +0.000 A 
ATOM     34  C   UNL     1       7.509   4.845  12.498  0.00  0.00    +0.000 A 
ATOM     35  C   UNL     1       7.784   5.236  13.804  0.00  0.00    +0.000 A 
ENDBRANCH  28  30
ENDBRANCH  27  28
ENDBRANCH  24  26
ENDBRANCH  23  24
ENDBRANCH   1  23
TORSDOF 10
ENDMDL
MODEL 2
REMARK VINA RESULT:      -8.4      0.881      1.306
REMARK  Name = 
REMARK  12 active torsions:
REMARK  status: ('A' for Active; 'I' for Inactive)
REMARK    1  A    between atoms: C_1  and  C_2
REMARK    2  A    between atoms: C_2  and  C_3
REMARK    3  A    between atoms: C_4  and  C_5
REMARK    4  A    between atoms: C_5  and  C_6
REMARK    5  A    between atoms: C_6  and  O_7
REMARK    6  A    between atoms: C_6  and  C_20
REMARK    7  A    between atoms: O_7  and  C_8
REMARK    8  A    between atoms: C_8  and  C_10
REMARK    9  A    between atoms: C_11  and  C_12
REMARK   10  A    between atoms: C_12  and  C_14
REMARK   11  A    between atoms: C_25  and  O_26
REMARK   12  A    between atoms: C_29  and  O_30
REMARK                            x       y       z     vdW  Elec       q    Type
REMARK                         _______ _______ _______ _____ _____    ______ ____
ROOT
ATOM      1  C   UNL     1       2.863   6.347  18.431  0.00  0.00    +0.000 C 
ENDROOT
BRANCH   1   2
ATOM      2  C   UNL     1       2.347   7.743  18.721  0.00  0.00    +0.000 C 
ATOM      3  C   UNL     1       2.381   8.659  17.741  0.00  0.00    +0.000 C 
ATOM      4  C   UNL     1       2.035  10.054  17.989  0.00  0.00    +0.000 C 
ATOM      5  O   UNL     1       2.482  10.957  17.292  0.00  0.00    +0.000 OA
ATOM      6  C   UNL     1       1.083  10.327  19.066  0.00  0.00    +0.000 A 
ATOM      7  C   UNL     1       0.341  11.515  19.042  0.00  0.00    +0.000 A 
ATOM      8  C   UNL     1      -0.730  11.681  19.904  0.00  0.00    +0.000 A 
ATOM      9  C   UNL     1      -1.045  10.663  20.807  0.00  0.00    +0.000 A 
ATOM     10  C   UNL     1      -0.250   9.506  20.881  0.00  0.00    +0.000 A 
ATOM     11  C   UNL     1       0.840   9.330  20.014  0.00  0.00    +0.000 A 
ATOM     12  C   UNL     1       1.765   8.148  20.039  0.00  0.00    +0.000 C 
ATOM     13  O   UNL     1       2.090   7.578  21.070  0.00  0.00    +0.000 OA
BRANCH   7  14
ATOM     14  O   UNL     1       0.607  12.542  18.180  0.00  0.00    +0.000 OA
ATOM     15  H   UNL     1       0.230  12.313  17.299  0.00  0.00    +0.000 HD
ENDBRANCH   7  14
BRANCH  10  16
ATOM     16  O   UNL     1      -0.604   8.530  21.768  0.00  0.00    +0.000 OA
ATOM     17  H   UNL     1      -1.533   8.652  22.032  0.00  0.00    +0.000 HD
ENDBRANCH  10  16
ENDBRANCH   1   2
BRANCH   1  18
ATOM     18  C   UNL     1       1.933   5.099  18.346  0.00  0.00    +0.000 C 
BRANCH  18  22
ATOM     19  C   UNL     1       1.325   2.650  21.404  0.00  0.00    +0.000 C 
ATOM     20  C   UNL     1       1.322   3.182  19.988  0.00  0.00    +0.000 C 
ATOM     21  C   UNL     1       0.717   2.283  18.947  0.00  0.00    +0.000 C 
ATOM     22  C   UNL     1       1.807   4.411  19.712  0.00  0.00    +0.000 C 
ENDBRANCH  18  22
ENDBRANCH   1  18
BRANCH   1  23
ATOM     23  O   UNL     1       3.756   6.323  17.287  0.00  0.00    +0.000 OA
BRANCH  23  24
ATOM     24  C   UNL     1       5.078   6.438  17.552  0.00  0.00    +0.000 C 
ATOM     25  O   UNL     1       5.749   7.452  17.488  0.00  0.00    +0.000 OA
BRANCH  24  26
ATOM     26  C   UNL     1       5.599   5.064  17.672  0.00  0.00    +0.000 C 
ATOM     27  C   UNL     1       6.293   4.435  16.717  0.00  0.00    +0.000 C 
BRANCH  27  28
ATOM     28  C   UNL     1       6.876   5.094  15.520  0.00  0.00    +0.000 C 
ATOM     29  O   UNL     1       7.712   5.984  15.616  0.00  0.00    +0.000 OA
BRANCH  28  30
ATOM     30  C   UNL     1       6.558   4.484  14.202  0.00  0.00    +0.000 A 
ATOM     31  C   UNL     1       7.458   4.506  13.136  0.00  0.00    +0.000 A 
ATOM     32  C   UNL     1       7.073   3.993  11.894  0.00  0.00    +0.000 A 
ATOM     33  C   UNL     1       5.795   3.462  11.721  0.00  0.00    +0.000 A 
ATOM     34  C   UNL     1       4.906   3.410  12.794  0.00  0.00    +0.000 A 
ATOM     35  C   UNL     1       5.285   3.910  14.035  0.00  0.00    +0.000 A 
ENDBRANCH  28  30
ENDBRANCH  27  28
ENDBRANCH  24  26
ENDBRANCH  23  24
ENDBRANCH   1  23
TORSDOF 10
ENDMDL
MODEL 3
REMARK VINA RESULT:      -8.3      1.698      3.121
REMARK  Name = 
REMARK  12 active torsions:
REMARK  status: ('A' for Active; 'I' for Inactive)
REMARK    1  A    between atoms: C_1  and  C_2
REMARK    2  A    between atoms: C_2  and  C_3
REMARK    3  A    between atoms: C_4  and  C_5
REMARK    4  A    between atoms: C_5  and  C_6
REMARK    5  A    between atoms: C_6  and  O_7
REMARK    6  A    between atoms: C_6  and  C_20
REMARK    7  A    between atoms: O_7  and  C_8
REMARK    8  A    between atoms: C_8  and  C_10
REMARK    9  A    between atoms: C_11  and  C_12
REMARK   10  A    between atoms: C_12  and  C_14
REMARK   11  A    between atoms: C_25  and  O_26
REMARK   12  A    between atoms: C_29  and  O_30
REMARK                            x       y       z     vdW  Elec       q    Type
REMARK                         _______ _______ _______ _____ _____    ______ ____
ROOT
ATOM      1  C   UNL     1       2.135   6.916  20.157  0.00  0.00    +0.000 C 
ENDROOT
BRANCH   1   2
ATOM      2  C   UNL     1       1.604   8.333  20.253  0.00  0.00    +0.000 C 
ATOM      3  C   UNL     1       1.307   8.830  21.464  0.00  0.00    +0.000 C 
ATOM      4  C   UNL     1       0.661  10.128  21.617  0.00  0.00    +0.000 C 
ATOM      5  O   UNL     1      -0.018  10.392  22.603  0.00  0.00    +0.000 OA
ATOM      6  C   UNL     1       0.906  11.126  20.576  0.00  0.00    +0.000 A 
ATOM      7  C   UNL     1       0.757  12.486  20.878  0.00  0.00    +0.000 A 
ATOM      8  C   UNL     1       1.216  13.447  19.993  0.00  0.00    +0.000 A 
ATOM      9  C   UNL     1       1.806  13.046  18.793  0.00  0.00    +0.000 A 
ATOM     10  C   UNL     1       1.882  11.682  18.459  0.00  0.00    +0.000 A 
ATOM     11  C   UNL     1       1.416  10.700  19.347  0.00  0.00    +0.000 A 
ATOM     12  C   UNL     1       1.424   9.226  19.065  0.00  0.00    +0.000 C 
ATOM     13  O   UNL     1       1.230   8.759  17.953  0.00  0.00    +0.000 OA
BRANCH   7  14
ATOM     14  O   UNL     1       0.187  12.933  22.038  0.00  0.00    +0.000 OA
ATOM     15  H   UNL     1      -0.685  13.337  21.820  0.00  0.00    +0.000 HD
ENDBRANCH   7  14
BRANCH  10  16
ATOM     16  O   UNL     1       2.480  11.335  17.281  0.00  0.00    +0.000 OA
ATOM     17  H   UNL     1       3.386  11.025  17.456  0.00  0.00    +0.000 HD
ENDBRANCH  10  16
ENDBRANCH   1   2
BRANCH   1  18
ATOM     18  C   UNL     1       1.467   5.707  20.880  0.00  0.00    +0.000 C 
BRANCH  18  22
ATOM     19  C   UNL     1       0.696   2.301  19.006  0.00  0.00    +0.000 C 
ATOM     20  C   UNL     1       1.104   3.255  20.105  0.00  0.00    +0.000 C 
ATOM     21  C   UNL     1       1.509   2.627  21.408  0.00  0.00    +0.000 C 
ATOM     22  C   UNL     1       1.131   4.588  19.887  0.00  0.00    +0.000 C 
ENDBRANCH  18  22
ENDBRANCH   1  18
BRANCH   1  23
ATOM     23  O   UNL     1       2.405   6.528  18.785  0.00  0.00    +0.000 OA
BRANCH  23  24
ATOM     24  C   UNL     1       3.691   6.620  18.374  0.00  0.00    +0.000 C 
ATOM     25  O   UNL     1       4.114   7.285  17.447  0.00  0.00    +0.000 OA
BRANCH  24  26
ATOM     26  C   UNL     1       4.432   5.564  19.089  0.00  0.00    +0.000 C 
ATOM     27  C   UNL     1       4.586   4.314  18.637  0.00  0.00    +0.000 C 
BRANCH  27  28
ATOM     28  C   UNL     1       4.280   3.869  17.253  0.00  0.00    +0.000 C 
ATOM     29  O   UNL     1       3.168   3.468  16.935  0.00  0.00    +0.000 OA
BRANCH  28  30
ATOM     30  C   UNL     1       5.321   4.131  16.225  0.00  0.00    +0.000 A 
ATOM     31  C   UNL     1       6.556   4.698  16.544  0.00  0.00    +0.000 A 
ATOM     32  C   UNL     1       7.463   5.000  15.524  0.00  0.00    +0.000 A 
ATOM     33  C   UNL     1       7.135   4.737  14.194  0.00  0.00    +0.000 A 
ATOM     34  C   UNL     1       5.915   4.141  13.877  0.00  0.00    +0.000 A 
ATOM     35  C   UNL     1       5.012   3.829  14.886  0.00  0.00    +0.000 A 
ENDBRANCH  28  30
ENDBRANCH  27  28
ENDBRANCH  24  26
ENDBRANCH  23  24
ENDBRANCH   1  23
TORSDOF 10
ENDMDL
MODEL 4
REMARK VINA RESULT:      -8.3      1.039      2.310
REMARK  Name = 
REMARK  12 active torsions:
REMARK  status: ('A' for Active; 'I' for Inactive)
REMARK    1  A    between atoms: C_1  and  C_2
REMARK    2  A    between atoms: C_2  and  C_3
REMARK    3  A    between atoms: C_4  and  C_5
REMARK    4  A    between atoms: C_5  and  C_6
REMARK    5  A    between atoms: C_6  and  O_7
REMARK    6  A    between atoms: C_6  and  C_20
REMARK    7  A    between atoms: O_7  and  C_8
REMARK    8  A    between atoms: C_8  and  C_10
REMARK    9  A    between atoms: C_11  and  C_12
REMARK   10  A    between atoms: C_12  and  C_14
REMARK   11  A    between atoms: C_25  and  O_26
REMARK   12  A    between atoms: C_29  and  O_30
REMARK                            x       y       z     vdW  Elec       q    Type
REMARK                         _______ _______ _______ _____ _____    ______ ____
ROOT
ATOM      1  C   UNL     1       2.828   6.555  18.871  0.00  0.00    +0.000 C 
ENDROOT
BRANCH   1   2
ATOM      2  C   UNL     1       2.089   7.806  19.304  0.00  0.00    +0.000 C 
ATOM      3  C   UNL     1       1.709   7.919  20.585  0.00  0.00    +0.000 C 
ATOM      4  C   UNL     1       0.874   9.027  21.037  0.00  0.00    +0.000 C 
ATOM      5  O   UNL     1       0.153   8.923  22.023  0.00  0.00    +0.000 OA
ATOM      6  C   UNL     1       0.979  10.288  20.303  0.00  0.00    +0.000 A 
ATOM      7  C   UNL     1       0.625  11.485  20.940  0.00  0.00    +0.000 A 
ATOM      8  C   UNL     1       0.945  12.700  20.358  0.00  0.00    +0.000 A 
ATOM      9  C   UNL     1       1.601  12.717  19.125  0.00  0.00    +0.000 A 
ATOM     10  C   UNL     1       1.884  11.515  18.454  0.00  0.00    +0.000 A 
ATOM     11  C   UNL     1       1.561  10.278  19.033  0.00  0.00    +0.000 A 
ATOM     12  C   UNL     1       1.792   8.946  18.380  0.00  0.00    +0.000 C 
ATOM     13  O   UNL     1       1.682   8.766  17.177  0.00  0.00    +0.000 OA
BRANCH   7  14
ATOM     14  O   UNL     1      -0.018  11.526  22.146  0.00  0.00    +0.000 OA
ATOM     15  H   UNL     1       0.267  12.339  22.622  0.00  0.00    +0.000 HD
ENDBRANCH   7  14
BRANCH  10  16
ATOM     16  O   UNL     1       2.540  11.578  17.258  0.00  0.00    +0.000 OA
ATOM     17  H   UNL     1       2.026  12.120  16.633  0.00  0.00    +0.000 HD
ENDBRANCH  10  16
ENDBRANCH   1   2
BRANCH   1  18
ATOM     18  C   UNL     1       2.116   5.190  18.627  0.00  0.00    +0.000 C 
BRANCH  18  22
ATOM     19  C   UNL     1       1.366   2.565  21.502  0.00  0.00    +0.000 C 
ATOM     20  C   UNL     1       1.411   3.189  20.125  0.00  0.00    +0.000 C 
ATOM     21  C   UNL     1       0.802   2.380  19.015  0.00  0.00    +0.000 C 
ATOM     22  C   UNL     1       1.939   4.418  19.941  0.00  0.00    +0.000 C 
ENDBRANCH  18  22
ENDBRANCH   1  18
BRANCH   1  23
ATOM     23  O   UNL     1       3.716   6.806  17.750  0.00  0.00    +0.000 OA
BRANCH  23  24
ATOM     24  C   UNL     1       4.859   6.084  17.713  0.00  0.00    +0.000 C 
ATOM     25  O   UNL     1       5.035   4.973  18.180  0.00  0.00    +0.000 OA
BRANCH  24  26
ATOM     26  C   UNL     1       5.915   6.999  17.242  0.00  0.00    +0.000 C 
ATOM     27  C   UNL     1       7.089   6.599  16.740  0.00  0.00    +0.000 C 
BRANCH  27  28
ATOM     28  C   UNL     1       7.405   5.207  16.329  0.00  0.00    +0.000 C 
ATOM     29  O   UNL     1       7.855   4.387  17.120  0.00  0.00    +0.000 OA
BRANCH  28  30
ATOM     30  C   UNL     1       6.957   4.795  14.973  0.00  0.00    +0.000 A 
ATOM     31  C   UNL     1       5.840   3.982  14.775  0.00  0.00    +0.000 A 
ATOM     32  C   UNL     1       5.515   3.555  13.485  0.00  0.00    +0.000 A 
ATOM     33  C   UNL     1       6.303   3.939  12.400  0.00  0.00    +0.000 A 
ATOM     34  C   UNL     1       7.400   4.777  12.592  0.00  0.00    +0.000 A 
ATOM     35  C   UNL     1       7.724   5.213  13.872  0.00  0.00    +0.000 A 
ENDBRANCH  28  30
ENDBRANCH  27  28
ENDBRANCH  24  26
ENDBRANCH  23  24
ENDBRANCH   1  23
TORSDOF 10
ENDMDL
MODEL 5
REMARK VINA RESULT:      -8.3      0.946      1.413
REMARK  Name = 
REMARK  12 active torsions:
REMARK  status: ('A' for Active; 'I' for Inactive)
REMARK    1  A    between atoms: C_1  and  C_2
REMARK    2  A    between atoms: C_2  and  C_3
REMARK    3  A    between atoms: C_4  and  C_5
REMARK    4  A    between atoms: C_5  and  C_6
REMARK    5  A    between atoms: C_6  and  O_7
REMARK    6  A    between atoms: C_6  and  C_20
REMARK    7  A    between atoms: O_7  and  C_8
REMARK    8  A    between atoms: C_8  and  C_10
REMARK    9  A    between atoms: C_11  and  C_12
REMARK   10  A    between atoms: C_12  and  C_14
REMARK   11  A    between atoms: C_25  and  O_26
REMARK   12  A    between atoms: C_29  and  O_30
REMARK                            x       y       z     vdW  Elec       q    Type
REMARK                         _______ _______ _______ _____ _____    ______ ____
ROOT
ATOM      1  C   UNL     1       2.666   6.343  18.278  0.00  0.00    +0.000 C 
ENDROOT
BRANCH   1   2
ATOM      2  C   UNL     1       2.229   7.751  18.633  0.00  0.00    +0.000 C 
ATOM      3  C   UNL     1       2.283   8.700  17.687  0.00  0.00    +0.000 C 
ATOM      4  C   UNL     1       2.014  10.100  17.995  0.00  0.00    +0.000 C 
ATOM      5  O   UNL     1       2.487  11.006  17.319  0.00  0.00    +0.000 OA
ATOM      6  C   UNL     1       1.105  10.378  19.108  0.00  0.00    +0.000 A 
ATOM      7  C   UNL     1       0.423  11.602  19.149  0.00  0.00    +0.000 A 
ATOM      8  C   UNL     1      -0.614  11.787  20.047  0.00  0.00    +0.000 A 
ATOM      9  C   UNL     1      -0.956  10.753  20.921  0.00  0.00    +0.000 A 
ATOM     10  C   UNL     1      -0.218   9.556  20.929  0.00  0.00    +0.000 A 
ATOM     11  C   UNL     1       0.838   9.360  20.026  0.00  0.00    +0.000 A 
ATOM     12  C   UNL     1       1.703   8.134  19.982  0.00  0.00    +0.000 C 
ATOM     13  O   UNL     1       2.026   7.510  20.981  0.00  0.00    +0.000 OA
BRANCH   7  14
ATOM     14  O   UNL     1       0.717  12.647  18.317  0.00  0.00    +0.000 OA
ATOM     15  H   UNL     1       1.633  12.524  17.977  0.00  0.00    +0.000 HD
ENDBRANCH   7  14
BRANCH  10  16
ATOM     16  O   UNL     1      -0.597   8.566  21.790  0.00  0.00    +0.000 OA
ATOM     17  H   UNL     1      -0.181   7.727  21.524  0.00  0.00    +0.000 HD
ENDBRANCH  10  16
ENDBRANCH   1   2
BRANCH   1  18
ATOM     18  C   UNL     1       1.666   5.222  17.862  0.00  0.00    +0.000 C 
BRANCH  18  22
ATOM     19  C   UNL     1       3.324   1.633  18.155  0.00  0.00    +0.000 C 
ATOM     20  C   UNL     1       2.633   2.916  18.562  0.00  0.00    +0.000 C 
ATOM     21  C   UNL     1       2.286   3.045  20.017  0.00  0.00    +0.000 C 
ATOM     22  C   UNL     1       2.391   3.886  17.654  0.00  0.00    +0.000 C 
ENDBRANCH  18  22
ENDBRANCH   1  18
BRANCH   1  23
ATOM     23  O   UNL     1       3.768   6.337  17.334  0.00  0.00    +0.000 OA
BRANCH  23  24
ATOM     24  C   UNL     1       4.999   6.576  17.843  0.00  0.00    +0.000 C 
ATOM     25  O   UNL     1       5.828   7.356  17.412  0.00  0.00    +0.000 OA
BRANCH  24  26
ATOM     26  C   UNL     1       5.243   5.527  18.850  0.00  0.00    +0.000 C 
ATOM     27  C   UNL     1       6.122   4.528  18.701  0.00  0.00    +0.000 C 
BRANCH  27  28
ATOM     28  C   UNL     1       7.166   4.469  17.646  0.00  0.00    +0.000 C 
ATOM     29  O   UNL     1       8.354   4.348  17.920  0.00  0.00    +0.000 OA
BRANCH  28  30
ATOM     30  C   UNL     1       6.690   4.352  16.243  0.00  0.00    +0.000 A 
ATOM     31  C   UNL     1       5.588   3.570  15.895  0.00  0.00    +0.000 A 
ATOM     32  C   UNL     1       5.237   3.429  14.549  0.00  0.00    +0.000 A 
ATOM     33  C   UNL     1       5.985   4.066  13.559  0.00  0.00    +0.000 A 
ATOM     34  C   UNL     1       7.066   4.873  13.908  0.00  0.00    +0.000 A 
ATOM     35  C   UNL     1       7.415   5.027  15.245  0.00  0.00    +0.000 A 
ENDBRANCH  28  30
ENDBRANCH  27  28
ENDBRANCH  24  26
ENDBRANCH  23  24
ENDBRANCH   1  23
TORSDOF 10
ENDMDL
MODEL 6
REMARK VINA RESULT:      -8.2      0.756      1.261
REMARK  Name = 
REMARK  12 active torsions:
REMARK  status: ('A' for Active; 'I' for Inactive)
REMARK    1  A    between atoms: C_1  and  C_2
REMARK    2  A    between atoms: C_2  and  C_3
REMARK    3  A    between atoms: C_4  and  C_5
REMARK    4  A    between atoms: C_5  and  C_6
REMARK    5  A    between atoms: C_6  and  O_7
REMARK    6  A    between atoms: C_6  and  C_20
REMARK    7  A    between atoms: O_7  and  C_8
REMARK    8  A    between atoms: C_8  and  C_10
REMARK    9  A    between atoms: C_11  and  C_12
REMARK   10  A    between atoms: C_12  and  C_14
REMARK   11  A    between atoms: C_25  and  O_26
REMARK   12  A    between atoms: C_29  and  O_30
REMARK                            x       y       z     vdW  Elec       q    Type
REMARK                         _______ _______ _______ _____ _____    ______ ____
ROOT
ATOM      1  C   UNL     1       2.534   6.318  18.321  0.00  0.00    +0.000 C 
ENDROOT
BRANCH   1   2
ATOM      2  C   UNL     1       2.153   7.742  18.674  0.00  0.00    +0.000 C 
ATOM      3  C   UNL     1       2.237   8.686  17.724  0.00  0.00    +0.000 C 
ATOM      4  C   UNL     1       2.023  10.096  18.030  0.00  0.00    +0.000 C 
ATOM      5  O   UNL     1       2.526  10.982  17.348  0.00  0.00    +0.000 OA
ATOM      6  C   UNL     1       1.133  10.412  19.148  0.00  0.00    +0.000 A 
ATOM      7  C   UNL     1       0.498  11.661  19.190  0.00  0.00    +0.000 A 
ATOM      8  C   UNL     1      -0.525  11.887  20.094  0.00  0.00    +0.000 A 
ATOM      9  C   UNL     1      -0.900  10.869  20.973  0.00  0.00    +0.000 A 
ATOM     10  C   UNL     1      -0.208   9.646  20.980  0.00  0.00    +0.000 A 
ATOM     11  C   UNL     1       0.834   9.407  20.071  0.00  0.00    +0.000 A 
ATOM     12  C   UNL     1       1.651   8.149  20.025  0.00  0.00    +0.000 C 
ATOM     13  O   UNL     1       1.957   7.516  21.024  0.00  0.00    +0.000 OA
BRANCH   7  14
ATOM     14  O   UNL     1       0.827  12.691  18.353  0.00  0.00    +0.000 OA
ATOM     15  H   UNL     1       1.113  13.457  18.901  0.00  0.00    +0.000 HD
ENDBRANCH   7  14
BRANCH  10  16
ATOM     16  O   UNL     1      -0.619   8.673  21.847  0.00  0.00    +0.000 OA
ATOM     17  H   UNL     1       0.156   8.189  22.183  0.00  0.00    +0.000 HD
ENDBRANCH  10  16
ENDBRANCH   1   2
BRANCH   1  18
ATOM     18  C   UNL     1       1.533   5.302  17.690  0.00  0.00    +0.000 C 
BRANCH  18  22
ATOM     19  C   UNL     1       1.973   1.796  19.486  0.00  0.00    +0.000 C 
ATOM     20  C   UNL     1       1.604   3.247  19.276  0.00  0.00    +0.000 C 
ATOM     21  C   UNL     1       0.974   3.944  20.449  0.00  0.00    +0.000 C 
ATOM     22  C   UNL     1       1.872   3.865  18.106  0.00  0.00    +0.000 C 
ENDBRANCH  18  22
ENDBRANCH   1  18
BRANCH   1  23
ATOM     23  O   UNL     1       3.773   6.257  17.567  0.00  0.00    +0.000 OA
BRANCH  23  24
ATOM     24  C   UNL     1       4.882   5.910  18.260  0.00  0.00    +0.000 C 
ATOM     25  O   UNL     1       4.922   5.396  19.363  0.00  0.00    +0.000 OA
BRANCH  24  26
ATOM     26  C   UNL     1       6.024   6.512  17.547  0.00  0.00    +0.000 C 
ATOM     27  C   UNL     1       6.746   5.883  16.613  0.00  0.00    +0.000 C 
BRANCH  27  28
ATOM     28  C   UNL     1       6.358   4.606  15.960  0.00  0.00    +0.000 C 
ATOM     29  O   UNL     1       5.668   3.772  16.532  0.00  0.00    +0.000 OA
BRANCH  28  30
ATOM     30  C   UNL     1       6.667   4.478  14.512  0.00  0.00    +0.000 A 
ATOM     31  C   UNL     1       7.603   5.294  13.876  0.00  0.00    +0.000 A 
ATOM     32  C   UNL     1       7.791   5.186  12.495  0.00  0.00    +0.000 A 
ATOM     33  C   UNL     1       7.045   4.269  11.756  0.00  0.00    +0.000 A 
ATOM     34  C   UNL     1       6.132   3.430  12.394  0.00  0.00    +0.000 A 
ATOM     35  C   UNL     1       5.947   3.525  13.769  0.00  0.00    +0.000 A 
ENDBRANCH  28  30
ENDBRANCH  27  28
ENDBRANCH  24  26
ENDBRANCH  23  24
ENDBRANCH   1  23
TORSDOF 10
ENDMDL
MODEL 7
REMARK VINA RESULT:      -8.1      0.883      1.051
REMARK  Name = 
REMARK  12 active torsions:
REMARK  status: ('A' for Active; 'I' for Inactive)
REMARK    1  A    between atoms: C_1  and  C_2
REMARK    2  A    between atoms: C_2  and  C_3
REMARK    3  A    between atoms: C_4  and  C_5
REMARK    4  A    between atoms: C_5  and  C_6
REMARK    5  A    between atoms: C_6  and  O_7
REMARK    6  A    between atoms: C_6  and  C_20
REMARK    7  A    between atoms: O_7  and  C_8
REMARK    8  A    between atoms: C_8  and  C_10
REMARK    9  A    between atoms: C_11  and  C_12
REMARK   10  A    between atoms: C_12  and  C_14
REMARK   11  A    between atoms: C_25  and  O_26
REMARK   12  A    between atoms: C_29  and  O_30
REMARK                            x       y       z     vdW  Elec       q    Type
REMARK                         _______ _______ _______ _____ _____    ______ ____
ROOT
ATOM      1  C   UNL     1       2.575   6.251  19.052  0.00  0.00    +0.000 C 
ENDROOT
BRANCH   1   2
ATOM      2  C   UNL     1       2.152   7.703  19.154  0.00  0.00    +0.000 C 
ATOM      3  C   UNL     1       2.227   8.475  18.059  0.00  0.00    +0.000 C 
ATOM      4  C   UNL     1       1.973   9.909  18.120  0.00  0.00    +0.000 C 
ATOM      5  O   UNL     1       2.464  10.681  17.304  0.00  0.00    +0.000 OA
ATOM      6  C   UNL     1       1.056  10.384  19.157  0.00  0.00    +0.000 A 
ATOM      7  C   UNL     1       0.389  11.604  18.979  0.00  0.00    +0.000 A 
ATOM      8  C   UNL     1      -0.655  11.951  19.818  0.00  0.00    +0.000 A 
ATOM      9  C   UNL     1      -1.018  11.086  20.853  0.00  0.00    +0.000 A 
ATOM     10  C   UNL     1      -0.295   9.901  21.076  0.00  0.00    +0.000 A 
ATOM     11  C   UNL     1       0.767   9.541  20.233  0.00  0.00    +0.000 A 
ATOM     12  C   UNL     1       1.617   8.317  20.411  0.00  0.00    +0.000 C 
ATOM     13  O   UNL     1       1.923   7.871  21.506  0.00  0.00    +0.000 OA
BRANCH   7  14
ATOM     14  O   UNL     1       0.705  12.487  17.983  0.00  0.00    +0.000 OA
ATOM     15  H   UNL     1      -0.057  13.099  17.859  0.00  0.00    +0.000 HD
ENDBRANCH   7  14
BRANCH  10  16
ATOM     16  O   UNL     1      -0.695   9.078  22.090  0.00  0.00    +0.000 OA
ATOM     17  H   UNL     1      -1.666   9.100  22.162  0.00  0.00    +0.000 HD
ENDBRANCH  10  16
ENDBRANCH   1   2
BRANCH   1  18
ATOM     18  C   UNL     1       1.561   5.080  18.881  0.00  0.00    +0.000 C 
BRANCH  18  22
ATOM     19  C   UNL     1       1.407   2.441  21.836  0.00  0.00    +0.000 C 
ATOM     20  C   UNL     1       1.602   3.008  20.448  0.00  0.00    +0.000 C 
ATOM     21  C   UNL     1       2.015   2.029  19.386  0.00  0.00    +0.000 C 
ATOM     22  C   UNL     1       1.373   4.316  20.199  0.00  0.00    +0.000 C 
ENDBRANCH  18  22
ENDBRANCH   1  18
BRANCH   1  23
ATOM     23  O   UNL     1       3.647   6.062  18.091  0.00  0.00    +0.000 OA
BRANCH  23  24
ATOM     24  C   UNL     1       4.708   5.334  18.508  0.00  0.00    +0.000 C 
ATOM     25  O   UNL     1       5.631   5.720  19.202  0.00  0.00    +0.000 OA
BRANCH  24  26
ATOM     26  C   UNL     1       4.671   4.071  17.746  0.00  0.00    +0.000 C 
ATOM     27  C   UNL     1       5.056   3.949  16.470  0.00  0.00    +0.000 C 
BRANCH  27  28
ATOM     28  C   UNL     1       5.822   4.973  15.714  0.00  0.00    +0.000 C 
ATOM     29  O   UNL     1       6.279   5.970  16.260  0.00  0.00    +0.000 OA
BRANCH  28  30
ATOM     30  C   UNL     1       6.188   4.633  14.315  0.00  0.00    +0.000 A 
ATOM     31  C   UNL     1       5.464   3.707  13.561  0.00  0.00    +0.000 A 
ATOM     32  C   UNL     1       5.905   3.363  12.280  0.00  0.00    +0.000 A 
ATOM     33  C   UNL     1       7.062   3.940  11.758  0.00  0.00    +0.000 A 
ATOM     34  C   UNL     1       7.768   4.888  12.497  0.00  0.00    +0.000 A 
ATOM     35  C   UNL     1       7.331   5.243  13.768  0.00  0.00    +0.000 A 
ENDBRANCH  28  30
ENDBRANCH  27  28
ENDBRANCH  24  26
ENDBRANCH  23  24
ENDBRANCH   1  23
TORSDOF 10
ENDMDL
MODEL 8
REMARK VINA RESULT:      -8.1      0.885      1.315
REMARK  Name = 
REMARK  12 active torsions:
REMARK  status: ('A' for Active; 'I' for Inactive)
REMARK    1  A    between atoms: C_1  and  C_2
REMARK    2  A    between atoms: C_2  and  C_3
REMARK    3  A    between atoms: C_4  and  C_5
REMARK    4  A    between atoms: C_5  and  C_6
REMARK    5  A    between atoms: C_6  and  O_7
REMARK    6  A    between atoms: C_6  and  C_20
REMARK    7  A    between atoms: O_7  and  C_8
REMARK    8  A    between atoms: C_8  and  C_10
REMARK    9  A    between atoms: C_11  and  C_12
REMARK   10  A    between atoms: C_12  and  C_14
REMARK   11  A    between atoms: C_25  and  O_26
REMARK   12  A    between atoms: C_29  and  O_30
REMARK                            x       y       z     vdW  Elec       q    Type
REMARK                         _______ _______ _______ _____ _____    ______ ____
ROOT
ATOM      1  C   UNL     1       2.617   6.109  18.772  0.00  0.00    +0.000 C 
ENDROOT
BRANCH   1   2
ATOM      2  C   UNL     1       2.220   7.561  18.951  0.00  0.00    +0.000 C 
ATOM      3  C   UNL     1       2.313   8.390  17.900  0.00  0.00    +0.000 C 
ATOM      4  C   UNL     1       2.083   9.823  18.038  0.00  0.00    +0.000 C 
ATOM      5  O   UNL     1       2.591  10.629  17.266  0.00  0.00    +0.000 OA
ATOM      6  C   UNL     1       1.172  10.258  19.097  0.00  0.00    +0.000 A 
ATOM      7  C   UNL     1       0.527  11.497  18.983  0.00  0.00    +0.000 A 
ATOM      8  C   UNL     1      -0.514  11.817  19.838  0.00  0.00    +0.000 A 
ATOM      9  C   UNL     1      -0.896  10.904  20.823  0.00  0.00    +0.000 A 
ATOM     10  C   UNL     1      -0.195   9.696  20.983  0.00  0.00    +0.000 A 
ATOM     11  C   UNL     1       0.864   9.363  20.124  0.00  0.00    +0.000 A 
ATOM     12  C   UNL     1       1.691   8.116  20.238  0.00  0.00    +0.000 C 
ATOM     13  O   UNL     1       1.985   7.606  21.308  0.00  0.00    +0.000 OA
BRANCH   7  14
ATOM     14  O   UNL     1       0.862  12.427  18.038  0.00  0.00    +0.000 OA
ATOM     15  H   UNL     1       1.693  12.873  18.322  0.00  0.00    +0.000 HD
ENDBRANCH   7  14
BRANCH  10  16
ATOM     16  O   UNL     1      -0.613   8.826  21.950  0.00  0.00    +0.000 OA
ATOM     17  H   UNL     1      -1.447   8.407  21.672  0.00  0.00    +0.000 HD
ENDBRANCH  10  16
ENDBRANCH   1   2
BRANCH   1  18
ATOM     18  C   UNL     1       1.587   4.940  18.771  0.00  0.00    +0.000 C 
BRANCH  18  22
ATOM     19  C   UNL     1       1.505   2.482  21.881  0.00  0.00    +0.000 C 
ATOM     20  C   UNL     1       1.541   2.954  20.444  0.00  0.00    +0.000 C 
ATOM     21  C   UNL     1       1.568   1.877  19.397  0.00  0.00    +0.000 C 
ATOM     22  C   UNL     1       1.510   4.271  20.150  0.00  0.00    +0.000 C 
ENDBRANCH  18  22
ENDBRANCH   1  18
BRANCH   1  23
ATOM     23  O   UNL     1       3.509   5.925  17.641  0.00  0.00    +0.000 OA
BRANCH  23  24
ATOM     24  C   UNL     1       3.763   4.647  17.276  0.00  0.00    +0.000 C 
ATOM     25  O   UNL     1       2.963   3.840  16.840  0.00  0.00    +0.000 OA
BRANCH  24  26
ATOM     26  C   UNL     1       5.124   4.340  17.756  0.00  0.00    +0.000 C 
ATOM     27  C   UNL     1       6.245   4.657  17.098  0.00  0.00    +0.000 C 
BRANCH  27  28
ATOM     28  C   UNL     1       6.314   5.589  15.943  0.00  0.00    +0.000 C 
ATOM     29  O   UNL     1       6.342   6.804  16.096  0.00  0.00    +0.000 OA
BRANCH  28  30
ATOM     30  C   UNL     1       6.559   4.981  14.610  0.00  0.00    +0.000 A 
ATOM     31  C   UNL     1       7.625   5.374  13.798  0.00  0.00    +0.000 A 
ATOM     32  C   UNL     1       7.757   4.828  12.518  0.00  0.00    +0.000 A 
ATOM     33  C   UNL     1       6.828   3.898  12.053  0.00  0.00    +0.000 A 
ATOM     34  C   UNL     1       5.782   3.481  12.875  0.00  0.00    +0.000 A 
ATOM     35  C   UNL     1       5.649   4.011  14.153  0.00  0.00    +0.000 A 
ENDBRANCH  28  30
ENDBRANCH  27  28
ENDBRANCH  24  26
ENDBRANCH  23  24
ENDBRANCH   1  23
TORSDOF 10
ENDMDL
MODEL 9
REMARK VINA RESULT:      -8.0      0.924      1.510
REMARK  Name = 
REMARK  12 active torsions:
REMARK  status: ('A' for Active; 'I' for Inactive)
REMARK    1  A    between atoms: C_1  and  C_2
REMARK    2  A    between atoms: C_2  and  C_3
REMARK    3  A    between atoms: C_4  and  C_5
REMARK    4  A    between atoms: C_5  and  C_6
REMARK    5  A    between atoms: C_6  and  O_7
REMARK    6  A    between atoms: C_6  and  C_20
REMARK    7  A    between atoms: O_7  and  C_8
REMARK    8  A    between atoms: C_8  and  C_10
REMARK    9  A    between atoms: C_11  and  C_12
REMARK   10  A    between atoms: C_12  and  C_14
REMARK   11  A    between atoms: C_25  and  O_26
REMARK   12  A    between atoms: C_29  and  O_30
REMARK                            x       y       z     vdW  Elec       q    Type
REMARK                         _______ _______ _______ _____ _____    ______ ____
ROOT
ATOM      1  C   UNL     1       2.728   5.953  18.311  0.00  0.00    +0.000 C 
ENDROOT
BRANCH   1   2
ATOM      2  C   UNL     1       2.316   7.377  18.631  0.00  0.00    +0.000 C 
ATOM      3  C   UNL     1       2.382   8.300  17.660  0.00  0.00    +0.000 C 
ATOM      4  C   UNL     1       2.138   9.711  17.933  0.00  0.00    +0.000 C 
ATOM      5  O   UNL     1       2.623  10.592  17.231  0.00  0.00    +0.000 OA
ATOM      6  C   UNL     1       1.240  10.034  19.041  0.00  0.00    +0.000 A 
ATOM      7  C   UNL     1       0.578  11.270  19.054  0.00  0.00    +0.000 A 
ATOM      8  C   UNL     1      -0.452  11.496  19.950  0.00  0.00    +0.000 A 
ATOM      9  C   UNL     1      -0.806  10.491  20.853  0.00  0.00    +0.000 A 
ATOM     10  C   UNL     1      -0.089   9.282  20.889  0.00  0.00    +0.000 A 
ATOM     11  C   UNL     1       0.959   9.045  19.987  0.00  0.00    +0.000 A 
ATOM     12  C   UNL     1       1.803   7.803  19.971  0.00  0.00    +0.000 C 
ATOM     13  O   UNL     1       2.121   7.201  20.985  0.00  0.00    +0.000 OA
BRANCH   7  14
ATOM     14  O   UNL     1       0.886  12.287  18.193  0.00  0.00    +0.000 OA
ATOM     15  H   UNL     1       1.724  12.707  18.496  0.00  0.00    +0.000 HD
ENDBRANCH   7  14
BRANCH  10  16
ATOM     16  O   UNL     1      -0.480   8.322  21.778  0.00  0.00    +0.000 OA
ATOM     17  H   UNL     1       0.214   7.643  21.849  0.00  0.00    +0.000 HD
ENDBRANCH  10  16
ENDBRANCH   1   2
BRANCH   1  18
ATOM     18  C   UNL     1       1.714   4.852  17.876  0.00  0.00    +0.000 C 
BRANCH  18  22
ATOM     19  C   UNL     1       3.498   1.344  18.346  0.00  0.00    +0.000 C 
ATOM     20  C   UNL     1       2.885   2.683  18.691  0.00  0.00    +0.000 C 
ATOM     21  C   UNL     1       2.887   3.054  20.147  0.00  0.00    +0.000 C 
ATOM     22  C   UNL     1       2.408   3.493  17.722  0.00  0.00    +0.000 C 
ENDBRANCH  18  22
ENDBRANCH   1  18
BRANCH   1  23
ATOM     23  O   UNL     1       3.862   5.904  17.406  0.00  0.00    +0.000 OA
BRANCH  23  24
ATOM     24  C   UNL     1       5.089   5.974  17.973  0.00  0.00    +0.000 C 
ATOM     25  O   UNL     1       5.658   6.979  18.359  0.00  0.00    +0.000 OA
BRANCH  24  26
ATOM     26  C   UNL     1       5.707   4.648  17.791  0.00  0.00    +0.000 C 
ATOM     27  C   UNL     1       6.398   4.281  16.706  0.00  0.00    +0.000 C 
BRANCH  27  28
ATOM     28  C   UNL     1       6.879   5.212  15.652  0.00  0.00    +0.000 C 
ATOM     29  O   UNL     1       7.438   6.266  15.929  0.00  0.00    +0.000 OA
BRANCH  28  30
ATOM     30  C   UNL     1       6.839   4.713  14.253  0.00  0.00    +0.000 A 
ATOM     31  C   UNL     1       7.680   5.217  13.260  0.00  0.00    +0.000 A 
ATOM     32  C   UNL     1       7.540   4.771  11.943  0.00  0.00    +0.000 A 
ATOM     33  C   UNL     1       6.565   3.827  11.622  0.00  0.00    +0.000 A 
ATOM     34  C   UNL     1       5.747   3.299  12.619  0.00  0.00    +0.000 A 
ATOM     35  C   UNL     1       5.886   3.730  13.933  0.00  0.00    +0.000 A 
ENDBRANCH  28  30
ENDBRANCH  27  28
ENDBRANCH  24  26
ENDBRANCH  23  24
ENDBRANCH   1  23
TORSDOF 10
ENDMDL
