MODEL 1
REMARK VINA RESULT:      -7.9      0.000      0.000
REMARK  Name = 
REMARK  4 active torsions:
REMARK  status: ('A' for Active; 'I' for Inactive)
REMARK    1  A    between atoms: C_1  and  C_2
REMARK    2  A    between atoms: C_6  and  C_7
REMARK    3  A    between atoms: C_17  and  C_18
REMARK    4  A    between atoms: C_18  and  C_20
REMARK                            x       y       z     vdW  Elec       q    Type
REMARK                         _______ _______ _______ _____ _____    ______ ____
ROOT
ATOM      1  C   UNL     1       2.240  11.524  18.178  0.00  0.00    +0.000 C 
ATOM      2  C   UNL     1       1.920  10.051  18.120  0.00  0.00    +0.000 C 
ATOM      3  O   UNL     1       2.333   9.401  17.145  0.00  0.00    +0.000 OA
ATOM      4  N   UNL     1       1.390   9.397  19.237  0.00  0.00    +0.000 N 
ATOM      5  N   UNL     1       1.845   8.061  19.284  0.00  0.00    +0.000 N 
ATOM      6  C   UNL     1       1.669   7.215  20.336  0.00  0.00    +0.000 C 
ATOM      7  C   UNL     1       1.064   7.586  21.466  0.00  0.00    +0.000 C 
ATOM      8  C   UNL     1       0.557   8.975  21.552  0.00  0.00    +0.000 C 
ATOM      9  O   UNL     1       0.056   9.356  22.609  0.00  0.00    +0.000 OA
ATOM     10  C   UNL     1       0.625   9.848  20.309  0.00  0.00    +0.000 C 
ATOM     11  C   UNL     1      -0.195  10.917  20.393  0.00  0.00    +0.000 C 
ATOM     12  H   UNL     1       2.168   7.687  18.385  0.00  0.00    +0.000 HD
ENDROOT
BRANCH   6  13
ATOM     13  C   UNL     1       2.179   5.842  20.192  0.00  0.00    +0.000 A 
ATOM     14  C   UNL     1       3.407   5.609  19.566  0.00  0.00    +0.000 A 
ATOM     15  C   UNL     1       3.887   4.305  19.415  0.00  0.00    +0.000 A 
ATOM     16  C   UNL     1       3.142   3.227  19.890  0.00  0.00    +0.000 A 
ATOM     17  C   UNL     1       1.920   3.451  20.526  0.00  0.00    +0.000 A 
ATOM     18  C   UNL     1       1.439   4.754  20.677  0.00  0.00    +0.000 A 
ENDBRANCH   6  13
BRANCH  11  19
ATOM     19  C   UNL     1      -0.667  11.723  19.242  0.00  0.00    +0.000 C 
ATOM     20  O   UNL     1      -0.201  12.829  19.022  0.00  0.00    +0.000 OA
BRANCH  19  21
ATOM     21  C   UNL     1      -1.751  11.199  18.367  0.00  0.00    +0.000 A 
ATOM     22  C   UNL     1      -3.027  11.761  18.534  0.00  0.00    +0.000 A 
ATOM     23  C   UNL     1      -4.087  11.375  17.714  0.00  0.00    +0.000 A 
ATOM     24  C   UNL     1      -3.877  10.426  16.716  0.00  0.00    +0.000 A 
ATOM     25  C   UNL     1      -2.618   9.849  16.555  0.00  0.00    +0.000 A 
ATOM     26  C   UNL     1      -1.554  10.227  17.381  0.00  0.00    +0.000 A 
ENDBRANCH  19  21
ENDBRANCH  11  19
TORSDOF 3
ENDMDL
MODEL 2
REMARK VINA RESULT:      -7.8      0.509      1.074
REMARK  Name = 
REMARK  4 active torsions:
REMARK  status: ('A' for Active; 'I' for Inactive)
REMARK    1  A    between atoms: C_1  and  C_2
REMARK    2  A    between atoms: C_6  and  C_7
REMARK    3  A    between atoms: C_17  and  C_18
REMARK    4  A    between atoms: C_18  and  C_20
REMARK                            x       y       z     vdW  Elec       q    Type
REMARK                         _______ _______ _______ _____ _____    ______ ____
ROOT
ATOM      1  C   UNL     1       1.818  12.017  18.639  0.00  0.00    +0.000 C 
ATOM      2  C   UNL     1       1.680  10.533  18.411  0.00  0.00    +0.000 C 
ATOM      3  O   UNL     1       2.239  10.039  17.417  0.00  0.00    +0.000 OA
ATOM      4  N   UNL     1       1.149   9.709  19.410  0.00  0.00    +0.000 N 
ATOM      5  N   UNL     1       1.755   8.434  19.366  0.00  0.00    +0.000 N 
ATOM      6  C   UNL     1       1.603   7.467  20.312  0.00  0.00    +0.000 C 
ATOM      7  C   UNL     1       0.875   7.646  21.416  0.00  0.00    +0.000 C 
ATOM      8  C   UNL     1       0.202   8.954  21.592  0.00  0.00    +0.000 C 
ATOM      9  O   UNL     1      -0.418   9.163  22.634  0.00  0.00    +0.000 OA
ATOM     10  C   UNL     1       0.258   9.956  20.450  0.00  0.00    +0.000 C 
ATOM     11  C   UNL     1      -0.686  10.913  20.566  0.00  0.00    +0.000 C 
ATOM     12  H   UNL     1       2.186   8.195  18.466  0.00  0.00    +0.000 HD
ENDROOT
BRANCH   6  13
ATOM     13  C   UNL     1       2.281   6.181  20.080  0.00  0.00    +0.000 A 
ATOM     14  C   UNL     1       1.864   5.032  20.760  0.00  0.00    +0.000 A 
ATOM     15  C   UNL     1       2.515   3.814  20.553  0.00  0.00    +0.000 A 
ATOM     16  C   UNL     1       3.586   3.736  19.664  0.00  0.00    +0.000 A 
ATOM     17  C   UNL     1       4.002   4.874  18.973  0.00  0.00    +0.000 A 
ATOM     18  C   UNL     1       3.352   6.094  19.179  0.00  0.00    +0.000 A 
ENDBRANCH   6  13
BRANCH  11  19
ATOM     19  C   UNL     1      -1.163  11.780  19.463  0.00  0.00    +0.000 C 
ATOM     20  O   UNL     1      -0.852  12.959  19.416  0.00  0.00    +0.000 OA
BRANCH  19  21
ATOM     21  C   UNL     1      -2.066  11.221  18.420  0.00  0.00    +0.000 A 
ATOM     22  C   UNL     1      -3.401  11.659  18.435  0.00  0.00    +0.000 A 
ATOM     23  C   UNL     1      -4.299  11.236  17.457  0.00  0.00    +0.000 A 
ATOM     24  C   UNL     1      -3.870  10.372  16.452  0.00  0.00    +0.000 A 
ATOM     25  C   UNL     1      -2.552   9.916  16.440  0.00  0.00    +0.000 A 
ATOM     26  C   UNL     1      -1.649  10.332  17.424  0.00  0.00    +0.000 A 
ENDBRANCH  19  21
ENDBRANCH  11  19
TORSDOF 3
ENDMDL
MODEL 3
REMARK VINA RESULT:      -7.6      0.315      1.399
REMARK  Name = 
REMARK  4 active torsions:
REMARK  status: ('A' for Active; 'I' for Inactive)
REMARK    1  A    between atoms: C_1  and  C_2
REMARK    2  A    between atoms: C_6  and  C_7
REMARK    3  A    between atoms: C_17  and  C_18
REMARK    4  A    between atoms: C_18  and  C_20
REMARK                            x       y       z     vdW  Elec       q    Type
REMARK                         _______ _______ _______ _____ _____    ______ ____
ROOT
ATOM      1  C   UNL     1       2.336  11.405  18.083  0.00  0.00    +0.000 C 
ATOM      2  C   UNL     1       1.926   9.954  18.079  0.00  0.00    +0.000 C 
ATOM      3  O   UNL     1       2.218   9.266  17.087  0.00  0.00    +0.000 OA
ATOM      4  N   UNL     1       1.452   9.349  19.248  0.00  0.00    +0.000 N 
ATOM      5  N   UNL     1       1.829   7.989  19.284  0.00  0.00    +0.000 N 
ATOM      6  C   UNL     1       1.691   7.170  20.363  0.00  0.00    +0.000 C 
ATOM      7  C   UNL     1       1.204   7.593  21.531  0.00  0.00    +0.000 C 
ATOM      8  C   UNL     1       0.788   9.011  21.631  0.00  0.00    +0.000 C 
ATOM      9  O   UNL     1       0.400   9.437  22.717  0.00  0.00    +0.000 OA
ATOM     10  C   UNL     1       0.805   9.861  20.370  0.00  0.00    +0.000 C 
ATOM     11  C   UNL     1       0.060  10.978  20.499  0.00  0.00    +0.000 C 
ATOM     12  H   UNL     1       2.054   7.583  18.369  0.00  0.00    +0.000 HD
ENDROOT
BRANCH   6  13
ATOM     13  C   UNL     1       2.105   5.766  20.204  0.00  0.00    +0.000 A 
ATOM     14  C   UNL     1       1.231   4.731  20.553  0.00  0.00    +0.000 A 
ATOM     15  C   UNL     1       1.626   3.398  20.417  0.00  0.00    +0.000 A 
ATOM     16  C   UNL     1       2.896   3.092  19.932  0.00  0.00    +0.000 A 
ATOM     17  C   UNL     1       3.771   4.117  19.572  0.00  0.00    +0.000 A 
ATOM     18  C   UNL     1       3.377   5.451  19.707  0.00  0.00    +0.000 A 
ENDBRANCH   6  13
BRANCH  11  19
ATOM     19  C   UNL     1      -0.456  11.795  19.376  0.00  0.00    +0.000 C 
ATOM     20  O   UNL     1       0.111  12.821  19.037  0.00  0.00    +0.000 OA
BRANCH  19  21
ATOM     21  C   UNL     1      -1.704  11.385  18.676  0.00  0.00    +0.000 A 
ATOM     22  C   UNL     1      -1.594  10.340  17.743  0.00  0.00    +0.000 A 
ATOM     23  C   UNL     1      -2.723   9.851  17.088  0.00  0.00    +0.000 A 
ATOM     24  C   UNL     1      -3.974  10.400  17.363  0.00  0.00    +0.000 A 
ATOM     25  C   UNL     1      -4.090  11.450  18.272  0.00  0.00    +0.000 A 
ATOM     26  C   UNL     1      -2.958  11.950  18.926  0.00  0.00    +0.000 A 
ENDBRANCH  19  21
ENDBRANCH  11  19
TORSDOF 3
ENDMDL
MODEL 4
REMARK VINA RESULT:      -7.6      0.442      1.055
REMARK  Name = 
REMARK  4 active torsions:
REMARK  status: ('A' for Active; 'I' for Inactive)
REMARK    1  A    between atoms: C_1  and  C_2
REMARK    2  A    between atoms: C_6  and  C_7
REMARK    3  A    between atoms: C_17  and  C_18
REMARK    4  A    between atoms: C_18  and  C_20
REMARK                            x       y       z     vdW  Elec       q    Type
REMARK                         _______ _______ _______ _____ _____    ______ ____
ROOT
ATOM      1  C   UNL     1       1.951  11.978  18.528  0.00  0.00    +0.000 C 
ATOM      2  C   UNL     1       1.747  10.496  18.339  0.00  0.00    +0.000 C 
ATOM      3  O   UNL     1       2.248   9.960  17.336  0.00  0.00    +0.000 OA
ATOM      4  N   UNL     1       1.222   9.715  19.374  0.00  0.00    +0.000 N 
ATOM      5  N   UNL     1       1.775   8.416  19.337  0.00  0.00    +0.000 N 
ATOM      6  C   UNL     1       1.622   7.476  20.309  0.00  0.00    +0.000 C 
ATOM      7  C   UNL     1       0.944   7.707  21.435  0.00  0.00    +0.000 C 
ATOM      8  C   UNL     1       0.329   9.044  21.606  0.00  0.00    +0.000 C 
ATOM      9  O   UNL     1      -0.243   9.300  22.665  0.00  0.00    +0.000 OA
ATOM     10  C   UNL     1       0.381  10.019  20.441  0.00  0.00    +0.000 C 
ATOM     11  C   UNL     1      -0.520  11.015  20.570  0.00  0.00    +0.000 C 
ATOM     12  H   UNL     1       2.163   8.142  18.427  0.00  0.00    +0.000 HD
ENDROOT
BRANCH   6  13
ATOM     13  C   UNL     1       2.240   6.160  20.082  0.00  0.00    +0.000 A 
ATOM     14  C   UNL     1       3.222   6.004  19.098  0.00  0.00    +0.000 A 
ATOM     15  C   UNL     1       3.800   4.753  18.870  0.00  0.00    +0.000 A 
ATOM     16  C   UNL     1       3.401   3.651  19.624  0.00  0.00    +0.000 A 
ATOM     17  C   UNL     1       2.429   3.798  20.614  0.00  0.00    +0.000 A 
ATOM     18  C   UNL     1       1.849   5.049  20.843  0.00  0.00    +0.000 A 
ENDBRANCH   6  13
BRANCH  11  19
ATOM     19  C   UNL     1      -1.004  11.877  19.466  0.00  0.00    +0.000 C 
ATOM     20  O   UNL     1      -0.593  13.019  19.339  0.00  0.00    +0.000 OA
BRANCH  19  21
ATOM     21  C   UNL     1      -2.034  11.363  18.523  0.00  0.00    +0.000 A 
ATOM     22  C   UNL     1      -1.600  10.457  17.541  0.00  0.00    +0.000 A 
ATOM     23  C   UNL     1      -2.509   9.878  16.656  0.00  0.00    +0.000 A 
ATOM     24  C   UNL     1      -3.862  10.196  16.750  0.00  0.00    +0.000 A 
ATOM     25  C   UNL     1      -4.300  11.108  17.709  0.00  0.00    +0.000 A 
ATOM     26  C   UNL     1      -3.390  11.699  18.593  0.00  0.00    +0.000 A 
ENDBRANCH  19  21
ENDBRANCH  11  19
TORSDOF 3
ENDMDL
MODEL 5
REMARK VINA RESULT:      -7.5      2.815      4.361
REMARK  Name = 
REMARK  4 active torsions:
REMARK  status: ('A' for Active; 'I' for Inactive)
REMARK    1  A    between atoms: C_1  and  C_2
REMARK    2  A    between atoms: C_6  and  C_7
REMARK    3  A    between atoms: C_17  and  C_18
REMARK    4  A    between atoms: C_18  and  C_20
REMARK                            x       y       z     vdW  Elec       q    Type
REMARK                         _______ _______ _______ _____ _____    ______ ____
ROOT
ATOM      1  C   UNL     1      -0.791  10.138  23.173  0.00  0.00    +0.000 C 
ATOM      2  C   UNL     1       0.469   9.827  22.405  0.00  0.00    +0.000 C 
ATOM      3  O   UNL     1       1.397   9.262  23.007  0.00  0.00    +0.000 OA
ATOM      4  N   UNL     1       0.497   9.951  21.012  0.00  0.00    +0.000 N 
ATOM      5  N   UNL     1       1.362   8.985  20.452  0.00  0.00    +0.000 N 
ATOM      6  C   UNL     1       1.469   8.714  19.122  0.00  0.00    +0.000 C 
ATOM      7  C   UNL     1       0.726   9.326  18.199  0.00  0.00    +0.000 C 
ATOM      8  C   UNL     1      -0.239  10.351  18.661  0.00  0.00    +0.000 C 
ATOM      9  O   UNL     1      -0.980  10.879  17.833  0.00  0.00    +0.000 OA
ATOM     10  C   UNL     1      -0.227  10.747  20.129  0.00  0.00    +0.000 C 
ATOM     11  C   UNL     1      -0.851  11.924  20.343  0.00  0.00    +0.000 C 
ATOM     12  H   UNL     1       2.062   8.609  21.101  0.00  0.00    +0.000 HD
ENDROOT
BRANCH   6  13
ATOM     13  C   UNL     1       2.454   7.698  18.716  0.00  0.00    +0.000 A 
ATOM     14  C   UNL     1       3.254   7.903  17.587  0.00  0.00    +0.000 A 
ATOM     15  C   UNL     1       4.179   6.934  17.192  0.00  0.00    +0.000 A 
ATOM     16  C   UNL     1       4.311   5.755  17.922  0.00  0.00    +0.000 A 
ATOM     17  C   UNL     1       3.525   5.545  19.056  0.00  0.00    +0.000 A 
ATOM     18  C   UNL     1       2.599   6.513  19.453  0.00  0.00    +0.000 A 
ENDBRANCH   6  13
BRANCH  11  19
ATOM     19  C   UNL     1      -0.678  12.775  21.544  0.00  0.00    +0.000 C 
ATOM     20  O   UNL     1       0.429  13.162  21.881  0.00  0.00    +0.000 OA
BRANCH  19  21
ATOM     21  C   UNL     1      -1.860  13.130  22.376  0.00  0.00    +0.000 A 
ATOM     22  C   UNL     1      -3.109  12.661  21.935  0.00  0.00    +0.000 A 
ATOM     23  C   UNL     1      -4.261  12.893  22.687  0.00  0.00    +0.000 A 
ATOM     24  C   UNL     1      -4.172  13.594  23.888  0.00  0.00    +0.000 A 
ATOM     25  C   UNL     1      -2.939  14.079  24.323  0.00  0.00    +0.000 A 
ATOM     26  C   UNL     1      -1.783  13.856  23.568  0.00  0.00    +0.000 A 
ENDBRANCH  19  21
ENDBRANCH  11  19
TORSDOF 3
ENDMDL
MODEL 6
REMARK VINA RESULT:      -7.0      1.062      1.281
REMARK  Name = 
REMARK  4 active torsions:
REMARK  status: ('A' for Active; 'I' for Inactive)
REMARK    1  A    between atoms: C_1  and  C_2
REMARK    2  A    between atoms: C_6  and  C_7
REMARK    3  A    between atoms: C_17  and  C_18
REMARK    4  A    between atoms: C_18  and  C_20
REMARK                            x       y       z     vdW  Elec       q    Type
REMARK                         _______ _______ _______ _____ _____    ______ ____
ROOT
ATOM      1  C   UNL     1       1.631  12.245  18.878  0.00  0.00    +0.000 C 
ATOM      2  C   UNL     1       1.624  10.810  18.416  0.00  0.00    +0.000 C 
ATOM      3  O   UNL     1       2.157  10.543  17.326  0.00  0.00    +0.000 OA
ATOM      4  N   UNL     1       1.248   9.786  19.292  0.00  0.00    +0.000 N 
ATOM      5  N   UNL     1       1.970   8.607  19.006  0.00  0.00    +0.000 N 
ATOM      6  C   UNL     1       1.980   7.491  19.786  0.00  0.00    +0.000 C 
ATOM      7  C   UNL     1       1.318   7.414  20.942  0.00  0.00    +0.000 C 
ATOM      8  C   UNL     1       0.534   8.597  21.367  0.00  0.00    +0.000 C 
ATOM      9  O   UNL     1      -0.029   8.570  22.461  0.00  0.00    +0.000 OA
ATOM     10  C   UNL     1       0.412   9.767  20.405  0.00  0.00    +0.000 C 
ATOM     11  C   UNL     1      -0.611  10.586  20.727  0.00  0.00    +0.000 C 
ATOM     12  H   UNL     1       2.359   8.562  18.058  0.00  0.00    +0.000 HD
ENDROOT
BRANCH   6  13
ATOM     13  C   UNL     1       2.763   6.339  19.310  0.00  0.00    +0.000 A 
ATOM     14  C   UNL     1       3.378   6.377  18.054  0.00  0.00    +0.000 A 
ATOM     15  C   UNL     1       4.109   5.279  17.593  0.00  0.00    +0.000 A 
ATOM     16  C   UNL     1       4.231   4.139  18.385  0.00  0.00    +0.000 A 
ATOM     17  C   UNL     1       3.630   4.096  19.643  0.00  0.00    +0.000 A 
ATOM     18  C   UNL     1       2.898   5.192  20.105  0.00  0.00    +0.000 A 
ENDBRANCH   6  13
BRANCH  11  19
ATOM     19  C   UNL     1      -1.247  11.560  19.809  0.00  0.00    +0.000 C 
ATOM     20  O   UNL     1      -1.226  12.756  20.055  0.00  0.00    +0.000 OA
BRANCH  19  21
ATOM     21  C   UNL     1      -1.956  11.077  18.593  0.00  0.00    +0.000 A 
ATOM     22  C   UNL     1      -1.846  11.869  17.438  0.00  0.00    +0.000 A 
ATOM     23  C   UNL     1      -2.426  11.460  16.238  0.00  0.00    +0.000 A 
ATOM     24  C   UNL     1      -3.119  10.252  16.182  0.00  0.00    +0.000 A 
ATOM     25  C   UNL     1      -3.250   9.469  17.328  0.00  0.00    +0.000 A 
ATOM     26  C   UNL     1      -2.677   9.880  18.537  0.00  0.00    +0.000 A 
ENDBRANCH  19  21
ENDBRANCH  11  19
TORSDOF 3
ENDMDL
MODEL 7
REMARK VINA RESULT:      -7.0      2.407      3.769
REMARK  Name = 
REMARK  4 active torsions:
REMARK  status: ('A' for Active; 'I' for Inactive)
REMARK    1  A    between atoms: C_1  and  C_2
REMARK    2  A    between atoms: C_6  and  C_7
REMARK    3  A    between atoms: C_17  and  C_18
REMARK    4  A    between atoms: C_18  and  C_20
REMARK                            x       y       z     vdW  Elec       q    Type
REMARK                         _______ _______ _______ _____ _____    ______ ____
ROOT
ATOM      1  C   UNL     1      -0.926  14.541  19.717  0.00  0.00    +0.000 C 
ATOM      2  C   UNL     1      -0.804  13.120  19.227  0.00  0.00    +0.000 C 
ATOM      3  O   UNL     1      -0.549  12.935  18.025  0.00  0.00    +0.000 OA
ATOM      4  N   UNL     1      -0.740  12.060  20.138  0.00  0.00    +0.000 N 
ATOM      5  N   UNL     1       0.075  11.025  19.628  0.00  0.00    +0.000 N 
ATOM      6  C   UNL     1       0.495   9.943  20.339  0.00  0.00    +0.000 C 
ATOM      7  C   UNL     1       0.197   9.767  21.628  0.00  0.00    +0.000 C 
ATOM      8  C   UNL     1      -0.639  10.797  22.288  0.00  0.00    +0.000 C 
ATOM      9  O   UNL     1      -0.869  10.688  23.492  0.00  0.00    +0.000 OA
ATOM     10  C   UNL     1      -1.224  11.910  21.434  0.00  0.00    +0.000 C 
ATOM     11  C   UNL     1      -2.249  12.537  22.048  0.00  0.00    +0.000 C 
ATOM     12  H   UNL     1       0.192  11.035  18.609  0.00  0.00    +0.000 HD
ENDROOT
BRANCH   6  13
ATOM     13  C   UNL     1       1.310   8.942  19.631  0.00  0.00    +0.000 A 
ATOM     14  C   UNL     1       1.684   9.153  18.300  0.00  0.00    +0.000 A 
ATOM     15  C   UNL     1       2.445   8.199  17.621  0.00  0.00    +0.000 A 
ATOM     16  C   UNL     1       2.838   7.029  18.268  0.00  0.00    +0.000 A 
ATOM     17  C   UNL     1       2.479   6.815  19.599  0.00  0.00    +0.000 A 
ATOM     18  C   UNL     1       1.717   7.768  20.280  0.00  0.00    +0.000 A 
ENDBRANCH   6  13
BRANCH  11  19
ATOM     19  C   UNL     1      -3.273  13.365  21.369  0.00  0.00    +0.000 C 
ATOM     20  O   UNL     1      -3.195  14.583  21.374  0.00  0.00    +0.000 OA
BRANCH  19  21
ATOM     21  C   UNL     1      -4.435  12.711  20.707  0.00  0.00    +0.000 A 
ATOM     22  C   UNL     1      -4.250  12.281  19.382  0.00  0.00    +0.000 A 
ATOM     23  C   UNL     1      -5.264  11.602  18.708  0.00  0.00    +0.000 A 
ATOM     24  C   UNL     1      -6.471  11.344  19.354  0.00  0.00    +0.000 A 
ATOM     25  C   UNL     1      -6.670  11.785  20.662  0.00  0.00    +0.000 A 
ATOM     26  C   UNL     1      -5.658  12.473  21.340  0.00  0.00    +0.000 A 
ENDBRANCH  19  21
ENDBRANCH  11  19
TORSDOF 3
ENDMDL
MODEL 8
REMARK VINA RESULT:      -7.0      2.080      2.957
REMARK  Name = 
REMARK  4 active torsions:
REMARK  status: ('A' for Active; 'I' for Inactive)
REMARK    1  A    between atoms: C_1  and  C_2
REMARK    2  A    between atoms: C_6  and  C_7
REMARK    3  A    between atoms: C_17  and  C_18
REMARK    4  A    between atoms: C_18  and  C_20
REMARK                            x       y       z     vdW  Elec       q    Type
REMARK                         _______ _______ _______ _____ _____    ______ ____
ROOT
ATOM      1  C   UNL     1       0.866  13.734  20.387  0.00  0.00    +0.000 C 
ATOM      2  C   UNL     1       0.682  12.365  19.781  0.00  0.00    +0.000 C 
ATOM      3  O   UNL     1       0.930  12.222  18.572  0.00  0.00    +0.000 OA
ATOM      4  N   UNL     1       0.476  11.250  20.600  0.00  0.00    +0.000 N 
ATOM      5  N   UNL     1       1.054  10.101  20.017  0.00  0.00    +0.000 N 
ATOM      6  C   UNL     1       1.196   8.899  20.641  0.00  0.00    +0.000 C 
ATOM      7  C   UNL     1       0.822   8.694  21.906  0.00  0.00    +0.000 C 
ATOM      8  C   UNL     1       0.217   9.832  22.637  0.00  0.00    +0.000 C 
ATOM      9  O   UNL     1      -0.073   9.683  23.824  0.00  0.00    +0.000 OA
ATOM     10  C   UNL     1      -0.074  11.112  21.871  0.00  0.00    +0.000 C 
ATOM     11  C   UNL     1      -0.952  11.905  22.520  0.00  0.00    +0.000 C 
ATOM     12  H   UNL     1       1.205  10.164  19.005  0.00  0.00    +0.000 HD
ENDROOT
BRANCH   6  13
ATOM     13  C   UNL     1       1.789   7.799  19.864  0.00  0.00    +0.000 A 
ATOM     14  C   UNL     1       1.841   6.507  20.398  0.00  0.00    +0.000 A 
ATOM     15  C   UNL     1       2.417   5.464  19.668  0.00  0.00    +0.000 A 
ATOM     16  C   UNL     1       2.943   5.706  18.401  0.00  0.00    +0.000 A 
ATOM     17  C   UNL     1       2.886   6.988  17.855  0.00  0.00    +0.000 A 
ATOM     18  C   UNL     1       2.311   8.033  18.584  0.00  0.00    +0.000 A 
ENDBRANCH   6  13
BRANCH  11  19
ATOM     19  C   UNL     1      -1.740  12.994  21.897  0.00  0.00    +0.000 C 
ATOM     20  O   UNL     1      -1.436  14.163  22.072  0.00  0.00    +0.000 OA
BRANCH  19  21
ATOM     21  C   UNL     1      -2.942  12.666  21.083  0.00  0.00    +0.000 A 
ATOM     22  C   UNL     1      -4.189  12.777  21.719  0.00  0.00    +0.000 A 
ATOM     23  C   UNL     1      -5.370  12.549  21.014  0.00  0.00    +0.000 A 
ATOM     24  C   UNL     1      -5.314  12.213  19.663  0.00  0.00    +0.000 A 
ATOM     25  C   UNL     1      -4.079  12.083  19.027  0.00  0.00    +0.000 A 
ATOM     26  C   UNL     1      -2.892  12.302  19.734  0.00  0.00    +0.000 A 
ENDBRANCH  19  21
ENDBRANCH  11  19
TORSDOF 3
ENDMDL
MODEL 9
REMARK VINA RESULT:      -7.0      1.079      1.812
REMARK  Name = 
REMARK  4 active torsions:
REMARK  status: ('A' for Active; 'I' for Inactive)
REMARK    1  A    between atoms: C_1  and  C_2
REMARK    2  A    between atoms: C_6  and  C_7
REMARK    3  A    between atoms: C_17  and  C_18
REMARK    4  A    between atoms: C_18  and  C_20
REMARK                            x       y       z     vdW  Elec       q    Type
REMARK                         _______ _______ _______ _____ _____    ______ ____
ROOT
ATOM      1  C   UNL     1       1.549  12.746  19.412  0.00  0.00    +0.000 C 
ATOM      2  C   UNL     1       1.532  11.352  18.836  0.00  0.00    +0.000 C 
ATOM      3  O   UNL     1       2.141  11.152  17.772  0.00  0.00    +0.000 OA
ATOM      4  N   UNL     1       1.055  10.278  19.594  0.00  0.00    +0.000 N 
ATOM      5  N   UNL     1       1.759   9.098  19.269  0.00  0.00    +0.000 N 
ATOM      6  C   UNL     1       1.672   7.925  19.955  0.00  0.00    +0.000 C 
ATOM      7  C   UNL     1       0.918   7.782  21.047  0.00  0.00    +0.000 C 
ATOM      8  C   UNL     1       0.141   8.958  21.506  0.00  0.00    +0.000 C 
ATOM      9  O   UNL     1      -0.507   8.867  22.547  0.00  0.00    +0.000 OA
ATOM     10  C   UNL     1       0.133  10.204  20.635  0.00  0.00    +0.000 C 
ATOM     11  C   UNL     1      -0.885  11.034  20.944  0.00  0.00    +0.000 C 
ATOM     12  H   UNL     1       2.220   9.112  18.353  0.00  0.00    +0.000 HD
ENDROOT
BRANCH   6  13
ATOM     13  C   UNL     1       2.452   6.785  19.448  0.00  0.00    +0.000 A 
ATOM     14  C   UNL     1       2.566   5.616  20.207  0.00  0.00    +0.000 A 
ATOM     15  C   UNL     1       3.318   4.537  19.735  0.00  0.00    +0.000 A 
ATOM     16  C   UNL     1       3.959   4.621  18.500  0.00  0.00    +0.000 A 
ATOM     17  C   UNL     1       3.843   5.778  17.731  0.00  0.00    +0.000 A 
ATOM     18  C   UNL     1       3.091   6.858  18.202  0.00  0.00    +0.000 A 
ENDBRANCH   6  13
BRANCH  11  19
ATOM     19  C   UNL     1      -1.415  12.101  20.062  0.00  0.00    +0.000 C 
ATOM     20  O   UNL     1      -1.145  13.273  20.269  0.00  0.00    +0.000 OA
BRANCH  19  21
ATOM     21  C   UNL     1      -2.320  11.748  18.935  0.00  0.00    +0.000 A 
ATOM     22  C   UNL     1      -1.743  11.072  17.846  0.00  0.00    +0.000 A 
ATOM     23  C   UNL     1      -2.530  10.648  16.776  0.00  0.00    +0.000 A 
ATOM     24  C   UNL     1      -3.901  10.892  16.787  0.00  0.00    +0.000 A 
ATOM     25  C   UNL     1      -4.479  11.579  17.855  0.00  0.00    +0.000 A 
ATOM     26  C   UNL     1      -3.692  12.014  18.927  0.00  0.00    +0.000 A 
ENDBRANCH  19  21
ENDBRANCH  11  19
TORSDOF 3
ENDMDL
