MODEL 1
REMARK VINA RESULT:      -7.0      0.000      0.000
REMARK  Name = 
REMARK  8 active torsions:
REMARK  status: ('A' for Active; 'I' for Inactive)
REMARK    1  A    between atoms: C_1  and  C_2
REMARK    2  A    between atoms: C_2  and  C_3
REMARK    3  A    between atoms: C_3  and  N_4
REMARK    4  A    between atoms: C_5  and  O_6
REMARK    5  A    between atoms: C_9  and  S_10
REMARK    6  A    between atoms: S_10  and  C_11
REMARK    7  A    between atoms: C_11  and  C_12
REMARK    8  A    between atoms: N_14  and  C_15
REMARK                            x       y       z     vdW  Elec       q    Type
REMARK                         _______ _______ _______ _____ _____    ______ ____
ROOT
ATOM      1  C   UNL     1       3.466   3.544  19.626  0.00  0.00    +0.000 C 
ENDROOT
BRANCH   1   2
ATOM      2  C   UNL     1       2.475   4.686  19.454  0.00  0.00    +0.000 C 
ATOM      3  O   UNL     1       1.389   4.500  18.909  0.00  0.00    +0.000 OA
ATOM      4  N   UNL     1       2.937   5.907  19.926  0.00  0.00    +0.000 N 
ATOM      5  H   UNL     1       3.921   5.969  20.169  0.00  0.00    +0.000 HD
BRANCH   4   6
ATOM      6  C   UNL     1       2.243   7.147  19.890  0.00  0.00    +0.000 A 
ATOM      7  C   UNL     1       1.458   7.607  20.953  0.00  0.00    +0.000 A 
ATOM      8  C   UNL     1       0.750   8.808  20.844  0.00  0.00    +0.000 A 
ATOM      9 CL   UNL     1      -0.220   9.351  22.158  0.00  0.00    +0.000 Cl
ATOM     10  C   UNL     1       0.817   9.571  19.681  0.00  0.00    +0.000 A 
ATOM     11  C   UNL     1       1.623   9.146  18.627  0.00  0.00    +0.000 A 
ATOM     12  C   UNL     1       2.340   7.949  18.735  0.00  0.00    +0.000 A 
ATOM     13 CL   UNL     1       3.323   7.465  17.395  0.00  0.00    +0.000 Cl
ENDBRANCH   4   6
ENDBRANCH   1   2
BRANCH   1  14
ATOM     14  S   UNL     1       4.270   3.201  18.030  0.00  0.00    +0.000 S 
BRANCH  14  19
ATOM     15  N   UNL     1       5.940   5.069  16.907  0.00  0.00    +0.000 N 
ATOM     16  C   UNL     1       6.885   5.956  17.358  0.00  0.00    +0.000 A 
ATOM     17  N   UNL     1       7.027   5.829  18.654  0.00  0.00    +0.000 NA
ATOM     18  N   UNL     1       6.154   4.854  19.081  0.00  0.00    +0.000 NA
ATOM     19  C   UNL     1       5.508   4.409  18.028  0.00  0.00    +0.000 A 
BRANCH  16  20
ATOM     20  O   UNL     1       7.562   6.832  16.633  0.00  0.00    +0.000 OA
ATOM     21  H   UNL     1       8.504   6.610  16.633  0.00  0.00    +0.000 HD
ENDBRANCH  16  20
BRANCH  15  22
ATOM     22  C   UNL     1       5.512   4.889  15.539  0.00  0.00    +0.000 C 
BRANCH  22  24
ATOM     23  C   UNL     1       5.997   3.796  13.317  0.00  0.00    +0.000 C 
ATOM     24  C   UNL     1       6.446   3.962  14.759  0.00  0.00    +0.000 C 
ENDBRANCH  22  24
ENDBRANCH  15  22
ENDBRANCH  14  19
ENDBRANCH   1  14
TORSDOF 7
ENDMDL
MODEL 2
REMARK VINA RESULT:      -6.8      1.501      2.553
REMARK  Name = 
REMARK  8 active torsions:
REMARK  status: ('A' for Active; 'I' for Inactive)
REMARK    1  A    between atoms: C_1  and  C_2
REMARK    2  A    between atoms: C_2  and  C_3
REMARK    3  A    between atoms: C_3  and  N_4
REMARK    4  A    between atoms: C_5  and  O_6
REMARK    5  A    between atoms: C_9  and  S_10
REMARK    6  A    between atoms: S_10  and  C_11
REMARK    7  A    between atoms: C_11  and  C_12
REMARK    8  A    between atoms: N_14  and  C_15
REMARK                            x       y       z     vdW  Elec       q    Type
REMARK                         _______ _______ _______ _____ _____    ______ ____
ROOT
ATOM      1  C   UNL     1       3.314   4.500  19.401  0.00  0.00    +0.000 C 
ENDROOT
BRANCH   1   2
ATOM      2  C   UNL     1       2.307   5.484  19.978  0.00  0.00    +0.000 C 
ATOM      3  O   UNL     1       1.313   5.085  20.581  0.00  0.00    +0.000 OA
ATOM      4  N   UNL     1       2.609   6.814  19.721  0.00  0.00    +0.000 N 
ATOM      5  H   UNL     1       3.344   7.001  19.045  0.00  0.00    +0.000 HD
BRANCH   4   6
ATOM      6  C   UNL     1       1.850   7.948  20.120  0.00  0.00    +0.000 A 
ATOM      7  C   UNL     1       1.403   8.136  21.432  0.00  0.00    +0.000 A 
ATOM      8  C   UNL     1       0.611   9.240  21.760  0.00  0.00    +0.000 A 
ATOM      9 CL   UNL     1       0.060   9.448  23.377  0.00  0.00    +0.000 Cl
ATOM     10  C   UNL     1       0.258  10.177  20.791  0.00  0.00    +0.000 A 
ATOM     11  C   UNL     1       0.727  10.025  19.487  0.00  0.00    +0.000 A 
ATOM     12  C   UNL     1       1.527   8.925  19.157  0.00  0.00    +0.000 A 
ATOM     13 CL   UNL     1       2.078   8.782  17.523  0.00  0.00    +0.000 Cl
ENDBRANCH   4   6
ENDBRANCH   1   2
BRANCH   1  14
ATOM     14  S   UNL     1       4.974   5.246  19.444  0.00  0.00    +0.000 S 
BRANCH  14  19
ATOM     15  N   UNL     1       6.597   5.573  17.253  0.00  0.00    +0.000 N 
ATOM     16  C   UNL     1       6.638   5.095  15.967  0.00  0.00    +0.000 A 
ATOM     17  N   UNL     1       5.608   4.314  15.752  0.00  0.00    +0.000 NA
ATOM     18  N   UNL     1       4.873   4.256  16.916  0.00  0.00    +0.000 NA
ATOM     19  C   UNL     1       5.475   5.010  17.806  0.00  0.00    +0.000 A 
BRANCH  16  20
ATOM     20  O   UNL     1       7.564   5.346  15.056  0.00  0.00    +0.000 OA
ATOM     21  H   UNL     1       7.575   4.647  14.387  0.00  0.00    +0.000 HD
ENDBRANCH  16  20
BRANCH  15  22
ATOM     22  C   UNL     1       7.543   6.475  17.867  0.00  0.00    +0.000 C 
BRANCH  22  24
ATOM     23  C   UNL     1       8.293   8.872  18.110  0.00  0.00    +0.000 C 
ATOM     24  C   UNL     1       7.376   7.912  17.370  0.00  0.00    +0.000 C 
ENDBRANCH  22  24
ENDBRANCH  15  22
ENDBRANCH  14  19
ENDBRANCH   1  14
TORSDOF 7
ENDMDL
MODEL 3
REMARK VINA RESULT:      -6.7      1.247      2.358
REMARK  Name = 
REMARK  8 active torsions:
REMARK  status: ('A' for Active; 'I' for Inactive)
REMARK    1  A    between atoms: C_1  and  C_2
REMARK    2  A    between atoms: C_2  and  C_3
REMARK    3  A    between atoms: C_3  and  N_4
REMARK    4  A    between atoms: C_5  and  O_6
REMARK    5  A    between atoms: C_9  and  S_10
REMARK    6  A    between atoms: S_10  and  C_11
REMARK    7  A    between atoms: C_11  and  C_12
REMARK    8  A    between atoms: N_14  and  C_15
REMARK                            x       y       z     vdW  Elec       q    Type
REMARK                         _______ _______ _______ _____ _____    ______ ____
ROOT
ATOM      1  C   UNL     1       3.437   3.632  18.537  0.00  0.00    +0.000 C 
ENDROOT
BRANCH   1   2
ATOM      2  C   UNL     1       2.471   4.807  18.580  0.00  0.00    +0.000 C 
ATOM      3  O   UNL     1       1.417   4.778  17.948  0.00  0.00    +0.000 OA
ATOM      4  N   UNL     1       2.919   5.875  19.345  0.00  0.00    +0.000 N 
ATOM      5  H   UNL     1       3.888   5.856  19.648  0.00  0.00    +0.000 HD
BRANCH   4   6
ATOM      6  C   UNL     1       2.242   7.107  19.558  0.00  0.00    +0.000 A 
ATOM      7  C   UNL     1       1.469   7.359  20.696  0.00  0.00    +0.000 A 
ATOM      8  C   UNL     1       0.777   8.567  20.830  0.00  0.00    +0.000 A 
ATOM      9 CL   UNL     1      -0.180   8.854  22.232  0.00  0.00    +0.000 Cl
ATOM     10  C   UNL     1       0.850   9.544  19.840  0.00  0.00    +0.000 A 
ATOM     11  C   UNL     1       1.646   9.324  18.717  0.00  0.00    +0.000 A 
ATOM     12  C   UNL     1       2.346   8.119  18.583  0.00  0.00    +0.000 A 
ATOM     13 CL   UNL     1       3.317   7.897  17.167  0.00  0.00    +0.000 Cl
ENDBRANCH   4   6
ENDBRANCH   1   2
BRANCH   1  14
ATOM     14  S   UNL     1       5.127   4.232  18.852  0.00  0.00    +0.000 S 
BRANCH  14  19
ATOM     15  N   UNL     1       6.753   5.173  16.850  0.00  0.00    +0.000 N 
ATOM     16  C   UNL     1       6.941   4.910  15.516  0.00  0.00    +0.000 A 
ATOM     17  N   UNL     1       6.088   3.997  15.121  0.00  0.00    +0.000 NA
ATOM     18  N   UNL     1       5.327   3.632  16.209  0.00  0.00    +0.000 NA
ATOM     19  C   UNL     1       5.735   4.340  17.236  0.00  0.00    +0.000 A 
BRANCH  16  20
ATOM     20  O   UNL     1       7.842   5.459  14.718  0.00  0.00    +0.000 OA
ATOM     21  H   UNL     1       8.247   6.226  15.146  0.00  0.00    +0.000 HD
ENDBRANCH  16  20
BRANCH  15  22
ATOM     22  C   UNL     1       7.483   6.128  17.650  0.00  0.00    +0.000 C 
BRANCH  22  24
ATOM     23  C   UNL     1       8.074   8.580  17.733  0.00  0.00    +0.000 C 
ATOM     24  C   UNL     1       6.988   7.559  17.435  0.00  0.00    +0.000 C 
ENDBRANCH  22  24
ENDBRANCH  15  22
ENDBRANCH  14  19
ENDBRANCH   1  14
TORSDOF 7
ENDMDL
MODEL 4
REMARK VINA RESULT:      -6.7      1.976      3.053
REMARK  Name = 
REMARK  8 active torsions:
REMARK  status: ('A' for Active; 'I' for Inactive)
REMARK    1  A    between atoms: C_1  and  C_2
REMARK    2  A    between atoms: C_2  and  C_3
REMARK    3  A    between atoms: C_3  and  N_4
REMARK    4  A    between atoms: C_5  and  O_6
REMARK    5  A    between atoms: C_9  and  S_10
REMARK    6  A    between atoms: S_10  and  C_11
REMARK    7  A    between atoms: C_11  and  C_12
REMARK    8  A    between atoms: N_14  and  C_15
REMARK                            x       y       z     vdW  Elec       q    Type
REMARK                         _______ _______ _______ _____ _____    ______ ____
ROOT
ATOM      1  C   UNL     1       3.025   3.002  17.168  0.00  0.00    +0.000 C 
ENDROOT
BRANCH   1   2
ATOM      2  C   UNL     1       2.177   4.166  17.661  0.00  0.00    +0.000 C 
ATOM      3  O   UNL     1       0.975   4.218  17.409  0.00  0.00    +0.000 OA
ATOM      4  N   UNL     1       2.894   5.129  18.357  0.00  0.00    +0.000 N 
ATOM      5  H   UNL     1       3.907   5.069  18.322  0.00  0.00    +0.000 HD
BRANCH   4   6
ATOM      6  C   UNL     1       2.377   6.327  18.921  0.00  0.00    +0.000 A 
ATOM      7  C   UNL     1       2.328   7.536  18.218  0.00  0.00    +0.000 A 
ATOM      8  C   UNL     1       1.863   8.699  18.839  0.00  0.00    +0.000 A 
ATOM      9 CL   UNL     1       1.823  10.179  17.961  0.00  0.00    +0.000 Cl
ATOM     10  C   UNL     1       1.432   8.676  20.163  0.00  0.00    +0.000 A 
ATOM     11  C   UNL     1       1.439   7.472  20.866  0.00  0.00    +0.000 A 
ATOM     12  C   UNL     1       1.896   6.304  20.245  0.00  0.00    +0.000 A 
ATOM     13 CL   UNL     1       1.887   4.838  21.165  0.00  0.00    +0.000 Cl
ENDBRANCH   4   6
ENDBRANCH   1   2
BRANCH   1  14
ATOM     14  S   UNL     1       4.738   3.223  17.742  0.00  0.00    +0.000 S 
BRANCH  14  19
ATOM     15  N   UNL     1       6.695   4.523  16.321  0.00  0.00    +0.000 N 
ATOM     16  C   UNL     1       6.887   4.909  15.018  0.00  0.00    +0.000 A 
ATOM     17  N   UNL     1       5.835   4.593  14.304  0.00  0.00    +0.000 NA
ATOM     18  N   UNL     1       4.931   3.973  15.137  0.00  0.00    +0.000 NA
ATOM     19  C   UNL     1       5.457   3.934  16.338  0.00  0.00    +0.000 A 
BRANCH  16  20
ATOM     20  O   UNL     1       7.959   5.499  14.514  0.00  0.00    +0.000 OA
ATOM     21  H   UNL     1       8.729   5.329  15.074  0.00  0.00    +0.000 HD
ENDBRANCH  16  20
BRANCH  15  22
ATOM     22  C   UNL     1       7.615   4.709  17.418  0.00  0.00    +0.000 C 
BRANCH  22  24
ATOM     23  C   UNL     1       7.518   7.228  17.547  0.00  0.00    +0.000 C 
ATOM     24  C   UNL     1       7.252   5.921  18.277  0.00  0.00    +0.000 C 
ENDBRANCH  22  24
ENDBRANCH  15  22
ENDBRANCH  14  19
ENDBRANCH   1  14
TORSDOF 7
ENDMDL
MODEL 5
REMARK VINA RESULT:      -6.7      1.250      1.390
REMARK  Name = 
REMARK  8 active torsions:
REMARK  status: ('A' for Active; 'I' for Inactive)
REMARK    1  A    between atoms: C_1  and  C_2
REMARK    2  A    between atoms: C_2  and  C_3
REMARK    3  A    between atoms: C_3  and  N_4
REMARK    4  A    between atoms: C_5  and  O_6
REMARK    5  A    between atoms: C_9  and  S_10
REMARK    6  A    between atoms: S_10  and  C_11
REMARK    7  A    between atoms: C_11  and  C_12
REMARK    8  A    between atoms: N_14  and  C_15
REMARK                            x       y       z     vdW  Elec       q    Type
REMARK                         _______ _______ _______ _____ _____    ______ ____
ROOT
ATOM      1  C   UNL     1       3.195   4.823  20.187  0.00  0.00    +0.000 C 
ENDROOT
BRANCH   1   2
ATOM      2  C   UNL     1       2.026   5.780  20.371  0.00  0.00    +0.000 C 
ATOM      3  O   UNL     1       0.883   5.356  20.521  0.00  0.00    +0.000 OA
ATOM      4  N   UNL     1       2.384   7.120  20.313  0.00  0.00    +0.000 N 
ATOM      5  H   UNL     1       3.320   7.338  19.986  0.00  0.00    +0.000 HD
BRANCH   4   6
ATOM      6  C   UNL     1       1.511   8.236  20.437  0.00  0.00    +0.000 A 
ATOM      7  C   UNL     1       0.910   8.596  21.648  0.00  0.00    +0.000 A 
ATOM      8  C   UNL     1       0.015   9.668  21.704  0.00  0.00    +0.000 A 
ATOM      9 CL   UNL     1      -0.724  10.089  23.201  0.00  0.00    +0.000 Cl
ATOM     10  C   UNL     1      -0.290  10.402  20.560  0.00  0.00    +0.000 A 
ATOM     11  C   UNL     1       0.329  10.080  19.353  0.00  0.00    +0.000 A 
ATOM     12  C   UNL     1       1.232   9.013  19.295  0.00  0.00    +0.000 A 
ATOM     13 CL   UNL     1       1.968   8.653  17.771  0.00  0.00    +0.000 Cl
ENDBRANCH   4   6
ENDBRANCH   1   2
BRANCH   1  14
ATOM     14  S   UNL     1       3.353   4.400  18.424  0.00  0.00    +0.000 S 
BRANCH  14  19
ATOM     15  N   UNL     1       5.716   4.520  17.030  0.00  0.00    +0.000 N 
ATOM     16  C   UNL     1       7.052   4.565  17.342  0.00  0.00    +0.000 A 
ATOM     17  N   UNL     1       7.206   4.496  18.641  0.00  0.00    +0.000 NA
ATOM     18  N   UNL     1       5.954   4.419  19.210  0.00  0.00    +0.000 NA
ATOM     19  C   UNL     1       5.072   4.437  18.238  0.00  0.00    +0.000 A 
BRANCH  16  20
ATOM     20  O   UNL     1       8.061   4.675  16.493  0.00  0.00    +0.000 OA
ATOM     21  H   UNL     1       7.949   4.058  15.756  0.00  0.00    +0.000 HD
ENDBRANCH  16  20
BRANCH  15  22
ATOM     22  C   UNL     1       5.139   4.554  15.707  0.00  0.00    +0.000 C 
BRANCH  22  24
ATOM     23  C   UNL     1       6.249   4.027  13.502  0.00  0.00    +0.000 C 
ATOM     24  C   UNL     1       5.705   3.458  14.802  0.00  0.00    +0.000 C 
ENDBRANCH  22  24
ENDBRANCH  15  22
ENDBRANCH  14  19
ENDBRANCH   1  14
TORSDOF 7
ENDMDL
MODEL 6
REMARK VINA RESULT:      -6.5      2.843      4.179
REMARK  Name = 
REMARK  8 active torsions:
REMARK  status: ('A' for Active; 'I' for Inactive)
REMARK    1  A    between atoms: C_1  and  C_2
REMARK    2  A    between atoms: C_2  and  C_3
REMARK    3  A    between atoms: C_3  and  N_4
REMARK    4  A    between atoms: C_5  and  O_6
REMARK    5  A    between atoms: C_9  and  S_10
REMARK    6  A    between atoms: S_10  and  C_11
REMARK    7  A    between atoms: C_11  and  C_12
REMARK    8  A    between atoms: N_14  and  C_15
REMARK                            x       y       z     vdW  Elec       q    Type
REMARK                         _______ _______ _______ _____ _____    ______ ____
ROOT
ATOM      1  C   UNL     1       7.016   4.808  17.301  0.00  0.00    +0.000 C 
ENDROOT
BRANCH   1   2
ATOM      2  C   UNL     1       6.091   4.960  18.499  0.00  0.00    +0.000 C 
ATOM      3  O   UNL     1       6.547   5.130  19.628  0.00  0.00    +0.000 OA
ATOM      4  N   UNL     1       4.743   4.848  18.187  0.00  0.00    +0.000 N 
ATOM      5  H   UNL     1       4.508   4.509  17.259  0.00  0.00    +0.000 HD
BRANCH   4   6
ATOM      6  C   UNL     1       3.653   4.932  19.095  0.00  0.00    +0.000 A 
ATOM      7  C   UNL     1       3.296   3.882  19.949  0.00  0.00    +0.000 A 
ATOM      8  C   UNL     1       2.179   3.996  20.782  0.00  0.00    +0.000 A 
ATOM      9 CL   UNL     1       1.749   2.689  21.817  0.00  0.00    +0.000 Cl
ATOM     10  C   UNL     1       1.407   5.154  20.786  0.00  0.00    +0.000 A 
ATOM     11  C   UNL     1       1.771   6.223  19.969  0.00  0.00    +0.000 A 
ATOM     12  C   UNL     1       2.892   6.117  19.139  0.00  0.00    +0.000 A 
ATOM     13 CL   UNL     1       3.297   7.473  18.142  0.00  0.00    +0.000 Cl
ENDBRANCH   4   6
ENDBRANCH   1   2
BRANCH   1  14
ATOM     14  S   UNL     1       6.111   4.007  15.940  0.00  0.00    +0.000 S 
BRANCH  14  19
ATOM     15  N   UNL     1       6.709   4.277  13.274  0.00  0.00    +0.000 N 
ATOM     16  C   UNL     1       7.583   5.022  12.522  0.00  0.00    +0.000 A 
ATOM     17  N   UNL     1       8.331   5.754  13.310  0.00  0.00    +0.000 NA
ATOM     18  N   UNL     1       7.943   5.508  14.608  0.00  0.00    +0.000 NA
ATOM     19  C   UNL     1       6.972   4.626  14.574  0.00  0.00    +0.000 A 
BRANCH  16  20
ATOM     20  O   UNL     1       7.679   5.040  11.202  0.00  0.00    +0.000 OA
ATOM     21  H   UNL     1       8.330   5.699  10.923  0.00  0.00    +0.000 HD
ENDBRANCH  16  20
BRANCH  15  22
ATOM     22  C   UNL     1       5.734   3.335  12.778  0.00  0.00    +0.000 C 
BRANCH  22  24
ATOM     23  C   UNL     1       3.805   2.951  11.196  0.00  0.00    +0.000 C 
ATOM     24  C   UNL     1       4.846   3.942  11.690  0.00  0.00    +0.000 C 
ENDBRANCH  22  24
ENDBRANCH  15  22
ENDBRANCH  14  19
ENDBRANCH   1  14
TORSDOF 7
ENDMDL
MODEL 7
REMARK VINA RESULT:      -6.4      2.866      4.304
REMARK  Name = 
REMARK  8 active torsions:
REMARK  status: ('A' for Active; 'I' for Inactive)
REMARK    1  A    between atoms: C_1  and  C_2
REMARK    2  A    between atoms: C_2  and  C_3
REMARK    3  A    between atoms: C_3  and  N_4
REMARK    4  A    between atoms: C_5  and  O_6
REMARK    5  A    between atoms: C_9  and  S_10
REMARK    6  A    between atoms: S_10  and  C_11
REMARK    7  A    between atoms: C_11  and  C_12
REMARK    8  A    between atoms: N_14  and  C_15
REMARK                            x       y       z     vdW  Elec       q    Type
REMARK                         _______ _______ _______ _____ _____    ______ ____
ROOT
ATOM      1  C   UNL     1       6.887   4.432  17.154  0.00  0.00    +0.000 C 
ENDROOT
BRANCH   1   2
ATOM      2  C   UNL     1       5.906   4.581  18.308  0.00  0.00    +0.000 C 
ATOM      3  O   UNL     1       6.307   4.783  19.452  0.00  0.00    +0.000 OA
ATOM      4  N   UNL     1       4.577   4.430  17.939  0.00  0.00    +0.000 N 
ATOM      5  H   UNL     1       4.391   4.069  17.008  0.00  0.00    +0.000 HD
BRANCH   4   6
ATOM      6  C   UNL     1       3.446   4.502  18.797  0.00  0.00    +0.000 A 
ATOM      7  C   UNL     1       3.003   5.701  19.367  0.00  0.00    +0.000 A 
ATOM      8  C   UNL     1       1.919   5.708  20.250  0.00  0.00    +0.000 A 
ATOM      9 CL   UNL     1       1.397   7.192  20.951  0.00  0.00    +0.000 Cl
ATOM     10  C   UNL     1       1.256   4.527  20.574  0.00  0.00    +0.000 A 
ATOM     11  C   UNL     1       1.660   3.330  19.986  0.00  0.00    +0.000 A 
ATOM     12  C   UNL     1       2.740   3.320  19.095  0.00  0.00    +0.000 A 
ATOM     13 CL   UNL     1       3.203   1.805  18.397  0.00  0.00    +0.000 Cl
ENDBRANCH   4   6
ENDBRANCH   1   2
BRANCH   1  14
ATOM     14  S   UNL     1       6.011   3.768  15.703  0.00  0.00    +0.000 S 
BRANCH  14  19
ATOM     15  N   UNL     1       6.674   4.287  13.089  0.00  0.00    +0.000 N 
ATOM     16  C   UNL     1       7.545   5.119  12.432  0.00  0.00    +0.000 A 
ATOM     17  N   UNL     1       8.250   5.799  13.302  0.00  0.00    +0.000 NA
ATOM     18  N   UNL     1       7.834   5.429  14.562  0.00  0.00    +0.000 NA
ATOM     19  C   UNL     1       6.890   4.528  14.422  0.00  0.00    +0.000 A 
BRANCH  16  20
ATOM     20  O   UNL     1       7.677   5.255  11.122  0.00  0.00    +0.000 OA
ATOM     21  H   UNL     1       8.595   5.463  10.897  0.00  0.00    +0.000 HD
ENDBRANCH  16  20
BRANCH  15  22
ATOM     22  C   UNL     1       5.741   3.366  12.484  0.00  0.00    +0.000 C 
BRANCH  22  24
ATOM     23  C   UNL     1       6.118   1.061  11.527  0.00  0.00    +0.000 C 
ATOM     24  C   UNL     1       6.382   2.549  11.362  0.00  0.00    +0.000 C 
ENDBRANCH  22  24
ENDBRANCH  15  22
ENDBRANCH  14  19
ENDBRANCH   1  14
TORSDOF 7
ENDMDL
MODEL 8
REMARK VINA RESULT:      -6.2      3.149      4.855
REMARK  Name = 
REMARK  8 active torsions:
REMARK  status: ('A' for Active; 'I' for Inactive)
REMARK    1  A    between atoms: C_1  and  C_2
REMARK    2  A    between atoms: C_2  and  C_3
REMARK    3  A    between atoms: C_3  and  N_4
REMARK    4  A    between atoms: C_5  and  O_6
REMARK    5  A    between atoms: C_9  and  S_10
REMARK    6  A    between atoms: S_10  and  C_11
REMARK    7  A    between atoms: C_11  and  C_12
REMARK    8  A    between atoms: N_14  and  C_15
REMARK                            x       y       z     vdW  Elec       q    Type
REMARK                         _______ _______ _______ _____ _____    ______ ____
ROOT
ATOM      1  C   UNL     1       2.903   8.040  17.949  0.00  0.00    +0.000 C 
ENDROOT
BRANCH   1   2
ATOM      2  C   UNL     1       2.007   9.270  17.958  0.00  0.00    +0.000 C 
ATOM      3  O   UNL     1       2.400  10.337  17.492  0.00  0.00    +0.000 OA
ATOM      4  N   UNL     1       0.773   9.062  18.559  0.00  0.00    +0.000 N 
ATOM      5  H   UNL     1       0.650   8.199  19.080  0.00  0.00    +0.000 HD
BRANCH   4   6
ATOM      6  C   UNL     1      -0.261  10.023  18.725  0.00  0.00    +0.000 A 
ATOM      7  C   UNL     1      -1.289  10.198  17.793  0.00  0.00    +0.000 A 
ATOM      8  C   UNL     1      -2.250  11.197  17.976  0.00  0.00    +0.000 A 
ATOM      9 CL   UNL     1      -3.501  11.405  16.812  0.00  0.00    +0.000 Cl
ATOM     10  C   UNL     1      -2.207  12.031  19.091  0.00  0.00    +0.000 A 
ATOM     11  C   UNL     1      -1.211  11.845  20.048  0.00  0.00    +0.000 A 
ATOM     12  C   UNL     1      -0.253  10.841  19.872  0.00  0.00    +0.000 A 
ATOM     13 CL   UNL     1       0.964  10.657  21.089  0.00  0.00    +0.000 Cl
ENDBRANCH   4   6
ENDBRANCH   1   2
BRANCH   1  14
ATOM     14  S   UNL     1       2.426   6.939  19.318  0.00  0.00    +0.000 S 
BRANCH  14  19
ATOM     15  N   UNL     1       3.036   4.413  18.431  0.00  0.00    +0.000 N 
ATOM     16  C   UNL     1       4.165   3.638  18.339  0.00  0.00    +0.000 A 
ATOM     17  N   UNL     1       5.187   4.283  18.844  0.00  0.00    +0.000 NA
ATOM     18  N   UNL     1       4.741   5.515  19.267  0.00  0.00    +0.000 NA
ATOM     19  C   UNL     1       3.455   5.582  19.012  0.00  0.00    +0.000 A 
BRANCH  16  20
ATOM     20  O   UNL     1       4.255   2.426  17.816  0.00  0.00    +0.000 OA
ATOM     21  H   UNL     1       4.407   2.482  16.862  0.00  0.00    +0.000 HD
ENDBRANCH  16  20
BRANCH  15  22
ATOM     22  C   UNL     1       1.706   4.051  18.001  0.00  0.00    +0.000 C 
BRANCH  22  24
ATOM     23  C   UNL     1       0.966   3.396  20.323  0.00  0.00    +0.000 C 
ATOM     24  C   UNL     1       1.096   2.955  18.874  0.00  0.00    +0.000 C 
ENDBRANCH  22  24
ENDBRANCH  15  22
ENDBRANCH  14  19
ENDBRANCH   1  14
TORSDOF 7
ENDMDL
MODEL 9
REMARK VINA RESULT:      -6.1      1.612      1.928
REMARK  Name = 
REMARK  8 active torsions:
REMARK  status: ('A' for Active; 'I' for Inactive)
REMARK    1  A    between atoms: C_1  and  C_2
REMARK    2  A    between atoms: C_2  and  C_3
REMARK    3  A    between atoms: C_3  and  N_4
REMARK    4  A    between atoms: C_5  and  O_6
REMARK    5  A    between atoms: C_9  and  S_10
REMARK    6  A    between atoms: S_10  and  C_11
REMARK    7  A    between atoms: C_11  and  C_12
REMARK    8  A    between atoms: N_14  and  C_15
REMARK                            x       y       z     vdW  Elec       q    Type
REMARK                         _______ _______ _______ _____ _____    ______ ____
ROOT
ATOM      1  C   UNL     1       2.883   5.707  18.543  0.00  0.00    +0.000 C 
ENDROOT
BRANCH   1   2
ATOM      2  C   UNL     1       2.203   6.560  19.604  0.00  0.00    +0.000 C 
ATOM      3  O   UNL     1       1.835   6.066  20.668  0.00  0.00    +0.000 OA
ATOM      4  N   UNL     1       2.023   7.884  19.229  0.00  0.00    +0.000 N 
ATOM      5  H   UNL     1       2.186   8.118  18.255  0.00  0.00    +0.000 HD
BRANCH   4   6
ATOM      6  C   UNL     1       1.409   8.907  20.002  0.00  0.00    +0.000 A 
ATOM      7  C   UNL     1       0.985   8.709  21.321  0.00  0.00    +0.000 A 
ATOM      8  C   UNL     1       0.335   9.732  22.018  0.00  0.00    +0.000 A 
ATOM      9 CL   UNL     1      -0.190   9.464  23.636  0.00  0.00    +0.000 Cl
ATOM     10  C   UNL     1       0.103  10.967  21.418  0.00  0.00    +0.000 A 
ATOM     11  C   UNL     1       0.552  11.193  20.118  0.00  0.00    +0.000 A 
ATOM     12  C   UNL     1       1.211  10.175  19.420  0.00  0.00    +0.000 A 
ATOM     13 CL   UNL     1       1.744  10.508  17.808  0.00  0.00    +0.000 Cl
ENDBRANCH   4   6
ENDBRANCH   1   2
BRANCH   1  14
ATOM     14  S   UNL     1       3.656   4.263  19.339  0.00  0.00    +0.000 S 
BRANCH  14  19
ATOM     15  N   UNL     1       5.841   4.263  17.675  0.00  0.00    +0.000 N 
ATOM     16  C   UNL     1       7.159   4.637  17.765  0.00  0.00    +0.000 A 
ATOM     17  N   UNL     1       7.415   5.065  18.977  0.00  0.00    +0.000 NA
ATOM     18  N   UNL     1       6.249   4.992  19.705  0.00  0.00    +0.000 NA
ATOM     19  C   UNL     1       5.315   4.514  18.916  0.00  0.00    +0.000 A 
BRANCH  16  20
ATOM     20  O   UNL     1       8.062   4.600  16.799  0.00  0.00    +0.000 OA
ATOM     21  H   UNL     1       7.876   3.868  16.194  0.00  0.00    +0.000 HD
ENDBRANCH  16  20
BRANCH  15  22
ATOM     22  C   UNL     1       5.177   3.724  16.512  0.00  0.00    +0.000 C 
BRANCH  22  24
ATOM     23  C   UNL     1       5.820   4.066  14.095  0.00  0.00    +0.000 C 
ATOM     24  C   UNL     1       5.201   4.697  15.331  0.00  0.00    +0.000 C 
ENDBRANCH  22  24
ENDBRANCH  15  22
ENDBRANCH  14  19
ENDBRANCH   1  14
TORSDOF 7
ENDMDL
