MODEL 1
REMARK VINA RESULT:      -9.0      0.000      0.000
REMARK  Name = 
REMARK  7 active torsions:
REMARK  status: ('A' for Active; 'I' for Inactive)
REMARK    1  A    between atoms: C_1  and  O_2
REMARK    2  A    between atoms: O_2  and  C_3
REMARK    3  A    between atoms: C_9  and  S_10
REMARK    4  A    between atoms: S_10  and  N_13
REMARK    5  A    between atoms: N_13  and  C_14
REMARK    6  A    between atoms: C_17  and  C_18
REMARK    7  A    between atoms: C_23  and  C_24
REMARK                            x       y       z     vdW  Elec       q    Type
REMARK                         _______ _______ _______ _____ _____    ______ ____
ROOT
ATOM      1  N   UNL     1       4.206   2.884  18.054  0.00  0.00    +0.000 N 
ATOM      2  H   UNL     1       4.469   1.903  18.154  0.00  0.00    +0.000 HD
ENDROOT
BRANCH   1   3
ATOM      3  C   UNL     1       5.071   3.696  17.257  0.00  0.00    +0.000 A 
ATOM      4  C   UNL     1       5.162   3.454  15.876  0.00  0.00    +0.000 A 
ATOM      5  C   UNL     1       6.100   4.188  15.125  0.00  0.00    +0.000 A 
ATOM      6  C   UNL     1       6.556   4.250  13.781  0.00  0.00    +0.000 A 
ATOM      7  C   UNL     1       6.109   3.463  12.611  0.00  0.00    +0.000 C 
ATOM      8  N   UNL     1       7.531   5.156  13.628  0.00  0.00    +0.000 NA
ATOM      9  O   UNL     1       7.725   5.713  14.879  0.00  0.00    +0.000 OA
ATOM     10  C   UNL     1       6.876   5.137  15.769  0.00  0.00    +0.000 A 
ATOM     11  C   UNL     1       6.793   5.431  17.124  0.00  0.00    +0.000 A 
ATOM     12  C   UNL     1       5.872   4.680  17.881  0.00  0.00    +0.000 A 
ATOM     13  C   UNL     1       5.783   4.971  19.357  0.00  0.00    +0.000 C 
ENDBRANCH   1   3
BRANCH   1  14
ATOM     14  S   UNL     1       2.530   3.049  17.935  0.00  0.00    +0.000 S 
ATOM     15  O   UNL     1       1.903   1.967  18.665  0.00  0.00    +0.000 OA
ATOM     16  O   UNL     1       2.223   3.271  16.541  0.00  0.00    +0.000 OA
BRANCH  14  23
ATOM     17  C   UNL     1       1.752   4.587  20.131  0.00  0.00    +0.000 A 
ATOM     18  C   UNL     1       1.663   5.824  20.793  0.00  0.00    +0.000 A 
ATOM     19  C   UNL     1       1.907   7.021  20.111  0.00  0.00    +0.000 A 
ATOM     20  C   UNL     1       2.240   6.994  18.764  0.00  0.00    +0.000 A 
ATOM     21 BR   UNL     1       2.577   8.615  17.854  0.00  0.00    +0.000 Br
ATOM     22  C   UNL     1       2.359   5.780  18.092  0.00  0.00    +0.000 A 
ATOM     23  C   UNL     1       2.129   4.577  18.779  0.00  0.00    +0.000 A 
BRANCH  17  25
ATOM     24  C   UNL     1       2.319   3.067  21.874  0.00  0.00    +0.000 C 
ATOM     25  O   UNL     1       1.509   3.387  20.742  0.00  0.00    +0.000 OA
ENDBRANCH  17  25
ENDBRANCH  14  23
ENDBRANCH   1  14
TORSDOF 4
ENDMDL
MODEL 2
REMARK VINA RESULT:      -7.7      1.016      1.133
REMARK  Name = 
REMARK  7 active torsions:
REMARK  status: ('A' for Active; 'I' for Inactive)
REMARK    1  A    between atoms: C_1  and  O_2
REMARK    2  A    between atoms: O_2  and  C_3
REMARK    3  A    between atoms: C_9  and  S_10
REMARK    4  A    between atoms: S_10  and  N_13
REMARK    5  A    between atoms: N_13  and  C_14
REMARK    6  A    between atoms: C_17  and  C_18
REMARK    7  A    between atoms: C_23  and  C_24
REMARK                            x       y       z     vdW  Elec       q    Type
REMARK                         _______ _______ _______ _____ _____    ______ ____
ROOT
ATOM      1  N   UNL     1       5.265   3.409  17.705  0.00  0.00    +0.000 N 
ATOM      2  H   UNL     1       5.802   2.661  18.145  0.00  0.00    +0.000 HD
ENDROOT
BRANCH   1   3
ATOM      3  C   UNL     1       5.850   4.018  16.551  0.00  0.00    +0.000 A 
ATOM      4  C   UNL     1       5.640   3.440  15.288  0.00  0.00    +0.000 A 
ATOM      5  C   UNL     1       6.313   3.988  14.179  0.00  0.00    +0.000 A 
ATOM      6  C   UNL     1       6.438   3.723  12.789  0.00  0.00    +0.000 A 
ATOM      7  C   UNL     1       5.801   2.657  11.984  0.00  0.00    +0.000 C 
ATOM      8  N   UNL     1       7.271   4.586  12.191  0.00  0.00    +0.000 NA
ATOM      9  O   UNL     1       7.701   5.443  13.189  0.00  0.00    +0.000 OA
ATOM     10  C   UNL     1       7.133   5.086  14.369  0.00  0.00    +0.000 A 
ATOM     11  C   UNL     1       7.341   5.707  15.594  0.00  0.00    +0.000 A 
ATOM     12  C   UNL     1       6.687   5.146  16.709  0.00  0.00    +0.000 A 
ATOM     13  C   UNL     1       6.917   5.795  18.050  0.00  0.00    +0.000 C 
ENDBRANCH   1   3
BRANCH   1  14
ATOM     14  S   UNL     1       3.612   3.066  17.744  0.00  0.00    +0.000 S 
ATOM     15  O   UNL     1       3.408   1.847  18.499  0.00  0.00    +0.000 OA
ATOM     16  O   UNL     1       3.122   3.185  16.391  0.00  0.00    +0.000 OA
BRANCH  14  23
ATOM     17  C   UNL     1       2.461   4.242  20.000  0.00  0.00    +0.000 A 
ATOM     18  C   UNL     1       2.080   5.381  20.730  0.00  0.00    +0.000 A 
ATOM     19  C   UNL     1       2.061   6.644  20.130  0.00  0.00    +0.000 A 
ATOM     20  C   UNL     1       2.419   6.781  18.796  0.00  0.00    +0.000 A 
ATOM     21 BR   UNL     1       2.398   8.493  17.996  0.00  0.00    +0.000 Br
ATOM     22  C   UNL     1       2.823   5.673  18.058  0.00  0.00    +0.000 A 
ATOM     23  C   UNL     1       2.858   4.406  18.663  0.00  0.00    +0.000 A 
BRANCH  17  25
ATOM     24  C   UNL     1       1.750   2.778  21.737  0.00  0.00    +0.000 C 
ATOM     25  O   UNL     1       2.484   2.980  20.529  0.00  0.00    +0.000 OA
ENDBRANCH  17  25
ENDBRANCH  14  23
ENDBRANCH   1  14
TORSDOF 4
ENDMDL
MODEL 3
REMARK VINA RESULT:      -7.7      4.563      7.026
REMARK  Name = 
REMARK  7 active torsions:
REMARK  status: ('A' for Active; 'I' for Inactive)
REMARK    1  A    between atoms: C_1  and  O_2
REMARK    2  A    between atoms: O_2  and  C_3
REMARK    3  A    between atoms: C_9  and  S_10
REMARK    4  A    between atoms: S_10  and  N_13
REMARK    5  A    between atoms: N_13  and  C_14
REMARK    6  A    between atoms: C_17  and  C_18
REMARK    7  A    between atoms: C_23  and  C_24
REMARK                            x       y       z     vdW  Elec       q    Type
REMARK                         _______ _______ _______ _____ _____    ______ ____
ROOT
ATOM      1  N   UNL     1       1.857   8.680  21.009  0.00  0.00    +0.000 N 
ATOM      2  H   UNL     1       2.573   8.784  21.729  0.00  0.00    +0.000 HD
ENDROOT
BRANCH   1   3
ATOM      3  C   UNL     1       1.925   7.496  20.211  0.00  0.00    +0.000 A 
ATOM      4  C   UNL     1       1.792   6.242  20.829  0.00  0.00    +0.000 A 
ATOM      5  C   UNL     1       1.972   5.084  20.048  0.00  0.00    +0.000 A 
ATOM      6  C   UNL     1       1.978   3.677  20.239  0.00  0.00    +0.000 A 
ATOM      7  C   UNL     1       1.755   2.905  21.481  0.00  0.00    +0.000 C 
ATOM      8  N   UNL     1       2.242   3.022  19.100  0.00  0.00    +0.000 NA
ATOM      9  O   UNL     1       2.405   3.999  18.135  0.00  0.00    +0.000 OA
ATOM     10  C   UNL     1       2.246   5.224  18.699  0.00  0.00    +0.000 A 
ATOM     11  C   UNL     1       2.351   6.444  18.042  0.00  0.00    +0.000 A 
ATOM     12  C   UNL     1       2.195   7.603  18.827  0.00  0.00    +0.000 A 
ATOM     13  C   UNL     1       2.327   8.936  18.135  0.00  0.00    +0.000 C 
ENDBRANCH   1   3
BRANCH   1  14
ATOM     14  S   UNL     1       0.367   9.260  21.552  0.00  0.00    +0.000 S 
ATOM     15  O   UNL     1       0.573   9.980  22.792  0.00  0.00    +0.000 OA
ATOM     16  O   UNL     1      -0.566   8.160  21.486  0.00  0.00    +0.000 OA
BRANCH  14  23
ATOM     17  C   UNL     1       0.513  11.650  20.116  0.00  0.00    +0.000 A 
ATOM     18  C   UNL     1       0.175  12.431  18.998  0.00  0.00    +0.000 A 
ATOM     19  C   UNL     1      -0.847  12.036  18.129  0.00  0.00    +0.000 A 
ATOM     20  C   UNL     1      -1.542  10.858  18.369  0.00  0.00    +0.000 A 
ATOM     21 BR   UNL     1      -2.915  10.328  17.185  0.00  0.00    +0.000 Br
ATOM     22  C   UNL     1      -1.210  10.055  19.456  0.00  0.00    +0.000 A 
ATOM     23  C   UNL     1      -0.174  10.442  20.321  0.00  0.00    +0.000 A 
BRANCH  17  25
ATOM     24  C   UNL     1       2.183  13.219  20.761  0.00  0.00    +0.000 C 
ATOM     25  O   UNL     1       1.492  11.994  21.008  0.00  0.00    +0.000 OA
ENDBRANCH  17  25
ENDBRANCH  14  23
ENDBRANCH   1  14
TORSDOF 4
ENDMDL
MODEL 4
REMARK VINA RESULT:      -7.6      2.818      6.149
REMARK  Name = 
REMARK  7 active torsions:
REMARK  status: ('A' for Active; 'I' for Inactive)
REMARK    1  A    between atoms: C_1  and  O_2
REMARK    2  A    between atoms: O_2  and  C_3
REMARK    3  A    between atoms: C_9  and  S_10
REMARK    4  A    between atoms: S_10  and  N_13
REMARK    5  A    between atoms: N_13  and  C_14
REMARK    6  A    between atoms: C_17  and  C_18
REMARK    7  A    between atoms: C_23  and  C_24
REMARK                            x       y       z     vdW  Elec       q    Type
REMARK                         _______ _______ _______ _____ _____    ______ ____
ROOT
ATOM      1  N   UNL     1       3.876   4.061  19.276  0.00  0.00    +0.000 N 
ATOM      2  H   UNL     1       4.858   4.187  19.524  0.00  0.00    +0.000 HD
ENDROOT
BRANCH   1   3
ATOM      3  C   UNL     1       2.987   5.121  19.637  0.00  0.00    +0.000 A 
ATOM      4  C   UNL     1       2.986   6.304  18.880  0.00  0.00    +0.000 A 
ATOM      5  C   UNL     1       2.186   7.379  19.313  0.00  0.00    +0.000 A 
ATOM      6  C   UNL     1       1.914   8.715  18.916  0.00  0.00    +0.000 A 
ATOM      7  C   UNL     1       2.453   9.471  17.765  0.00  0.00    +0.000 C 
ATOM      8  N   UNL     1       1.054   9.316  19.749  0.00  0.00    +0.000 NA
ATOM      9  O   UNL     1       0.740   8.371  20.709  0.00  0.00    +0.000 OA
ATOM     10  C   UNL     1       1.414   7.221  20.451  0.00  0.00    +0.000 A 
ATOM     11  C   UNL     1       1.361   6.057  21.208  0.00  0.00    +0.000 A 
ATOM     12  C   UNL     1       2.178   4.990  20.789  0.00  0.00    +0.000 A 
ATOM     13  C   UNL     1       2.149   3.726  21.610  0.00  0.00    +0.000 C 
ENDBRANCH   1   3
BRANCH   1  14
ATOM     14  S   UNL     1       3.728   3.294  17.779  0.00  0.00    +0.000 S 
ATOM     15  O   UNL     1       2.477   3.697  17.172  0.00  0.00    +0.000 OA
ATOM     16  O   UNL     1       4.029   1.897  17.988  0.00  0.00    +0.000 OA
BRANCH  14  23
ATOM     17  C   UNL     1       6.212   4.491  17.342  0.00  0.00    +0.000 A 
ATOM     18  C   UNL     1       7.305   4.779  16.507  0.00  0.00    +0.000 A 
ATOM     19  C   UNL     1       7.232   4.557  15.128  0.00  0.00    +0.000 A 
ATOM     20  C   UNL     1       6.067   4.048  14.571  0.00  0.00    +0.000 A 
ATOM     21 BR   UNL     1       5.980   3.743  12.708  0.00  0.00    +0.000 Br
ATOM     22  C   UNL     1       4.979   3.732  15.380  0.00  0.00    +0.000 A 
ATOM     23  C   UNL     1       5.056   3.939  16.767  0.00  0.00    +0.000 A 
BRANCH  17  25
ATOM     24  C   UNL     1       7.211   5.600  19.198  0.00  0.00    +0.000 C 
ATOM     25  O   UNL     1       6.221   4.702  18.695  0.00  0.00    +0.000 OA
ENDBRANCH  17  25
ENDBRANCH  14  23
ENDBRANCH   1  14
TORSDOF 4
ENDMDL
MODEL 5
REMARK VINA RESULT:      -7.4      5.396      7.662
REMARK  Name = 
REMARK  7 active torsions:
REMARK  status: ('A' for Active; 'I' for Inactive)
REMARK    1  A    between atoms: C_1  and  O_2
REMARK    2  A    between atoms: O_2  and  C_3
REMARK    3  A    between atoms: C_9  and  S_10
REMARK    4  A    between atoms: S_10  and  N_13
REMARK    5  A    between atoms: N_13  and  C_14
REMARK    6  A    between atoms: C_17  and  C_18
REMARK    7  A    between atoms: C_23  and  C_24
REMARK                            x       y       z     vdW  Elec       q    Type
REMARK                         _______ _______ _______ _____ _____    ______ ____
ROOT
ATOM      1  N   UNL     1       0.607   9.347  20.382  0.00  0.00    +0.000 N 
ATOM      2  H   UNL     1       0.801  10.272  19.998  0.00  0.00    +0.000 HD
ENDROOT
BRANCH   1   3
ATOM      3  C   UNL     1       1.355   8.260  19.831  0.00  0.00    +0.000 A 
ATOM      4  C   UNL     1       1.408   7.041  20.526  0.00  0.00    +0.000 A 
ATOM      5  C   UNL     1       2.238   6.018  20.026  0.00  0.00    +0.000 A 
ATOM      6  C   UNL     1       2.626   4.703  20.397  0.00  0.00    +0.000 A 
ATOM      7  C   UNL     1       2.206   3.905  21.570  0.00  0.00    +0.000 C 
ATOM      8  N   UNL     1       3.503   4.180  19.529  0.00  0.00    +0.000 NA
ATOM      9  O   UNL     1       3.698   5.151  18.563  0.00  0.00    +0.000 OA
ATOM     10  C   UNL     1       2.947   6.243  18.859  0.00  0.00    +0.000 A 
ATOM     11  C   UNL     1       2.896   7.420  18.124  0.00  0.00    +0.000 A 
ATOM     12  C   UNL     1       2.085   8.453  18.635  0.00  0.00    +0.000 A 
ATOM     13  C   UNL     1       2.033   9.745  17.861  0.00  0.00    +0.000 C 
ENDBRANCH   1   3
BRANCH   1  14
ATOM     14  S   UNL     1       0.322   9.431  22.044  0.00  0.00    +0.000 S 
ATOM     15  O   UNL     1       1.591   9.357  22.738  0.00  0.00    +0.000 OA
ATOM     16  O   UNL     1      -0.737   8.494  22.341  0.00  0.00    +0.000 OA
BRANCH  14  23
ATOM     17  C   UNL     1       0.177  12.201  21.724  0.00  0.00    +0.000 A 
ATOM     18  C   UNL     1      -0.531  13.412  21.820  0.00  0.00    +0.000 A 
ATOM     19  C   UNL     1      -1.727  13.488  22.541  0.00  0.00    +0.000 A 
ATOM     20  C   UNL     1      -2.225  12.358  23.175  0.00  0.00    +0.000 A 
ATOM     21 BR   UNL     1      -3.846  12.469  24.139  0.00  0.00    +0.000 Br
ATOM     22  C   UNL     1      -1.556  11.142  23.075  0.00  0.00    +0.000 A 
ATOM     23  C   UNL     1      -0.363  11.060  22.338  0.00  0.00    +0.000 A 
BRANCH  17  25
ATOM     24  C   UNL     1       1.726  13.148  20.184  0.00  0.00    +0.000 C 
ATOM     25  O   UNL     1       1.358  12.071  21.046  0.00  0.00    +0.000 OA
ENDBRANCH  17  25
ENDBRANCH  14  23
ENDBRANCH   1  14
TORSDOF 4
ENDMDL
MODEL 6
REMARK VINA RESULT:      -7.4      3.413      6.794
REMARK  Name = 
REMARK  7 active torsions:
REMARK  status: ('A' for Active; 'I' for Inactive)
REMARK    1  A    between atoms: C_1  and  O_2
REMARK    2  A    between atoms: O_2  and  C_3
REMARK    3  A    between atoms: C_9  and  S_10
REMARK    4  A    between atoms: S_10  and  N_13
REMARK    5  A    between atoms: N_13  and  C_14
REMARK    6  A    between atoms: C_17  and  C_18
REMARK    7  A    between atoms: C_23  and  C_24
REMARK                            x       y       z     vdW  Elec       q    Type
REMARK                         _______ _______ _______ _____ _____    ______ ____
ROOT
ATOM      1  N   UNL     1       3.712   5.897  19.587  0.00  0.00    +0.000 N 
ATOM      2  H   UNL     1       4.701   6.059  19.782  0.00  0.00    +0.000 HD
ENDROOT
BRANCH   1   3
ATOM      3  C   UNL     1       2.893   7.060  19.442  0.00  0.00    +0.000 A 
ATOM      4  C   UNL     1       1.971   7.382  20.451  0.00  0.00    +0.000 A 
ATOM      5  C   UNL     1       1.096   8.465  20.242  0.00  0.00    +0.000 A 
ATOM      6  C   UNL     1       0.024   9.098  20.926  0.00  0.00    +0.000 A 
ATOM      7  C   UNL     1      -0.562   8.771  22.244  0.00  0.00    +0.000 C 
ATOM      8  N   UNL     1      -0.488  10.113  20.215  0.00  0.00    +0.000 NA
ATOM      9  O   UNL     1       0.254  10.165  19.049  0.00  0.00    +0.000 OA
ATOM     10  C   UNL     1       1.194   9.185  19.065  0.00  0.00    +0.000 A 
ATOM     11  C   UNL     1       2.113   8.922  18.058  0.00  0.00    +0.000 A 
ATOM     12  C   UNL     1       2.973   7.824  18.255  0.00  0.00    +0.000 A 
ATOM     13  C   UNL     1       3.964   7.510  17.163  0.00  0.00    +0.000 C 
ENDBRANCH   1   3
BRANCH   1  14
ATOM     14  S   UNL     1       3.510   4.575  18.557  0.00  0.00    +0.000 S 
ATOM     15  O   UNL     1       2.328   4.792  17.749  0.00  0.00    +0.000 OA
ATOM     16  O   UNL     1       3.643   3.385  19.364  0.00  0.00    +0.000 OA
BRANCH  14  23
ATOM     17  C   UNL     1       6.233   4.722  17.958  0.00  0.00    +0.000 A 
ATOM     18  C   UNL     1       7.309   4.510  17.079  0.00  0.00    +0.000 A 
ATOM     19  C   UNL     1       7.085   4.210  15.731  0.00  0.00    +0.000 A 
ATOM     20  C   UNL     1       5.787   4.122  15.249  0.00  0.00    +0.000 A 
ATOM     21 BR   UNL     1       5.495   3.708  13.429  0.00  0.00    +0.000 Br
ATOM     22  C   UNL     1       4.704   4.305  16.104  0.00  0.00    +0.000 A 
ATOM     23  C   UNL     1       4.926   4.590  17.461  0.00  0.00    +0.000 A 
BRANCH  17  25
ATOM     24  C   UNL     1       7.610   5.682  19.647  0.00  0.00    +0.000 C 
ATOM     25  O   UNL     1       6.391   5.034  19.281  0.00  0.00    +0.000 OA
ENDBRANCH  17  25
ENDBRANCH  14  23
ENDBRANCH   1  14
TORSDOF 4
ENDMDL
MODEL 7
REMARK VINA RESULT:      -7.3      4.569      7.044
REMARK  Name = 
REMARK  7 active torsions:
REMARK  status: ('A' for Active; 'I' for Inactive)
REMARK    1  A    between atoms: C_1  and  O_2
REMARK    2  A    between atoms: O_2  and  C_3
REMARK    3  A    between atoms: C_9  and  S_10
REMARK    4  A    between atoms: S_10  and  N_13
REMARK    5  A    between atoms: N_13  and  C_14
REMARK    6  A    between atoms: C_17  and  C_18
REMARK    7  A    between atoms: C_23  and  C_24
REMARK                            x       y       z     vdW  Elec       q    Type
REMARK                         _______ _______ _______ _____ _____    ______ ____
ROOT
ATOM      1  N   UNL     1       2.060   8.482  20.860  0.00  0.00    +0.000 N 
ATOM      2  H   UNL     1       2.922   8.652  21.379  0.00  0.00    +0.000 HD
ENDROOT
BRANCH   1   3
ATOM      3  C   UNL     1       1.986   7.255  20.131  0.00  0.00    +0.000 A 
ATOM      4  C   UNL     1       1.754   6.056  20.825  0.00  0.00    +0.000 A 
ATOM      5  C   UNL     1       1.795   4.845  20.108  0.00  0.00    +0.000 A 
ATOM      6  C   UNL     1       1.672   3.456  20.380  0.00  0.00    +0.000 A 
ATOM      7  C   UNL     1       1.417   2.780  21.671  0.00  0.00    +0.000 C 
ATOM      8  N   UNL     1       1.833   2.717  19.274  0.00  0.00    +0.000 NA
ATOM      9  O   UNL     1       2.057   3.619  18.250  0.00  0.00    +0.000 OA
ATOM     10  C   UNL     1       2.036   4.883  18.746  0.00  0.00    +0.000 A 
ATOM     11  C   UNL     1       2.237   6.048  18.016  0.00  0.00    +0.000 A 
ATOM     12  C   UNL     1       2.220   7.258  18.737  0.00  0.00    +0.000 A 
ATOM     13  C   UNL     1       2.456   8.531  17.965  0.00  0.00    +0.000 C 
ENDBRANCH   1   3
BRANCH   1  14
ATOM     14  S   UNL     1       0.720   9.047  21.719  0.00  0.00    +0.000 S 
ATOM     15  O   UNL     1       1.087   9.188  23.113  0.00  0.00    +0.000 OA
ATOM     16  O   UNL     1      -0.406   8.230  21.333  0.00  0.00    +0.000 OA
BRANCH  14  23
ATOM     17  C   UNL     1      -0.537  11.540  21.702  0.00  0.00    +0.000 A 
ATOM     18  C   UNL     1      -0.597  12.881  21.286  0.00  0.00    +0.000 A 
ATOM     19  C   UNL     1       0.218  13.347  20.249  0.00  0.00    +0.000 A 
ATOM     20  C   UNL     1       1.097  12.478  19.616  0.00  0.00    +0.000 A 
ATOM     21 BR   UNL     1       2.199  13.118  18.222  0.00  0.00    +0.000 Br
ATOM     22  C   UNL     1       1.191  11.151  20.026  0.00  0.00    +0.000 A 
ATOM     23  C   UNL     1       0.386  10.685  21.078  0.00  0.00    +0.000 A 
BRANCH  17  25
ATOM     24  C   UNL     1      -2.342  11.878  23.219  0.00  0.00    +0.000 C 
ATOM     25  O   UNL     1      -1.320  11.025  22.699  0.00  0.00    +0.000 OA
ENDBRANCH  17  25
ENDBRANCH  14  23
ENDBRANCH   1  14
TORSDOF 4
ENDMDL
MODEL 8
REMARK VINA RESULT:      -7.3      3.840      7.200
REMARK  Name = 
REMARK  7 active torsions:
REMARK  status: ('A' for Active; 'I' for Inactive)
REMARK    1  A    between atoms: C_1  and  O_2
REMARK    2  A    between atoms: O_2  and  C_3
REMARK    3  A    between atoms: C_9  and  S_10
REMARK    4  A    between atoms: S_10  and  N_13
REMARK    5  A    between atoms: N_13  and  C_14
REMARK    6  A    between atoms: C_17  and  C_18
REMARK    7  A    between atoms: C_23  and  C_24
REMARK                            x       y       z     vdW  Elec       q    Type
REMARK                         _______ _______ _______ _____ _____    ______ ____
ROOT
ATOM      1  N   UNL     1       2.734   6.747  20.536  0.00  0.00    +0.000 N 
ATOM      2  H   UNL     1       3.710   6.774  20.239  0.00  0.00    +0.000 HD
ENDROOT
BRANCH   1   3
ATOM      3  C   UNL     1       1.953   7.913  20.265  0.00  0.00    +0.000 A 
ATOM      4  C   UNL     1       1.211   8.499  21.304  0.00  0.00    +0.000 A 
ATOM      5  C   UNL     1       0.361   9.579  20.996  0.00  0.00    +0.000 A 
ATOM      6  C   UNL     1      -0.565  10.415  21.675  0.00  0.00    +0.000 A 
ATOM      7  C   UNL     1      -0.955  10.405  23.102  0.00  0.00    +0.000 C 
ATOM      8  N   UNL     1      -1.136  11.300  20.846  0.00  0.00    +0.000 NA
ATOM      9  O   UNL     1      -0.580  11.061  19.602  0.00  0.00    +0.000 OA
ATOM     10  C   UNL     1       0.308  10.038  19.692  0.00  0.00    +0.000 A 
ATOM     11  C   UNL     1       1.050   9.509  18.643  0.00  0.00    +0.000 A 
ATOM     12  C   UNL     1       1.883   8.413  18.944  0.00  0.00    +0.000 A 
ATOM     13  C   UNL     1       2.680   7.812  17.814  0.00  0.00    +0.000 C 
ENDBRANCH   1   3
BRANCH   1  14
ATOM     14  S   UNL     1       2.079   5.207  20.306  0.00  0.00    +0.000 S 
ATOM     15  O   UNL     1       0.727   5.347  19.805  0.00  0.00    +0.000 OA
ATOM     16  O   UNL     1       2.345   4.450  21.506  0.00  0.00    +0.000 OA
BRANCH  14  23
ATOM     17  C   UNL     1       2.463   3.688  17.995  0.00  0.00    +0.000 A 
ATOM     18  C   UNL     1       3.252   3.303  16.897  0.00  0.00    +0.000 A 
ATOM     19  C   UNL     1       4.609   3.637  16.837  0.00  0.00    +0.000 A 
ATOM     20  C   UNL     1       5.191   4.355  17.872  0.00  0.00    +0.000 A 
ATOM     21 BR   UNL     1       7.023   4.809  17.778  0.00  0.00    +0.000 Br
ATOM     22  C   UNL     1       4.426   4.769  18.959  0.00  0.00    +0.000 A 
ATOM     23  C   UNL     1       3.060   4.448  19.014  0.00  0.00    +0.000 A 
BRANCH  17  25
ATOM     24  C   UNL     1       0.824   2.120  18.717  0.00  0.00    +0.000 C 
ATOM     25  O   UNL     1       1.136   3.377  18.115  0.00  0.00    +0.000 OA
ENDBRANCH  17  25
ENDBRANCH  14  23
ENDBRANCH   1  14
TORSDOF 4
ENDMDL
MODEL 9
REMARK VINA RESULT:      -7.1      2.260      2.885
REMARK  Name = 
REMARK  7 active torsions:
REMARK  status: ('A' for Active; 'I' for Inactive)
REMARK    1  A    between atoms: C_1  and  O_2
REMARK    2  A    between atoms: O_2  and  C_3
REMARK    3  A    between atoms: C_9  and  S_10
REMARK    4  A    between atoms: S_10  and  N_13
REMARK    5  A    between atoms: N_13  and  C_14
REMARK    6  A    between atoms: C_17  and  C_18
REMARK    7  A    between atoms: C_23  and  C_24
REMARK                            x       y       z     vdW  Elec       q    Type
REMARK                         _______ _______ _______ _____ _____    ______ ____
ROOT
ATOM      1  N   UNL     1       5.548   3.661  17.480  0.00  0.00    +0.000 N 
ATOM      2  H   UNL     1       6.147   3.026  18.008  0.00  0.00    +0.000 HD
ENDROOT
BRANCH   1   3
ATOM      3  C   UNL     1       6.093   4.189  16.269  0.00  0.00    +0.000 A 
ATOM      4  C   UNL     1       5.800   3.556  15.050  0.00  0.00    +0.000 A 
ATOM      5  C   UNL     1       6.432   4.022  13.881  0.00  0.00    +0.000 A 
ATOM      6  C   UNL     1       6.477   3.682  12.502  0.00  0.00    +0.000 A 
ATOM      7  C   UNL     1       5.766   2.601  11.787  0.00  0.00    +0.000 C 
ATOM      8  N   UNL     1       7.306   4.484  11.820  0.00  0.00    +0.000 NA
ATOM      9  O   UNL     1       7.815   5.375  12.748  0.00  0.00    +0.000 OA
ATOM     10  C   UNL     1       7.297   5.099  13.972  0.00  0.00    +0.000 A 
ATOM     11  C   UNL     1       7.587   5.774  15.151  0.00  0.00    +0.000 A 
ATOM     12  C   UNL     1       6.974   5.294  16.325  0.00  0.00    +0.000 A 
ATOM     13  C   UNL     1       7.294   6.001  17.617  0.00  0.00    +0.000 C 
ENDBRANCH   1   3
BRANCH   1  14
ATOM     14  S   UNL     1       3.936   3.163  17.546  0.00  0.00    +0.000 S 
ATOM     15  O   UNL     1       3.901   1.724  17.709  0.00  0.00    +0.000 OA
ATOM     16  O   UNL     1       3.251   3.797  16.444  0.00  0.00    +0.000 OA
BRANCH  14  23
ATOM     17  C   UNL     1       3.170   5.287  19.188  0.00  0.00    +0.000 A 
ATOM     18  C   UNL     1       2.438   5.796  20.274  0.00  0.00    +0.000 A 
ATOM     19  C   UNL     1       1.842   4.936  21.203  0.00  0.00    +0.000 A 
ATOM     20  C   UNL     1       1.975   3.562  21.057  0.00  0.00    +0.000 A 
ATOM     21 BR   UNL     1       1.160   2.408  22.311  0.00  0.00    +0.000 Br
ATOM     22  C   UNL     1       2.675   3.033  19.976  0.00  0.00    +0.000 A 
ATOM     23  C   UNL     1       3.261   3.894  19.034  0.00  0.00    +0.000 A 
BRANCH  17  25
ATOM     24  C   UNL     1       3.111   7.282  17.889  0.00  0.00    +0.000 C 
ATOM     25  O   UNL     1       3.787   6.079  18.258  0.00  0.00    +0.000 OA
ENDBRANCH  17  25
ENDBRANCH  14  23
ENDBRANCH   1  14
TORSDOF 4
ENDMDL
