MODEL 1
REMARK VINA RESULT:      -7.9      0.000      0.000
REMARK  Name = 
REMARK  8 active torsions:
REMARK  status: ('A' for Active; 'I' for Inactive)
REMARK    1  A    between atoms: C_1  and  O_2
REMARK    2  A    between atoms: O_2  and  C_3
REMARK    3  A    between atoms: C_3  and  C_5
REMARK    4  A    between atoms: C_9  and  N_10
REMARK    5  A    between atoms: N_13  and  C_14
REMARK    6  A    between atoms: C_17  and  N_18
REMARK    7  A    between atoms: C_19  and  C_21
REMARK    8  A    between atoms: C_25  and  C_26
REMARK                            x       y       z     vdW  Elec       q    Type
REMARK                         _______ _______ _______ _____ _____    ______ ____
ROOT
ATOM      1  C   UNL     1       0.936  10.430  18.641  0.00  0.00    +0.000 A 
ATOM      2  C   UNL     1      -0.392  10.161  18.971  0.00  0.00    +0.000 A 
ATOM      3  C   UNL     1      -1.113  11.038  19.788  0.00  0.00    +0.000 A 
ATOM      4  C   UNL     1      -0.533  12.204  20.290  0.00  0.00    +0.000 A 
ATOM      5  C   UNL     1       0.793  12.485  19.937  0.00  0.00    +0.000 A 
ATOM      6  C   UNL     1       1.535  11.582  19.150  0.00  0.00    +0.000 A 
ENDROOT
BRANCH   1  10
ATOM      7  N   UNL     1       2.992   7.737  17.312  0.00  0.00    +0.000 N 
ATOM      8  C   UNL     1       2.310   8.443  18.295  0.00  0.00    +0.000 C 
ATOM      9  O   UNL     1       2.241   8.104  19.473  0.00  0.00    +0.000 OA
ATOM     10  N   UNL     1       1.669   9.568  17.786  0.00  0.00    +0.000 N 
ATOM     11  H   UNL     1       3.342   8.285  16.539  0.00  0.00    +0.000 HD
ATOM     12  H   UNL     1       1.319   9.450  16.847  0.00  0.00    +0.000 HD
BRANCH   7  17
ATOM     13  C   UNL     1       5.475   4.956  17.493  0.00  0.00    +0.000 A 
ATOM     14  C   UNL     1       4.657   3.890  17.893  0.00  0.00    +0.000 A 
ATOM     15  C   UNL     1       3.292   4.087  18.062  0.00  0.00    +0.000 A 
ATOM     16  C   UNL     1       2.742   5.350  17.851  0.00  0.00    +0.000 A 
ATOM     17  C   UNL     1       3.541   6.443  17.494  0.00  0.00    +0.000 A 
ATOM     18  C   UNL     1       4.912   6.233  17.291  0.00  0.00    +0.000 A 
BRANCH  13  19
ATOM     19  C   UNL     1       6.937   4.759  17.277  0.00  0.00    +0.000 C 
ATOM     20  O   UNL     1       7.469   4.764  16.178  0.00  0.00    +0.000 OA
BRANCH  19  22
ATOM     21  C   UNL     1       7.836   5.732  19.225  0.00  0.00    +0.000 C 
ATOM     22  O   UNL     1       7.560   4.554  18.466  0.00  0.00    +0.000 OA
ENDBRANCH  19  22
ENDBRANCH  13  19
ENDBRANCH   7  17
ENDBRANCH   1  10
BRANCH   4  23
ATOM     23  N   UNL     1      -1.235  13.106  21.133  0.00  0.00    +0.000 N 
ATOM     24  C   UNL     1      -1.297  12.998  22.515  0.00  0.00    +0.000 C 
ATOM     25  O   UNL     1      -0.701  12.165  23.187  0.00  0.00    +0.000 OA
ATOM     26  H   UNL     1      -1.569  13.964  20.713  0.00  0.00    +0.000 HD
BRANCH  24  27
ATOM     27  C   UNL     1      -2.087  14.012  23.265  0.00  0.00    +0.000 A 
ATOM     28  C   UNL     1      -1.436  14.670  24.322  0.00  0.00    +0.000 A 
ATOM     29  C   UNL     1      -2.133  15.535  25.161  0.00  0.00    +0.000 A 
ATOM     30  C   UNL     1      -3.495  15.740  24.962  0.00  0.00    +0.000 A 
ATOM     31  C   UNL     1      -4.167  15.094  23.911  0.00  0.00    +0.000 A 
ATOM     32  C   UNL     1      -5.648  15.285  23.746  0.00  0.00    +0.000 C 
ATOM     33  C   UNL     1      -3.454  14.236  23.053  0.00  0.00    +0.000 A 
ENDBRANCH  24  27
ENDBRANCH   4  23
TORSDOF 6
ENDMDL
MODEL 2
REMARK VINA RESULT:      -7.8      0.934      1.444
REMARK  Name = 
REMARK  8 active torsions:
REMARK  status: ('A' for Active; 'I' for Inactive)
REMARK    1  A    between atoms: C_1  and  O_2
REMARK    2  A    between atoms: O_2  and  C_3
REMARK    3  A    between atoms: C_3  and  C_5
REMARK    4  A    between atoms: C_9  and  N_10
REMARK    5  A    between atoms: N_13  and  C_14
REMARK    6  A    between atoms: C_17  and  N_18
REMARK    7  A    between atoms: C_19  and  C_21
REMARK    8  A    between atoms: C_25  and  C_26
REMARK                            x       y       z     vdW  Elec       q    Type
REMARK                         _______ _______ _______ _____ _____    ______ ____
ROOT
ATOM      1  C   UNL     1       0.627  10.432  18.511  0.00  0.00    +0.000 A 
ATOM      2  C   UNL     1      -0.743  10.192  18.413  0.00  0.00    +0.000 A 
ATOM      3  C   UNL     1      -1.657  10.985  19.115  0.00  0.00    +0.000 A 
ATOM      4  C   UNL     1      -1.229  12.039  19.925  0.00  0.00    +0.000 A 
ATOM      5  C   UNL     1       0.145  12.294  20.002  0.00  0.00    +0.000 A 
ATOM      6  C   UNL     1       1.070  11.470  19.331  0.00  0.00    +0.000 A 
ENDROOT
BRANCH   1  10
ATOM      7  N   UNL     1       3.056   7.922  17.489  0.00  0.00    +0.000 N 
ATOM      8  C   UNL     1       2.154   8.535  18.350  0.00  0.00    +0.000 C 
ATOM      9  O   UNL     1       1.872   8.123  19.471  0.00  0.00    +0.000 OA
ATOM     10  N   UNL     1       1.563   9.657  17.779  0.00  0.00    +0.000 N 
ATOM     11  H   UNL     1       3.519   8.531  16.831  0.00  0.00    +0.000 HD
ATOM     12  H   UNL     1       1.413   9.581  16.784  0.00  0.00    +0.000 HD
BRANCH   7  17
ATOM     13  C   UNL     1       5.583   5.182  17.692  0.00  0.00    +0.000 A 
ATOM     14  C   UNL     1       4.801   4.131  18.193  0.00  0.00    +0.000 A 
ATOM     15  C   UNL     1       3.444   4.323  18.423  0.00  0.00    +0.000 A 
ATOM     16  C   UNL     1       2.867   5.566  18.172  0.00  0.00    +0.000 A 
ATOM     17  C   UNL     1       3.631   6.646  17.714  0.00  0.00    +0.000 A 
ATOM     18  C   UNL     1       4.992   6.439  17.450  0.00  0.00    +0.000 A 
BRANCH  13  19
ATOM     19  C   UNL     1       7.034   4.988  17.409  0.00  0.00    +0.000 C 
ATOM     20  O   UNL     1       7.809   4.440  18.175  0.00  0.00    +0.000 OA
BRANCH  19  22
ATOM     21  C   UNL     1       7.082   4.702  15.071  0.00  0.00    +0.000 C 
ATOM     22  O   UNL     1       7.348   5.529  16.204  0.00  0.00    +0.000 OA
ENDBRANCH  19  22
ENDBRANCH  13  19
ENDBRANCH   7  17
ENDBRANCH   1  10
BRANCH   4  23
ATOM     23  N   UNL     1      -2.132  12.852  20.660  0.00  0.00    +0.000 N 
ATOM     24  C   UNL     1      -2.486  12.629  21.983  0.00  0.00    +0.000 C 
ATOM     25  O   UNL     1      -2.017  11.756  22.704  0.00  0.00    +0.000 OA
ATOM     26  H   UNL     1      -2.401  13.734  20.244  0.00  0.00    +0.000 HD
BRANCH  24  27
ATOM     27  C   UNL     1      -3.459  13.560  22.617  0.00  0.00    +0.000 A 
ATOM     28  C   UNL     1      -2.945  14.763  23.129  0.00  0.00    +0.000 A 
ATOM     29  C   UNL     1      -3.754  15.632  23.855  0.00  0.00    +0.000 A 
ATOM     30  C   UNL     1      -5.085  15.301  24.090  0.00  0.00    +0.000 A 
ATOM     31  C   UNL     1      -5.622  14.105  23.587  0.00  0.00    +0.000 A 
ATOM     32  C   UNL     1      -7.045  13.738  23.898  0.00  0.00    +0.000 C 
ATOM     33  C   UNL     1      -4.806  13.238  22.837  0.00  0.00    +0.000 A 
ENDBRANCH  24  27
ENDBRANCH   4  23
TORSDOF 6
ENDMDL
MODEL 3
REMARK VINA RESULT:      -7.8      0.448      1.324
REMARK  Name = 
REMARK  8 active torsions:
REMARK  status: ('A' for Active; 'I' for Inactive)
REMARK    1  A    between atoms: C_1  and  O_2
REMARK    2  A    between atoms: O_2  and  C_3
REMARK    3  A    between atoms: C_3  and  C_5
REMARK    4  A    between atoms: C_9  and  N_10
REMARK    5  A    between atoms: N_13  and  C_14
REMARK    6  A    between atoms: C_17  and  N_18
REMARK    7  A    between atoms: C_19  and  C_21
REMARK    8  A    between atoms: C_25  and  C_26
REMARK                            x       y       z     vdW  Elec       q    Type
REMARK                         _______ _______ _______ _____ _____    ______ ____
ROOT
ATOM      1  C   UNL     1       0.839  10.552  18.576  0.00  0.00    +0.000 A 
ATOM      2  C   UNL     1       1.427  11.733  19.027  0.00  0.00    +0.000 A 
ATOM      3  C   UNL     1       0.726  12.599  19.874  0.00  0.00    +0.000 A 
ATOM      4  C   UNL     1      -0.571  12.305  20.298  0.00  0.00    +0.000 A 
ATOM      5  C   UNL     1      -1.150  11.106  19.865  0.00  0.00    +0.000 A 
ATOM      6  C   UNL     1      -0.464  10.254  18.977  0.00  0.00    +0.000 A 
ENDROOT
BRANCH   1  10
ATOM      7  N   UNL     1       2.878   7.810  17.325  0.00  0.00    +0.000 N 
ATOM      8  C   UNL     1       2.227   8.565  18.292  0.00  0.00    +0.000 C 
ATOM      9  O   UNL     1       2.212   8.298  19.490  0.00  0.00    +0.000 OA
ATOM     10  N   UNL     1       1.549   9.649  17.744  0.00  0.00    +0.000 N 
ATOM     11  H   UNL     1       3.187   8.314  16.507  0.00  0.00    +0.000 HD
ATOM     12  H   UNL     1       1.162   9.470  16.829  0.00  0.00    +0.000 HD
BRANCH   7  17
ATOM     13  C   UNL     1       5.421   5.095  17.639  0.00  0.00    +0.000 A 
ATOM     14  C   UNL     1       4.621   4.026  18.068  0.00  0.00    +0.000 A 
ATOM     15  C   UNL     1       3.250   4.197  18.213  0.00  0.00    +0.000 A 
ATOM     16  C   UNL     1       2.675   5.439  17.949  0.00  0.00    +0.000 A 
ATOM     17  C   UNL     1       3.454   6.536  17.562  0.00  0.00    +0.000 A 
ATOM     18  C   UNL     1       4.831   6.350  17.383  0.00  0.00    +0.000 A 
BRANCH  13  19
ATOM     19  C   UNL     1       6.889   4.923  17.446  0.00  0.00    +0.000 C 
ATOM     20  O   UNL     1       7.623   4.381  18.257  0.00  0.00    +0.000 OA
BRANCH  19  22
ATOM     21  C   UNL     1       7.064   4.661  15.112  0.00  0.00    +0.000 C 
ATOM     22  O   UNL     1       7.271   5.475  16.266  0.00  0.00    +0.000 OA
ENDBRANCH  19  22
ENDBRANCH  13  19
ENDBRANCH   7  17
ENDBRANCH   1  10
BRANCH   4  23
ATOM     23  N   UNL     1      -1.311  13.170  21.147  0.00  0.00    +0.000 N 
ATOM     24  C   UNL     1      -1.328  13.082  22.532  0.00  0.00    +0.000 C 
ATOM     25  O   UNL     1      -0.658  12.305  23.199  0.00  0.00    +0.000 OA
ATOM     26  H   UNL     1      -1.716  13.995  20.723  0.00  0.00    +0.000 HD
BRANCH  24  27
ATOM     27  C   UNL     1      -2.168  14.051  23.288  0.00  0.00    +0.000 A 
ATOM     28  C   UNL     1      -1.564  14.696  24.381  0.00  0.00    +0.000 A 
ATOM     29  C   UNL     1      -2.308  15.516  25.224  0.00  0.00    +0.000 A 
ATOM     30  C   UNL     1      -3.670  15.689  24.993  0.00  0.00    +0.000 A 
ATOM     31  C   UNL     1      -4.294  15.056  23.905  0.00  0.00    +0.000 A 
ATOM     32  C   UNL     1      -5.775  15.212  23.704  0.00  0.00    +0.000 C 
ATOM     33  C   UNL     1      -3.534  14.244  23.043  0.00  0.00    +0.000 A 
ENDBRANCH  24  27
ENDBRANCH   4  23
TORSDOF 6
ENDMDL
MODEL 4
REMARK VINA RESULT:      -7.7      1.134      1.350
REMARK  Name = 
REMARK  8 active torsions:
REMARK  status: ('A' for Active; 'I' for Inactive)
REMARK    1  A    between atoms: C_1  and  O_2
REMARK    2  A    between atoms: O_2  and  C_3
REMARK    3  A    between atoms: C_3  and  C_5
REMARK    4  A    between atoms: C_9  and  N_10
REMARK    5  A    between atoms: N_13  and  C_14
REMARK    6  A    between atoms: C_17  and  N_18
REMARK    7  A    between atoms: C_19  and  C_21
REMARK    8  A    between atoms: C_25  and  C_26
REMARK                            x       y       z     vdW  Elec       q    Type
REMARK                         _______ _______ _______ _____ _____    ______ ____
ROOT
ATOM      1  C   UNL     1       0.701  10.285  18.452  0.00  0.00    +0.000 A 
ATOM      2  C   UNL     1      -0.666  10.115  18.243  0.00  0.00    +0.000 A 
ATOM      3  C   UNL     1      -1.596  10.886  18.948  0.00  0.00    +0.000 A 
ATOM      4  C   UNL     1      -1.187  11.849  19.872  0.00  0.00    +0.000 A 
ATOM      5  C   UNL     1       0.188  12.036  20.063  0.00  0.00    +0.000 A 
ATOM      6  C   UNL     1       1.125  11.231  19.386  0.00  0.00    +0.000 A 
ENDROOT
BRANCH   1  10
ATOM      7  N   UNL     1       3.141   7.796  17.406  0.00  0.00    +0.000 N 
ATOM      8  C   UNL     1       2.213   8.379  18.259  0.00  0.00    +0.000 C 
ATOM      9  O   UNL     1       1.885   7.919  19.349  0.00  0.00    +0.000 OA
ATOM     10  N   UNL     1       1.656   9.534  17.720  0.00  0.00    +0.000 N 
ATOM     11  H   UNL     1       3.636   8.429  16.795  0.00  0.00    +0.000 HD
ATOM     12  H   UNL     1       1.544   9.506  16.718  0.00  0.00    +0.000 HD
BRANCH   7  17
ATOM     13  C   UNL     1       5.626   5.014  17.559  0.00  0.00    +0.000 A 
ATOM     14  C   UNL     1       4.817   3.955  17.995  0.00  0.00    +0.000 A 
ATOM     15  C   UNL     1       3.457   4.156  18.197  0.00  0.00    +0.000 A 
ATOM     16  C   UNL     1       2.903   5.416  17.984  0.00  0.00    +0.000 A 
ATOM     17  C   UNL     1       3.694   6.503  17.591  0.00  0.00    +0.000 A 
ATOM     18  C   UNL     1       5.058   6.289  17.354  0.00  0.00    +0.000 A 
BRANCH  13  19
ATOM     19  C   UNL     1       7.081   4.813  17.306  0.00  0.00    +0.000 C 
ATOM     20  O   UNL     1       7.591   4.849  16.198  0.00  0.00    +0.000 OA
BRANCH  19  22
ATOM     21  C   UNL     1       7.946   5.703  19.308  0.00  0.00    +0.000 C 
ATOM     22  O   UNL     1       7.726   4.564  18.476  0.00  0.00    +0.000 OA
ENDBRANCH  19  22
ENDBRANCH  13  19
ENDBRANCH   7  17
ENDBRANCH   1  10
BRANCH   4  23
ATOM     23  N   UNL     1      -2.107  12.637  20.613  0.00  0.00    +0.000 N 
ATOM     24  C   UNL     1      -2.394  12.447  21.958  0.00  0.00    +0.000 C 
ATOM     25  O   UNL     1      -1.845  11.635  22.691  0.00  0.00    +0.000 OA
ATOM     26  H   UNL     1      -2.445  13.484  20.175  0.00  0.00    +0.000 HD
BRANCH  24  27
ATOM     27  C   UNL     1      -3.396  13.345  22.596  0.00  0.00    +0.000 A 
ATOM     28  C   UNL     1      -4.344  12.740  23.439  0.00  0.00    +0.000 A 
ATOM     29  C   UNL     1      -5.397  13.478  23.972  0.00  0.00    +0.000 A 
ATOM     30  C   UNL     1      -5.523  14.827  23.656  0.00  0.00    +0.000 A 
ATOM     31  C   UNL     1      -4.587  15.453  22.817  0.00  0.00    +0.000 A 
ATOM     32  C   UNL     1      -4.770  16.897  22.443  0.00  0.00    +0.000 C 
ATOM     33  C   UNL     1      -3.512  14.709  22.296  0.00  0.00    +0.000 A 
ENDBRANCH  24  27
ENDBRANCH   4  23
TORSDOF 6
ENDMDL
MODEL 5
REMARK VINA RESULT:      -7.7      0.566      1.812
REMARK  Name = 
REMARK  8 active torsions:
REMARK  status: ('A' for Active; 'I' for Inactive)
REMARK    1  A    between atoms: C_1  and  O_2
REMARK    2  A    between atoms: O_2  and  C_3
REMARK    3  A    between atoms: C_3  and  C_5
REMARK    4  A    between atoms: C_9  and  N_10
REMARK    5  A    between atoms: N_13  and  C_14
REMARK    6  A    between atoms: C_17  and  N_18
REMARK    7  A    between atoms: C_19  and  C_21
REMARK    8  A    between atoms: C_25  and  C_26
REMARK                            x       y       z     vdW  Elec       q    Type
REMARK                         _______ _______ _______ _____ _____    ______ ____
ROOT
ATOM      1  C   UNL     1       0.968  10.537  18.686  0.00  0.00    +0.000 A 
ATOM      2  C   UNL     1       1.526  11.741  19.115  0.00  0.00    +0.000 A 
ATOM      3  C   UNL     1       0.831  12.573  20.000  0.00  0.00    +0.000 A 
ATOM      4  C   UNL     1      -0.432  12.223  20.482  0.00  0.00    +0.000 A 
ATOM      5  C   UNL     1      -0.979  11.002  20.070  0.00  0.00    +0.000 A 
ATOM      6  C   UNL     1      -0.300  10.183  19.146  0.00  0.00    +0.000 A 
ENDROOT
BRANCH   1  10
ATOM      7  N   UNL     1       2.994   7.841  17.321  0.00  0.00    +0.000 N 
ATOM      8  C   UNL     1       2.344   8.556  18.319  0.00  0.00    +0.000 C 
ATOM      9  O   UNL     1       2.322   8.235  19.503  0.00  0.00    +0.000 OA
ATOM     10  N   UNL     1       1.676   9.668  17.817  0.00  0.00    +0.000 N 
ATOM     11  H   UNL     1       3.311   8.379  16.528  0.00  0.00    +0.000 HD
ATOM     12  H   UNL     1       1.292   9.534  16.893  0.00  0.00    +0.000 HD
BRANCH   7  17
ATOM     13  C   UNL     1       5.518   5.098  17.530  0.00  0.00    +0.000 A 
ATOM     14  C   UNL     1       4.708   4.014  17.898  0.00  0.00    +0.000 A 
ATOM     15  C   UNL     1       3.336   4.187  18.037  0.00  0.00    +0.000 A 
ATOM     16  C   UNL     1       2.771   5.443  17.827  0.00  0.00    +0.000 A 
ATOM     17  C   UNL     1       3.560   6.553  17.502  0.00  0.00    +0.000 A 
ATOM     18  C   UNL     1       4.939   6.368  17.329  0.00  0.00    +0.000 A 
BRANCH  13  19
ATOM     19  C   UNL     1       6.987   4.927  17.346  0.00  0.00    +0.000 C 
ATOM     20  O   UNL     1       7.726   4.437  18.186  0.00  0.00    +0.000 OA
BRANCH  19  22
ATOM     21  C   UNL     1       6.998   4.613  15.011  0.00  0.00    +0.000 C 
ATOM     22  O   UNL     1       7.364   5.413  16.135  0.00  0.00    +0.000 OA
ENDBRANCH  19  22
ENDBRANCH  13  19
ENDBRANCH   7  17
ENDBRANCH   1  10
BRANCH   4  23
ATOM     23  N   UNL     1      -1.168  13.052  21.369  0.00  0.00    +0.000 N 
ATOM     24  C   UNL     1      -1.392  12.762  22.708  0.00  0.00    +0.000 C 
ATOM     25  O   UNL     1      -0.929  11.803  23.311  0.00  0.00    +0.000 OA
ATOM     26  H   UNL     1      -1.398  13.983  21.045  0.00  0.00    +0.000 HD
BRANCH  24  27
ATOM     27  C   UNL     1      -2.198  13.723  23.510  0.00  0.00    +0.000 A 
ATOM     28  C   UNL     1      -3.588  13.716  23.299  0.00  0.00    +0.000 A 
ATOM     29  C   UNL     1      -4.405  14.667  23.904  0.00  0.00    +0.000 A 
ATOM     30  C   UNL     1      -3.839  15.646  24.715  0.00  0.00    +0.000 A 
ATOM     31  C   UNL     1      -2.453  15.672  24.941  0.00  0.00    +0.000 A 
ATOM     32  C   UNL     1      -1.856  16.768  25.776  0.00  0.00    +0.000 C 
ATOM     33  C   UNL     1      -1.633  14.696  24.345  0.00  0.00    +0.000 A 
ENDBRANCH  24  27
ENDBRANCH   4  23
TORSDOF 6
ENDMDL
MODEL 6
REMARK VINA RESULT:      -7.6      1.803      2.947
REMARK  Name = 
REMARK  8 active torsions:
REMARK  status: ('A' for Active; 'I' for Inactive)
REMARK    1  A    between atoms: C_1  and  O_2
REMARK    2  A    between atoms: O_2  and  C_3
REMARK    3  A    between atoms: C_3  and  C_5
REMARK    4  A    between atoms: C_9  and  N_10
REMARK    5  A    between atoms: N_13  and  C_14
REMARK    6  A    between atoms: C_17  and  N_18
REMARK    7  A    between atoms: C_19  and  C_21
REMARK    8  A    between atoms: C_25  and  C_26
REMARK                            x       y       z     vdW  Elec       q    Type
REMARK                         _______ _______ _______ _____ _____    ______ ____
ROOT
ATOM      1  C   UNL     1       0.669  10.508  18.607  0.00  0.00    +0.000 A 
ATOM      2  C   UNL     1       1.133  11.479  19.494  0.00  0.00    +0.000 A 
ATOM      3  C   UNL     1       0.235  12.233  20.257  0.00  0.00    +0.000 A 
ATOM      4  C   UNL     1      -1.144  12.032  20.161  0.00  0.00    +0.000 A 
ATOM      5  C   UNL     1      -1.606  11.039  19.289  0.00  0.00    +0.000 A 
ATOM      6  C   UNL     1      -0.706  10.309  18.488  0.00  0.00    +0.000 A 
ENDROOT
BRANCH   1  10
ATOM      7  N   UNL     1       2.994   7.928  17.518  0.00  0.00    +0.000 N 
ATOM      8  C   UNL     1       2.123   8.559  18.398  0.00  0.00    +0.000 C 
ATOM      9  O   UNL     1       1.837   8.138  19.515  0.00  0.00    +0.000 OA
ATOM     10  N   UNL     1       1.569   9.712  17.852  0.00  0.00    +0.000 N 
ATOM     11  H   UNL     1       3.474   8.531  16.866  0.00  0.00    +0.000 HD
ATOM     12  H   UNL     1       1.407   9.659  16.858  0.00  0.00    +0.000 HD
BRANCH   7  17
ATOM     13  C   UNL     1       3.170   4.231  18.006  0.00  0.00    +0.000 A 
ATOM     14  C   UNL     1       4.557   4.034  18.063  0.00  0.00    +0.000 A 
ATOM     15  C   UNL     1       5.419   5.120  17.979  0.00  0.00    +0.000 A 
ATOM     16  C   UNL     1       4.902   6.404  17.820  0.00  0.00    +0.000 A 
ATOM     17  C   UNL     1       3.524   6.628  17.715  0.00  0.00    +0.000 A 
ATOM     18  C   UNL     1       2.656   5.533  17.835  0.00  0.00    +0.000 A 
BRANCH  13  19
ATOM     19  C   UNL     1       2.228   3.083  18.124  0.00  0.00    +0.000 C 
ATOM     20  O   UNL     1       2.417   1.991  17.611  0.00  0.00    +0.000 OA
BRANCH  19  22
ATOM     21  C   UNL     1       1.207   3.133  20.247  0.00  0.00    +0.000 C 
ATOM     22  O   UNL     1       1.142   3.445  18.855  0.00  0.00    +0.000 OA
ENDBRANCH  19  22
ENDBRANCH  13  19
ENDBRANCH   7  17
ENDBRANCH   1  10
BRANCH   4  23
ATOM     23  N   UNL     1      -2.080  12.791  20.912  0.00  0.00    +0.000 N 
ATOM     24  C   UNL     1      -2.471  12.489  22.209  0.00  0.00    +0.000 C 
ATOM     25  O   UNL     1      -2.011  11.585  22.894  0.00  0.00    +0.000 OA
ATOM     26  H   UNL     1      -2.349  13.692  20.538  0.00  0.00    +0.000 HD
BRANCH  24  27
ATOM     27  C   UNL     1      -3.477  13.371  22.863  0.00  0.00    +0.000 A 
ATOM     28  C   UNL     1      -4.818  13.194  22.483  0.00  0.00    +0.000 A 
ATOM     29  C   UNL     1      -5.809  14.059  22.940  0.00  0.00    +0.000 A 
ATOM     30  C   UNL     1      -5.466  15.121  23.772  0.00  0.00    +0.000 A 
ATOM     31  C   UNL     1      -4.132  15.316  24.167  0.00  0.00    +0.000 A 
ATOM     32  C   UNL     1      -3.774  16.499  25.020  0.00  0.00    +0.000 C 
ATOM     33  C   UNL     1      -3.137  14.428  23.718  0.00  0.00    +0.000 A 
ENDBRANCH  24  27
ENDBRANCH   4  23
TORSDOF 6
ENDMDL
MODEL 7
REMARK VINA RESULT:      -7.6      2.051      2.937
REMARK  Name = 
REMARK  8 active torsions:
REMARK  status: ('A' for Active; 'I' for Inactive)
REMARK    1  A    between atoms: C_1  and  O_2
REMARK    2  A    between atoms: O_2  and  C_3
REMARK    3  A    between atoms: C_3  and  C_5
REMARK    4  A    between atoms: C_9  and  N_10
REMARK    5  A    between atoms: N_13  and  C_14
REMARK    6  A    between atoms: C_17  and  N_18
REMARK    7  A    between atoms: C_19  and  C_21
REMARK    8  A    between atoms: C_25  and  C_26
REMARK                            x       y       z     vdW  Elec       q    Type
REMARK                         _______ _______ _______ _____ _____    ______ ____
ROOT
ATOM      1  C   UNL     1       0.383  10.587  18.543  0.00  0.00    +0.000 A 
ATOM      2  C   UNL     1       0.793  11.468  19.543  0.00  0.00    +0.000 A 
ATOM      3  C   UNL     1      -0.144  12.234  20.245  0.00  0.00    +0.000 A 
ATOM      4  C   UNL     1      -1.510  12.135  19.974  0.00  0.00    +0.000 A 
ATOM      5  C   UNL     1      -1.921  11.231  18.987  0.00  0.00    +0.000 A 
ATOM      6  C   UNL     1      -0.977  10.491  18.249  0.00  0.00    +0.000 A 
ENDROOT
BRANCH   1  10
ATOM      7  N   UNL     1       2.780   8.007  17.625  0.00  0.00    +0.000 N 
ATOM      8  C   UNL     1       1.872   8.656  18.453  0.00  0.00    +0.000 C 
ATOM      9  O   UNL     1       1.558   8.272  19.575  0.00  0.00    +0.000 OA
ATOM     10  N   UNL     1       1.318   9.779  17.847  0.00  0.00    +0.000 N 
ATOM     11  H   UNL     1       3.271   8.593  16.965  0.00  0.00    +0.000 HD
ATOM     12  H   UNL     1       1.188   9.686  16.851  0.00  0.00    +0.000 HD
BRANCH   7  17
ATOM     13  C   UNL     1       2.994   4.364  18.409  0.00  0.00    +0.000 A 
ATOM     14  C   UNL     1       4.380   4.161  18.367  0.00  0.00    +0.000 A 
ATOM     15  C   UNL     1       5.233   5.229  18.119  0.00  0.00    +0.000 A 
ATOM     16  C   UNL     1       4.705   6.499  17.895  0.00  0.00    +0.000 A 
ATOM     17  C   UNL     1       3.323   6.724  17.887  0.00  0.00    +0.000 A 
ATOM     18  C   UNL     1       2.468   5.651  18.172  0.00  0.00    +0.000 A 
BRANCH  13  19
ATOM     19  C   UNL     1       2.063   3.237  18.704  0.00  0.00    +0.000 C 
ATOM     20  O   UNL     1       1.168   2.880  17.956  0.00  0.00    +0.000 OA
BRANCH  19  22
ATOM     21  C   UNL     1       1.406   2.982  20.952  0.00  0.00    +0.000 C 
ATOM     22  O   UNL     1       2.351   2.702  19.919  0.00  0.00    +0.000 OA
ENDBRANCH  19  22
ENDBRANCH  13  19
ENDBRANCH   7  17
ENDBRANCH   1  10
BRANCH   4  23
ATOM     23  N   UNL     1      -2.483  12.910  20.659  0.00  0.00    +0.000 N 
ATOM     24  C   UNL     1      -2.861  12.702  21.978  0.00  0.00    +0.000 C 
ATOM     25  O   UNL     1      -2.358  11.883  22.738  0.00  0.00    +0.000 OA
ATOM     26  H   UNL     1      -2.794  13.761  20.209  0.00  0.00    +0.000 HD
BRANCH  24  27
ATOM     27  C   UNL     1      -3.908  13.587  22.557  0.00  0.00    +0.000 A 
ATOM     28  C   UNL     1      -3.532  14.908  22.852  0.00  0.00    +0.000 A 
ATOM     29  C   UNL     1      -4.403  15.767  23.516  0.00  0.00    +0.000 A 
ATOM     30  C   UNL     1      -5.658  15.309  23.906  0.00  0.00    +0.000 A 
ATOM     31  C   UNL     1      -6.057  13.993  23.622  0.00  0.00    +0.000 A 
ATOM     32  C   UNL     1      -7.393  13.500  24.100  0.00  0.00    +0.000 C 
ATOM     33  C   UNL     1      -5.181  13.134  22.932  0.00  0.00    +0.000 A 
ENDBRANCH  24  27
ENDBRANCH   4  23
TORSDOF 6
ENDMDL
MODEL 8
REMARK VINA RESULT:      -7.6      1.747      2.688
REMARK  Name = 
REMARK  8 active torsions:
REMARK  status: ('A' for Active; 'I' for Inactive)
REMARK    1  A    between atoms: C_1  and  O_2
REMARK    2  A    between atoms: O_2  and  C_3
REMARK    3  A    between atoms: C_3  and  C_5
REMARK    4  A    between atoms: C_9  and  N_10
REMARK    5  A    between atoms: N_13  and  C_14
REMARK    6  A    between atoms: C_17  and  N_18
REMARK    7  A    between atoms: C_19  and  C_21
REMARK    8  A    between atoms: C_25  and  C_26
REMARK                            x       y       z     vdW  Elec       q    Type
REMARK                         _______ _______ _______ _____ _____    ______ ____
ROOT
ATOM      1  C   UNL     1       0.761  10.188  18.352  0.00  0.00    +0.000 A 
ATOM      2  C   UNL     1      -0.602   9.954  18.179  0.00  0.00    +0.000 A 
ATOM      3  C   UNL     1      -1.550  10.732  18.853  0.00  0.00    +0.000 A 
ATOM      4  C   UNL     1      -1.162  11.765  19.709  0.00  0.00    +0.000 A 
ATOM      5  C   UNL     1       0.207  12.015  19.862  0.00  0.00    +0.000 A 
ATOM      6  C   UNL     1       1.163  11.205  19.218  0.00  0.00    +0.000 A 
ENDROOT
BRANCH   1  10
ATOM      7  N   UNL     1       3.275   7.730  17.413  0.00  0.00    +0.000 N 
ATOM      8  C   UNL     1       2.339   8.329  18.247  0.00  0.00    +0.000 C 
ATOM      9  O   UNL     1       2.044   7.924  19.367  0.00  0.00    +0.000 OA
ATOM     10  N   UNL     1       1.732   9.430  17.650  0.00  0.00    +0.000 N 
ATOM     11  H   UNL     1       3.737   8.343  16.758  0.00  0.00    +0.000 HD
ATOM     12  H   UNL     1       1.606   9.338  16.653  0.00  0.00    +0.000 HD
BRANCH   7  17
ATOM     13  C   UNL     1       3.679   4.052  17.908  0.00  0.00    +0.000 A 
ATOM     14  C   UNL     1       5.062   3.960  18.123  0.00  0.00    +0.000 A 
ATOM     15  C   UNL     1       5.841   5.110  18.140  0.00  0.00    +0.000 A 
ATOM     16  C   UNL     1       5.248   6.352  17.926  0.00  0.00    +0.000 A 
ATOM     17  C   UNL     1       3.877   6.471  17.666  0.00  0.00    +0.000 A 
ATOM     18  C   UNL     1       3.088   5.313  17.683  0.00  0.00    +0.000 A 
BRANCH  13  19
ATOM     19  C   UNL     1       2.820   2.833  17.916  0.00  0.00    +0.000 C 
ATOM     20  O   UNL     1       3.257   1.693  17.940  0.00  0.00    +0.000 OA
BRANCH  19  22
ATOM     21  C   UNL     1       0.656   2.505  18.786  0.00  0.00    +0.000 C 
ATOM     22  O   UNL     1       1.510   3.187  17.868  0.00  0.00    +0.000 OA
ENDBRANCH  19  22
ENDBRANCH  13  19
ENDBRANCH   7  17
ENDBRANCH   1  10
BRANCH   4  23
ATOM     23  N   UNL     1      -2.100  12.562  20.417  0.00  0.00    +0.000 N 
ATOM     24  C   UNL     1      -2.408  12.400  21.761  0.00  0.00    +0.000 C 
ATOM     25  O   UNL     1      -1.866  11.607  22.520  0.00  0.00    +0.000 OA
ATOM     26  H   UNL     1      -2.436  13.398  19.955  0.00  0.00    +0.000 HD
BRANCH  24  27
ATOM     27  C   UNL     1      -3.427  13.304  22.362  0.00  0.00    +0.000 A 
ATOM     28  C   UNL     1      -2.983  14.179  23.368  0.00  0.00    +0.000 A 
ATOM     29  C   UNL     1      -3.886  14.965  24.078  0.00  0.00    +0.000 A 
ATOM     30  C   UNL     1      -5.247  14.873  23.801  0.00  0.00    +0.000 A 
ATOM     31  C   UNL     1      -5.713  14.006  22.800  0.00  0.00    +0.000 A 
ATOM     32  C   UNL     1      -7.190  13.880  22.553  0.00  0.00    +0.000 C 
ATOM     33  C   UNL     1      -4.795  13.228  22.070  0.00  0.00    +0.000 A 
ENDBRANCH  24  27
ENDBRANCH   4  23
TORSDOF 6
ENDMDL
MODEL 9
REMARK VINA RESULT:      -7.6      3.289     11.922
REMARK  Name = 
REMARK  8 active torsions:
REMARK  status: ('A' for Active; 'I' for Inactive)
REMARK    1  A    between atoms: C_1  and  O_2
REMARK    2  A    between atoms: O_2  and  C_3
REMARK    3  A    between atoms: C_3  and  C_5
REMARK    4  A    between atoms: C_9  and  N_10
REMARK    5  A    between atoms: N_13  and  C_14
REMARK    6  A    between atoms: C_17  and  N_18
REMARK    7  A    between atoms: C_19  and  C_21
REMARK    8  A    between atoms: C_25  and  C_26
REMARK                            x       y       z     vdW  Elec       q    Type
REMARK                         _______ _______ _______ _____ _____    ______ ____
ROOT
ATOM      1  C   UNL     1       2.705   6.052  19.485  0.00  0.00    +0.000 A 
ATOM      2  C   UNL     1       4.045   6.381  19.282  0.00  0.00    +0.000 A 
ATOM      3  C   UNL     1       4.739   5.887  18.172  0.00  0.00    +0.000 A 
ATOM      4  C   UNL     1       4.113   5.062  17.235  0.00  0.00    +0.000 A 
ATOM      5  C   UNL     1       2.761   4.754  17.427  0.00  0.00    +0.000 A 
ATOM      6  C   UNL     1       2.072   5.214  18.567  0.00  0.00    +0.000 A 
ENDROOT
BRANCH   1  10
ATOM      7  N   UNL     1       0.834   8.211  21.739  0.00  0.00    +0.000 N 
ATOM      8  C   UNL     1       1.497   7.877  20.565  0.00  0.00    +0.000 C 
ATOM      9  O   UNL     1       1.618   8.623  19.597  0.00  0.00    +0.000 OA
ATOM     10  N   UNL     1       1.980   6.573  20.588  0.00  0.00    +0.000 N 
ATOM     11  H   UNL     1       1.153   7.742  22.574  0.00  0.00    +0.000 HD
ATOM     12  H   UNL     1       1.393   5.927  21.094  0.00  0.00    +0.000 HD
BRANCH   7  17
ATOM     13  C   UNL     1      -1.034  11.346  20.950  0.00  0.00    +0.000 A 
ATOM     14  C   UNL     1      -1.533  11.687  22.215  0.00  0.00    +0.000 A 
ATOM     15  C   UNL     1      -1.220  10.905  23.321  0.00  0.00    +0.000 A 
ATOM     16  C   UNL     1      -0.424   9.772  23.165  0.00  0.00    +0.000 A 
ATOM     17  C   UNL     1       0.052   9.382  21.907  0.00  0.00    +0.000 A 
ATOM     18  C   UNL     1      -0.237  10.192  20.801  0.00  0.00    +0.000 A 
BRANCH  13  19
ATOM     19  C   UNL     1      -1.332  12.189  19.757  0.00  0.00    +0.000 C 
ATOM     20  O   UNL     1      -2.313  12.909  19.661  0.00  0.00    +0.000 OA
BRANCH  19  22
ATOM     21  C   UNL     1       0.471  13.136  18.573  0.00  0.00    +0.000 C 
ATOM     22  O   UNL     1      -0.374  12.010  18.811  0.00  0.00    +0.000 OA
ENDBRANCH  19  22
ENDBRANCH  13  19
ENDBRANCH   7  17
ENDBRANCH   1  10
BRANCH   4  23
ATOM     23  N   UNL     1       4.795   4.535  16.106  0.00  0.00    +0.000 N 
ATOM     24  C   UNL     1       5.412   5.308  15.133  0.00  0.00    +0.000 C 
ATOM     25  O   UNL     1       5.513   6.528  15.157  0.00  0.00    +0.000 OA
ATOM     26  H   UNL     1       4.979   3.540  16.103  0.00  0.00    +0.000 HD
BRANCH  24  27
ATOM     27  C   UNL     1       6.074   4.611  13.997  0.00  0.00    +0.000 A 
ATOM     28  C   UNL     1       7.251   5.191  13.495  0.00  0.00    +0.000 A 
ATOM     29  C   UNL     1       7.865   4.685  12.353  0.00  0.00    +0.000 A 
ATOM     30  C   UNL     1       7.299   3.601  11.689  0.00  0.00    +0.000 A 
ATOM     31  C   UNL     1       6.123   3.004  12.172  0.00  0.00    +0.000 A 
ATOM     32  C   UNL     1       5.497   1.870  11.411  0.00  0.00    +0.000 C 
ATOM     33  C   UNL     1       5.517   3.505  13.339  0.00  0.00    +0.000 A 
ENDBRANCH  24  27
ENDBRANCH   4  23
TORSDOF 6
ENDMDL
