MODEL 1
REMARK VINA RESULT:      -7.9      0.000      0.000
REMARK  Name = 
REMARK  6 active torsions:
REMARK  status: ('A' for Active; 'I' for Inactive)
REMARK    1  A    between atoms: N_2  and  C_4
REMARK    2  A    between atoms: C_7  and  S_8
REMARK    3  A    between atoms: S_8  and  C_9
REMARK    4  A    between atoms: C_9  and  N_11
REMARK    5  A    between atoms: N_14  and  C_15
REMARK    6  A    between atoms: C_23  and  N_24
REMARK                            x       y       z     vdW  Elec       q    Type
REMARK                         _______ _______ _______ _____ _____    ______ ____
ROOT
ATOM      1  C   UNL     1       3.164   4.197  19.015  0.00  0.00    +0.000 C 
ATOM      2  S   UNL     1       2.299   2.828  18.571  0.00  0.00    +0.000 S 
ENDROOT
BRANCH   1   3
ATOM      3  N   UNL     1       2.628   5.469  19.168  0.00  0.00    +0.000 N 
ATOM      4  C   UNL     1       1.815   5.827  20.352  0.00  0.00    +0.000 C 
ATOM      5  C   UNL     1       2.008   7.299  20.752  0.00  0.00    +0.000 C 
ATOM      6  N   UNL     1       1.824   8.174  19.586  0.00  0.00    +0.000 N 
ATOM      7  C   UNL     1       2.610   7.830  18.393  0.00  0.00    +0.000 C 
ATOM      8  C   UNL     1       2.372   6.355  18.017  0.00  0.00    +0.000 C 
BRANCH   6   9
ATOM      9  C   UNL     1       0.925   9.220  19.577  0.00  0.00    +0.000 A 
ATOM     10  C   UNL     1       0.415   9.758  20.765  0.00  0.00    +0.000 A 
ATOM     11  C   UNL     1      -0.493  10.823  20.768  0.00  0.00    +0.000 A 
ATOM     12  C   UNL     1      -0.914  11.375  19.563  0.00  0.00    +0.000 A 
ATOM     13  C   UNL     1      -0.428  10.865  18.368  0.00  0.00    +0.000 A 
ATOM     14  C   UNL     1       0.481   9.800  18.379  0.00  0.00    +0.000 A 
ENDBRANCH   6   9
ENDBRANCH   1   3
BRANCH   1  15
ATOM     15  S   UNL     1       4.906   4.115  19.283  0.00  0.00    +0.000 S 
BRANCH  15  19
ATOM     16  C   UNL     1       6.661   4.741  15.054  0.00  0.00    +0.000 A 
ATOM     17  C   UNL     1       5.365   4.256  15.239  0.00  0.00    +0.000 A 
ATOM     18  C   UNL     1       4.848   4.114  16.534  0.00  0.00    +0.000 A 
ATOM     19  C   UNL     1       5.584   4.505  17.667  0.00  0.00    +0.000 A 
ATOM     20  C   UNL     1       6.852   5.061  17.437  0.00  0.00    +0.000 A 
ATOM     21  C   UNL     1       7.421   5.146  16.153  0.00  0.00    +0.000 A 
BRANCH  16  23
ATOM     22  O   UNL     1       6.765   4.095  12.830  0.00  0.00    +0.000 OA
ATOM     23  N   UNL     1       7.218   4.852  13.700  0.00  0.00    +0.000 N 
ATOM     24  O   UNL     1       8.104   5.695  13.513  0.00  0.00    +0.000 OA
ENDBRANCH  16  23
BRANCH  20  25
ATOM     25  N   UNL     1       7.604   5.711  18.500  0.00  0.00    +0.000 N 
ATOM     26  O   UNL     1       8.033   5.013  19.427  0.00  0.00    +0.000 OA
ATOM     27  O   UNL     1       7.776   6.927  18.382  0.00  0.00    +0.000 OA
ENDBRANCH  20  25
ENDBRANCH  15  19
ENDBRANCH   1  15
TORSDOF 6
ENDMDL
MODEL 2
REMARK VINA RESULT:      -7.9      0.192      1.112
REMARK  Name = 
REMARK  6 active torsions:
REMARK  status: ('A' for Active; 'I' for Inactive)
REMARK    1  A    between atoms: N_2  and  C_4
REMARK    2  A    between atoms: C_7  and  S_8
REMARK    3  A    between atoms: S_8  and  C_9
REMARK    4  A    between atoms: C_9  and  N_11
REMARK    5  A    between atoms: N_14  and  C_15
REMARK    6  A    between atoms: C_23  and  N_24
REMARK                            x       y       z     vdW  Elec       q    Type
REMARK                         _______ _______ _______ _____ _____    ______ ____
ROOT
ATOM      1  C   UNL     1       3.158   4.407  19.072  0.00  0.00    +0.000 C 
ATOM      2  S   UNL     1       2.330   3.007  18.649  0.00  0.00    +0.000 S 
ENDROOT
BRANCH   1   3
ATOM      3  N   UNL     1       2.587   5.666  19.201  0.00  0.00    +0.000 N 
ATOM      4  C   UNL     1       1.778   6.031  20.386  0.00  0.00    +0.000 C 
ATOM      5  C   UNL     1       1.934   7.517  20.747  0.00  0.00    +0.000 C 
ATOM      6  N   UNL     1       1.712   8.357  19.562  0.00  0.00    +0.000 N 
ATOM      7  C   UNL     1       2.495   8.006  18.369  0.00  0.00    +0.000 C 
ATOM      8  C   UNL     1       2.294   6.516  18.032  0.00  0.00    +0.000 C 
BRANCH   6   9
ATOM      9  C   UNL     1       0.784   9.378  19.538  0.00  0.00    +0.000 A 
ATOM     10  C   UNL     1       0.220   9.826  18.337  0.00  0.00    +0.000 A 
ATOM     11  C   UNL     1      -0.727  10.857  18.301  0.00  0.00    +0.000 A 
ATOM     12  C   UNL     1      -1.129  11.467  19.484  0.00  0.00    +0.000 A 
ATOM     13  C   UNL     1      -0.590  11.046  20.691  0.00  0.00    +0.000 A 
ATOM     14  C   UNL     1       0.356  10.013  20.713  0.00  0.00    +0.000 A 
ENDBRANCH   6   9
ENDBRANCH   1   3
BRANCH   1  15
ATOM     15  S   UNL     1       4.900   4.375  19.350  0.00  0.00    +0.000 S 
BRANCH  15  19
ATOM     16  C   UNL     1       6.626   4.770  15.082  0.00  0.00    +0.000 A 
ATOM     17  C   UNL     1       5.305   4.374  15.297  0.00  0.00    +0.000 A 
ATOM     18  C   UNL     1       4.800   4.301  16.603  0.00  0.00    +0.000 A 
ATOM     19  C   UNL     1       5.577   4.676  17.715  0.00  0.00    +0.000 A 
ATOM     20  C   UNL     1       6.873   5.144  17.452  0.00  0.00    +0.000 A 
ATOM     21  C   UNL     1       7.427   5.156  16.158  0.00  0.00    +0.000 A 
BRANCH  16  23
ATOM     22  O   UNL     1       6.687   4.024  12.888  0.00  0.00    +0.000 OA
ATOM     23  N   UNL     1       7.168   4.808  13.718  0.00  0.00    +0.000 N 
ATOM     24  O   UNL     1       8.072   5.620  13.483  0.00  0.00    +0.000 OA
ENDBRANCH  16  23
BRANCH  20  25
ATOM     25  N   UNL     1       7.681   5.775  18.485  0.00  0.00    +0.000 N 
ATOM     26  O   UNL     1       7.883   6.993  18.409  0.00  0.00    +0.000 OA
ATOM     27  O   UNL     1       8.089   5.037  19.385  0.00  0.00    +0.000 OA
ENDBRANCH  20  25
ENDBRANCH  15  19
ENDBRANCH   1  15
TORSDOF 6
ENDMDL
MODEL 3
REMARK VINA RESULT:      -7.7      0.718      1.121
REMARK  Name = 
REMARK  6 active torsions:
REMARK  status: ('A' for Active; 'I' for Inactive)
REMARK    1  A    between atoms: N_2  and  C_4
REMARK    2  A    between atoms: C_7  and  S_8
REMARK    3  A    between atoms: S_8  and  C_9
REMARK    4  A    between atoms: C_9  and  N_11
REMARK    5  A    between atoms: N_14  and  C_15
REMARK    6  A    between atoms: C_23  and  N_24
REMARK                            x       y       z     vdW  Elec       q    Type
REMARK                         _______ _______ _______ _____ _____    ______ ____
ROOT
ATOM      1  C   UNL     1       3.052   5.023  19.173  0.00  0.00    +0.000 C 
ATOM      2  S   UNL     1       2.301   3.571  18.788  0.00  0.00    +0.000 S 
ENDROOT
BRANCH   1   3
ATOM      3  N   UNL     1       2.423   6.260  19.234  0.00  0.00    +0.000 N 
ATOM      4  C   UNL     1       1.550   6.628  20.371  0.00  0.00    +0.000 C 
ATOM      5  C   UNL     1       1.626   8.130  20.685  0.00  0.00    +0.000 C 
ATOM      6  N   UNL     1       1.416   8.919  19.463  0.00  0.00    +0.000 N 
ATOM      7  C   UNL     1       2.262   8.563  18.315  0.00  0.00    +0.000 C 
ATOM      8  C   UNL     1       2.140   7.055  18.024  0.00  0.00    +0.000 C 
BRANCH   6   9
ATOM      9  C   UNL     1       0.446   9.895  19.365  0.00  0.00    +0.000 A 
ATOM     10  C   UNL     1       0.263  10.849  20.374  0.00  0.00    +0.000 A 
ATOM     11  C   UNL     1      -0.714  11.847  20.283  0.00  0.00    +0.000 A 
ATOM     12  C   UNL     1      -1.539  11.906  19.166  0.00  0.00    +0.000 A 
ATOM     13  C   UNL     1      -1.384  10.976  18.148  0.00  0.00    +0.000 A 
ATOM     14  C   UNL     1      -0.401   9.983  18.251  0.00  0.00    +0.000 A 
ENDBRANCH   6   9
ENDBRANCH   1   3
BRANCH   1  15
ATOM     15  S   UNL     1       4.786   5.084  19.496  0.00  0.00    +0.000 S 
BRANCH  15  19
ATOM     16  C   UNL     1       6.548   4.941  15.226  0.00  0.00    +0.000 A 
ATOM     17  C   UNL     1       5.178   4.790  15.452  0.00  0.00    +0.000 A 
ATOM     18  C   UNL     1       4.671   4.877  16.756  0.00  0.00    +0.000 A 
ATOM     19  C   UNL     1       5.502   5.174  17.852  0.00  0.00    +0.000 A 
ATOM     20  C   UNL     1       6.859   5.397  17.574  0.00  0.00    +0.000 A 
ATOM     21  C   UNL     1       7.405   5.244  16.285  0.00  0.00    +0.000 A 
BRANCH  16  23
ATOM     22  O   UNL     1       8.021   5.558  13.546  0.00  0.00    +0.000 OA
ATOM     23  N   UNL     1       7.086   4.811  13.866  0.00  0.00    +0.000 N 
ATOM     24  O   UNL     1       6.571   3.965  13.125  0.00  0.00    +0.000 OA
ENDBRANCH  16  23
BRANCH  20  25
ATOM     25  N   UNL     1       7.764   5.936  18.578  0.00  0.00    +0.000 N 
ATOM     26  O   UNL     1       8.055   7.138  18.520  0.00  0.00    +0.000 OA
ATOM     27  O   UNL     1       8.161   5.145  19.436  0.00  0.00    +0.000 OA
ENDBRANCH  20  25
ENDBRANCH  15  19
ENDBRANCH   1  15
TORSDOF 6
ENDMDL
MODEL 4
REMARK VINA RESULT:      -7.5      0.912      1.369
REMARK  Name = 
REMARK  6 active torsions:
REMARK  status: ('A' for Active; 'I' for Inactive)
REMARK    1  A    between atoms: N_2  and  C_4
REMARK    2  A    between atoms: C_7  and  S_8
REMARK    3  A    between atoms: S_8  and  C_9
REMARK    4  A    between atoms: C_9  and  N_11
REMARK    5  A    between atoms: N_14  and  C_15
REMARK    6  A    between atoms: C_23  and  N_24
REMARK                            x       y       z     vdW  Elec       q    Type
REMARK                         _______ _______ _______ _____ _____    ______ ____
ROOT
ATOM      1  C   UNL     1       3.253   5.065  19.234  0.00  0.00    +0.000 C 
ATOM      2  S   UNL     1       2.496   3.569  19.138  0.00  0.00    +0.000 S 
ENDROOT
BRANCH   1   3
ATOM      3  N   UNL     1       2.608   6.294  19.178  0.00  0.00    +0.000 N 
ATOM      4  C   UNL     1       1.679   6.728  20.245  0.00  0.00    +0.000 C 
ATOM      5  C   UNL     1       1.724   8.250  20.456  0.00  0.00    +0.000 C 
ATOM      6  N   UNL     1       1.564   8.949  19.173  0.00  0.00    +0.000 N 
ATOM      7  C   UNL     1       2.468   8.525  18.094  0.00  0.00    +0.000 C 
ATOM      8  C   UNL     1       2.376   6.999  17.904  0.00  0.00    +0.000 C 
BRANCH   6   9
ATOM      9  C   UNL     1       0.590   9.902  18.962  0.00  0.00    +0.000 A 
ATOM     10  C   UNL     1      -0.441   9.704  18.035  0.00  0.00    +0.000 A 
ATOM     11  C   UNL     1      -1.438  10.661  17.817  0.00  0.00    +0.000 A 
ATOM     12  C   UNL     1      -1.418  11.853  18.531  0.00  0.00    +0.000 A 
ATOM     13  C   UNL     1      -0.411  12.082  19.458  0.00  0.00    +0.000 A 
ATOM     14  C   UNL     1       0.580  11.114  19.668  0.00  0.00    +0.000 A 
ENDBRANCH   6   9
ENDBRANCH   1   3
BRANCH   1  15
ATOM     15  S   UNL     1       5.008   5.181  19.372  0.00  0.00    +0.000 S 
BRANCH  15  19
ATOM     16  C   UNL     1       6.451   4.809  14.997  0.00  0.00    +0.000 A 
ATOM     17  C   UNL     1       5.229   4.272  15.407  0.00  0.00    +0.000 A 
ATOM     18  C   UNL     1       4.802   4.436  16.733  0.00  0.00    +0.000 A 
ATOM     19  C   UNL     1       5.550   5.184  17.660  0.00  0.00    +0.000 A 
ATOM     20  C   UNL     1       6.733   5.774  17.190  0.00  0.00    +0.000 A 
ATOM     21  C   UNL     1       7.219   5.564  15.885  0.00  0.00    +0.000 A 
BRANCH  16  23
ATOM     22  O   UNL     1       7.764   5.394  13.179  0.00  0.00    +0.000 OA
ATOM     23  N   UNL     1       6.918   4.605  13.620  0.00  0.00    +0.000 N 
ATOM     24  O   UNL     1       6.435   3.657  12.987  0.00  0.00    +0.000 OA
ENDBRANCH  16  23
BRANCH  20  25
ATOM     25  N   UNL     1       7.463   6.754  17.980  0.00  0.00    +0.000 N 
ATOM     26  O   UNL     1       8.107   6.355  18.959  0.00  0.00    +0.000 OA
ATOM     27  O   UNL     1       7.401   7.923  17.593  0.00  0.00    +0.000 OA
ENDBRANCH  20  25
ENDBRANCH  15  19
ENDBRANCH   1  15
TORSDOF 6
ENDMDL
MODEL 5
REMARK VINA RESULT:      -7.5      1.507      2.110
REMARK  Name = 
REMARK  6 active torsions:
REMARK  status: ('A' for Active; 'I' for Inactive)
REMARK    1  A    between atoms: N_2  and  C_4
REMARK    2  A    between atoms: C_7  and  S_8
REMARK    3  A    between atoms: S_8  and  C_9
REMARK    4  A    between atoms: C_9  and  N_11
REMARK    5  A    between atoms: N_14  and  C_15
REMARK    6  A    between atoms: C_23  and  N_24
REMARK                            x       y       z     vdW  Elec       q    Type
REMARK                         _______ _______ _______ _____ _____    ______ ____
ROOT
ATOM      1  C   UNL     1       2.731   5.766  18.880  0.00  0.00    +0.000 C 
ATOM      2  S   UNL     1       1.759   4.512  18.329  0.00  0.00    +0.000 S 
ENDROOT
BRANCH   1   3
ATOM      3  N   UNL     1       2.343   7.096  18.979  0.00  0.00    +0.000 N 
ATOM      4  C   UNL     1       2.686   8.081  17.928  0.00  0.00    +0.000 C 
ATOM      5  C   UNL     1       1.592   9.150  17.771  0.00  0.00    +0.000 C 
ATOM      6  N   UNL     1       1.252   9.730  19.077  0.00  0.00    +0.000 N 
ATOM      7  C   UNL     1       0.922   8.771  20.140  0.00  0.00    +0.000 C 
ATOM      8  C   UNL     1       2.052   7.732  20.277  0.00  0.00    +0.000 C 
BRANCH   6   9
ATOM      9  C   UNL     1       1.297  11.087  19.322  0.00  0.00    +0.000 A 
ATOM     10  C   UNL     1       1.960  11.966  18.457  0.00  0.00    +0.000 A 
ATOM     11  C   UNL     1       2.007  13.345  18.692  0.00  0.00    +0.000 A 
ATOM     12  C   UNL     1       1.384  13.875  19.816  0.00  0.00    +0.000 A 
ATOM     13  C   UNL     1       0.718  13.032  20.694  0.00  0.00    +0.000 A 
ATOM     14  C   UNL     1       0.678  11.653  20.446  0.00  0.00    +0.000 A 
ENDBRANCH   6   9
ENDBRANCH   1   3
BRANCH   1  15
ATOM     15  S   UNL     1       4.406   5.470  19.350  0.00  0.00    +0.000 S 
BRANCH  15  19
ATOM     16  C   UNL     1       6.515   5.074  15.258  0.00  0.00    +0.000 A 
ATOM     17  C   UNL     1       5.122   5.091  15.359  0.00  0.00    +0.000 A 
ATOM     18  C   UNL     1       4.514   5.252  16.611  0.00  0.00    +0.000 A 
ATOM     19  C   UNL     1       5.272   5.457  17.778  0.00  0.00    +0.000 A 
ATOM     20  C   UNL     1       6.666   5.512  17.624  0.00  0.00    +0.000 A 
ATOM     21  C   UNL     1       7.303   5.281  16.390  0.00  0.00    +0.000 A 
BRANCH  16  23
ATOM     22  O   UNL     1       6.678   3.993  13.213  0.00  0.00    +0.000 OA
ATOM     23  N   UNL     1       7.154   4.867  13.951  0.00  0.00    +0.000 N 
ATOM     24  O   UNL     1       8.127   5.578  13.671  0.00  0.00    +0.000 OA
ENDBRANCH  16  23
BRANCH  20  25
ATOM     25  N   UNL     1       7.535   5.948  18.707  0.00  0.00    +0.000 N 
ATOM     26  O   UNL     1       7.738   5.169  19.646  0.00  0.00    +0.000 OA
ATOM     27  O   UNL     1       8.030   7.072  18.591  0.00  0.00    +0.000 OA
ENDBRANCH  20  25
ENDBRANCH  15  19
ENDBRANCH   1  15
TORSDOF 6
ENDMDL
MODEL 6
REMARK VINA RESULT:      -7.4      0.621      1.285
REMARK  Name = 
REMARK  6 active torsions:
REMARK  status: ('A' for Active; 'I' for Inactive)
REMARK    1  A    between atoms: N_2  and  C_4
REMARK    2  A    between atoms: C_7  and  S_8
REMARK    3  A    between atoms: S_8  and  C_9
REMARK    4  A    between atoms: C_9  and  N_11
REMARK    5  A    between atoms: N_14  and  C_15
REMARK    6  A    between atoms: C_23  and  N_24
REMARK                            x       y       z     vdW  Elec       q    Type
REMARK                         _______ _______ _______ _____ _____    ______ ____
ROOT
ATOM      1  C   UNL     1       3.419   4.217  18.585  0.00  0.00    +0.000 C 
ATOM      2  S   UNL     1       2.587   2.835  18.120  0.00  0.00    +0.000 S 
ENDROOT
BRANCH   1   3
ATOM      3  N   UNL     1       2.842   5.458  18.823  0.00  0.00    +0.000 N 
ATOM      4  C   UNL     1       1.998   5.703  20.015  0.00  0.00    +0.000 C 
ATOM      5  C   UNL     1       2.140   7.145  20.527  0.00  0.00    +0.000 C 
ATOM      6  N   UNL     1       1.949   8.099  19.426  0.00  0.00    +0.000 N 
ATOM      7  C   UNL     1       2.766   7.869  18.226  0.00  0.00    +0.000 C 
ATOM      8  C   UNL     1       2.578   6.420  17.737  0.00  0.00    +0.000 C 
BRANCH   6   9
ATOM      9  C   UNL     1       1.019   9.117  19.477  0.00  0.00    +0.000 A 
ATOM     10  C   UNL     1       0.571   9.759  18.316  0.00  0.00    +0.000 A 
ATOM     11  C   UNL     1      -0.377  10.789  18.356  0.00  0.00    +0.000 A 
ATOM     12  C   UNL     1      -0.897  11.201  19.577  0.00  0.00    +0.000 A 
ATOM     13  C   UNL     1      -0.474  10.586  20.747  0.00  0.00    +0.000 A 
ATOM     14  C   UNL     1       0.474   9.556  20.692  0.00  0.00    +0.000 A 
ENDBRANCH   6   9
ENDBRANCH   1   3
BRANCH   1  15
ATOM     15  S   UNL     1       5.174   4.195  18.768  0.00  0.00    +0.000 S 
BRANCH  15  19
ATOM     16  C   UNL     1       6.832   4.788  14.495  0.00  0.00    +0.000 A 
ATOM     17  C   UNL     1       5.799   3.885  14.755  0.00  0.00    +0.000 A 
ATOM     18  C   UNL     1       5.292   3.757  16.056  0.00  0.00    +0.000 A 
ATOM     19  C   UNL     1       5.758   4.562  17.111  0.00  0.00    +0.000 A 
ATOM     20  C   UNL     1       6.741   5.513  16.794  0.00  0.00    +0.000 A 
ATOM     21  C   UNL     1       7.317   5.611  15.513  0.00  0.00    +0.000 A 
BRANCH  16  23
ATOM     22  O   UNL     1       8.199   5.809  12.926  0.00  0.00    +0.000 OA
ATOM     23  N   UNL     1       7.391   4.895  13.141  0.00  0.00    +0.000 N 
ATOM     24  O   UNL     1       7.019   4.066  12.302  0.00  0.00    +0.000 OA
ENDBRANCH  16  23
BRANCH  20  25
ATOM     25  N   UNL     1       7.129   6.551  17.737  0.00  0.00    +0.000 N 
ATOM     26  O   UNL     1       7.957   6.268  18.612  0.00  0.00    +0.000 OA
ATOM     27  O   UNL     1       6.611   7.658  17.574  0.00  0.00    +0.000 OA
ENDBRANCH  20  25
ENDBRANCH  15  19
ENDBRANCH   1  15
TORSDOF 6
ENDMDL
MODEL 7
REMARK VINA RESULT:      -7.2      3.133      4.322
REMARK  Name = 
REMARK  6 active torsions:
REMARK  status: ('A' for Active; 'I' for Inactive)
REMARK    1  A    between atoms: N_2  and  C_4
REMARK    2  A    between atoms: C_7  and  S_8
REMARK    3  A    between atoms: S_8  and  C_9
REMARK    4  A    between atoms: C_9  and  N_11
REMARK    5  A    between atoms: N_14  and  C_15
REMARK    6  A    between atoms: C_23  and  N_24
REMARK                            x       y       z     vdW  Elec       q    Type
REMARK                         _______ _______ _______ _____ _____    ______ ____
ROOT
ATOM      1  C   UNL     1       1.929   7.891  19.308  0.00  0.00    +0.000 C 
ATOM      2  S   UNL     1       2.486   8.132  17.742  0.00  0.00    +0.000 S 
ENDROOT
BRANCH   1   3
ATOM      3  N   UNL     1       1.309   8.852  20.095  0.00  0.00    +0.000 N 
ATOM      4  C   UNL     1       0.556   8.485  21.316  0.00  0.00    +0.000 C 
ATOM      5  C   UNL     1       0.664   9.568  22.400  0.00  0.00    +0.000 C 
ATOM      6  N   UNL     1       0.331  10.886  21.840  0.00  0.00    +0.000 N 
ATOM      7  C   UNL     1       1.056  11.268  20.620  0.00  0.00    +0.000 C 
ATOM      8  C   UNL     1       0.905  10.164  19.556  0.00  0.00    +0.000 C 
BRANCH   6   9
ATOM      9  C   UNL     1      -0.644  11.699  22.381  0.00  0.00    +0.000 A 
ATOM     10  C   UNL     1      -1.745  11.167  23.063  0.00  0.00    +0.000 A 
ATOM     11  C   UNL     1      -2.737  11.982  23.620  0.00  0.00    +0.000 A 
ATOM     12  C   UNL     1      -2.644  13.364  23.500  0.00  0.00    +0.000 A 
ATOM     13  C   UNL     1      -1.565  13.924  22.831  0.00  0.00    +0.000 A 
ATOM     14  C   UNL     1      -0.578  13.096  22.279  0.00  0.00    +0.000 A 
ENDBRANCH   6   9
ENDBRANCH   1   3
BRANCH   1  15
ATOM     15  S   UNL     1       2.147   6.336  20.113  0.00  0.00    +0.000 S 
BRANCH  15  19
ATOM     16  C   UNL     1       5.435   4.603  17.367  0.00  0.00    +0.000 A 
ATOM     17  C   UNL     1       5.748   5.459  18.425  0.00  0.00    +0.000 A 
ATOM     18  C   UNL     1       4.731   5.936  19.263  0.00  0.00    +0.000 A 
ATOM     19  C   UNL     1       3.394   5.529  19.105  0.00  0.00    +0.000 A 
ATOM     20  C   UNL     1       3.131   4.606  18.080  0.00  0.00    +0.000 A 
ATOM     21  C   UNL     1       4.121   4.169  17.181  0.00  0.00    +0.000 A 
BRANCH  16  23
ATOM     22  O   UNL     1       7.660   4.456  16.732  0.00  0.00    +0.000 OA
ATOM     23  N   UNL     1       6.494   4.133  16.464  0.00  0.00    +0.000 N 
ATOM     24  O   UNL     1       6.155   3.445  15.493  0.00  0.00    +0.000 OA
ENDBRANCH  16  23
BRANCH  20  25
ATOM     25  N   UNL     1       1.843   3.938  17.969  0.00  0.00    +0.000 N 
ATOM     26  O   UNL     1       1.641   2.935  18.666  0.00  0.00    +0.000 OA
ATOM     27  O   UNL     1       1.031   4.443  17.191  0.00  0.00    +0.000 OA
ENDBRANCH  20  25
ENDBRANCH  15  19
ENDBRANCH   1  15
TORSDOF 6
ENDMDL
MODEL 8
REMARK VINA RESULT:      -7.2      3.036      4.311
REMARK  Name = 
REMARK  6 active torsions:
REMARK  status: ('A' for Active; 'I' for Inactive)
REMARK    1  A    between atoms: N_2  and  C_4
REMARK    2  A    between atoms: C_7  and  S_8
REMARK    3  A    between atoms: S_8  and  C_9
REMARK    4  A    between atoms: C_9  and  N_11
REMARK    5  A    between atoms: N_14  and  C_15
REMARK    6  A    between atoms: C_23  and  N_24
REMARK                            x       y       z     vdW  Elec       q    Type
REMARK                         _______ _______ _______ _____ _____    ______ ____
ROOT
ATOM      1  C   UNL     1       2.033   7.856  19.183  0.00  0.00    +0.000 C 
ATOM      2  S   UNL     1       2.719   8.135  17.676  0.00  0.00    +0.000 S 
ENDROOT
BRANCH   1   3
ATOM      3  N   UNL     1       1.272   8.770  19.899  0.00  0.00    +0.000 N 
ATOM      4  C   UNL     1       0.715   9.982  19.258  0.00  0.00    +0.000 C 
ATOM      5  C   UNL     1      -0.640  10.378  19.867  0.00  0.00    +0.000 C 
ATOM      6  N   UNL     1      -0.543  10.441  21.332  0.00  0.00    +0.000 N 
ATOM      7  C   UNL     1       0.020   9.254  21.990  0.00  0.00    +0.000 C 
ATOM      8  C   UNL     1       1.383   8.906  21.364  0.00  0.00    +0.000 C 
BRANCH   6   9
ATOM      9  C   UNL     1      -0.897  11.563  22.053  0.00  0.00    +0.000 A 
ATOM     10  C   UNL     1      -1.945  11.536  22.981  0.00  0.00    +0.000 A 
ATOM     11  C   UNL     1      -2.310  12.666  23.722  0.00  0.00    +0.000 A 
ATOM     12  C   UNL     1      -1.622  13.861  23.542  0.00  0.00    +0.000 A 
ATOM     13  C   UNL     1      -0.578  13.922  22.630  0.00  0.00    +0.000 A 
ATOM     14  C   UNL     1      -0.223  12.782  21.896  0.00  0.00    +0.000 A 
ENDBRANCH   6   9
ENDBRANCH   1   3
BRANCH   1  15
ATOM     15  S   UNL     1       2.285   6.322  20.018  0.00  0.00    +0.000 S 
BRANCH  15  19
ATOM     16  C   UNL     1       5.625   4.618  17.316  0.00  0.00    +0.000 A 
ATOM     17  C   UNL     1       5.913   5.506  18.355  0.00  0.00    +0.000 A 
ATOM     18  C   UNL     1       4.881   5.974  19.181  0.00  0.00    +0.000 A 
ATOM     19  C   UNL     1       3.556   5.527  19.031  0.00  0.00    +0.000 A 
ATOM     20  C   UNL     1       3.320   4.575  18.027  0.00  0.00    +0.000 A 
ATOM     21  C   UNL     1       4.324   4.145  17.138  0.00  0.00    +0.000 A 
BRANCH  16  23
ATOM     22  O   UNL     1       6.367   3.647  15.346  0.00  0.00    +0.000 OA
ATOM     23  N   UNL     1       6.698   4.157  16.426  0.00  0.00    +0.000 N 
ATOM     24  O   UNL     1       7.864   4.307  16.810  0.00  0.00    +0.000 OA
ENDBRANCH  16  23
BRANCH  20  25
ATOM     25  N   UNL     1       2.052   3.869  17.928  0.00  0.00    +0.000 N 
ATOM     26  O   UNL     1       1.146   4.382  17.259  0.00  0.00    +0.000 OA
ATOM     27  O   UNL     1       1.983   2.785  18.512  0.00  0.00    +0.000 OA
ENDBRANCH  20  25
ENDBRANCH  15  19
ENDBRANCH   1  15
TORSDOF 6
ENDMDL
MODEL 9
REMARK VINA RESULT:      -7.1      1.476      1.951
REMARK  Name = 
REMARK  6 active torsions:
REMARK  status: ('A' for Active; 'I' for Inactive)
REMARK    1  A    between atoms: N_2  and  C_4
REMARK    2  A    between atoms: C_7  and  S_8
REMARK    3  A    between atoms: S_8  and  C_9
REMARK    4  A    between atoms: C_9  and  N_11
REMARK    5  A    between atoms: N_14  and  C_15
REMARK    6  A    between atoms: C_23  and  N_24
REMARK                            x       y       z     vdW  Elec       q    Type
REMARK                         _______ _______ _______ _____ _____    ______ ____
ROOT
ATOM      1  C   UNL     1       2.968   5.527  18.992  0.00  0.00    +0.000 C 
ATOM      2  S   UNL     1       1.968   4.203  18.733  0.00  0.00    +0.000 S 
ENDROOT
BRANCH   1   3
ATOM      3  N   UNL     1       2.554   6.853  19.008  0.00  0.00    +0.000 N 
ATOM      4  C   UNL     1       2.940   7.796  17.935  0.00  0.00    +0.000 C 
ATOM      5  C   UNL     1       1.840   8.836  17.668  0.00  0.00    +0.000 C 
ATOM      6  N   UNL     1       1.417   9.467  18.925  0.00  0.00    +0.000 N 
ATOM      7  C   UNL     1       1.042   8.551  20.011  0.00  0.00    +0.000 C 
ATOM      8  C   UNL     1       2.179   7.540  20.258  0.00  0.00    +0.000 C 
BRANCH   6   9
ATOM      9  C   UNL     1       1.426  10.835  19.110  0.00  0.00    +0.000 A 
ATOM     10  C   UNL     1       0.712  11.437  20.153  0.00  0.00    +0.000 A 
ATOM     11  C   UNL     1       0.718  12.822  20.354  0.00  0.00    +0.000 A 
ATOM     12  C   UNL     1       1.448  13.641  19.499  0.00  0.00    +0.000 A 
ATOM     13  C   UNL     1       2.166  13.076  18.455  0.00  0.00    +0.000 A 
ATOM     14  C   UNL     1       2.153  11.687  18.267  0.00  0.00    +0.000 A 
ENDBRANCH   6   9
ENDBRANCH   1   3
BRANCH   1  15
ATOM     15  S   UNL     1       4.703   5.314  19.228  0.00  0.00    +0.000 S 
BRANCH  15  19
ATOM     16  C   UNL     1       6.368   4.835  14.944  0.00  0.00    +0.000 A 
ATOM     17  C   UNL     1       5.102   4.358  15.289  0.00  0.00    +0.000 A 
ATOM     18  C   UNL     1       4.610   4.554  16.587  0.00  0.00    +0.000 A 
ATOM     19  C   UNL     1       5.339   5.276  17.549  0.00  0.00    +0.000 A 
ATOM     20  C   UNL     1       6.572   5.808  17.141  0.00  0.00    +0.000 A 
ATOM     21  C   UNL     1       7.120   5.563  15.868  0.00  0.00    +0.000 A 
BRANCH  16  23
ATOM     22  O   UNL     1       6.425   3.650  12.952  0.00  0.00    +0.000 OA
ATOM     23  N   UNL     1       6.900   4.596  13.596  0.00  0.00    +0.000 N 
ATOM     24  O   UNL     1       7.789   5.354  13.189  0.00  0.00    +0.000 OA
ENDBRANCH  16  23
BRANCH  20  25
ATOM     25  N   UNL     1       7.302   6.761  17.964  0.00  0.00    +0.000 N 
ATOM     26  O   UNL     1       7.242   7.960  17.664  0.00  0.00    +0.000 OA
ATOM     27  O   UNL     1       7.915   6.294  18.927  0.00  0.00    +0.000 OA
ENDBRANCH  20  25
ENDBRANCH  15  19
ENDBRANCH   1  15
TORSDOF 6
ENDMDL
