MODEL 1
REMARK VINA RESULT:      -6.8      0.000      0.000
REMARK  Name = 
REMARK  10 active torsions:
REMARK  status: ('A' for Active; 'I' for Inactive)
REMARK    1  A    between atoms: C_1  and  C_2
REMARK    2  A    between atoms: C_2  and  O_3
REMARK    3  A    between atoms: O_3  and  C_4
REMARK    4  A    between atoms: C_4  and  C_6
REMARK    5  A    between atoms: N_9  and  S_10
REMARK    6  A    between atoms: S_10  and  C_13
REMARK    7  A    between atoms: C_15  and  C_16
REMARK    8  A    between atoms: C_16  and  O_18
REMARK    9  A    between atoms: O_18  and  C_19
REMARK   10  A    between atoms: N_20  and  C_21
REMARK                            x       y       z     vdW  Elec       q    Type
REMARK                         _______ _______ _______ _____ _____    ______ ____
ROOT
ATOM      1  S   UNL     1       3.239   4.160  18.598  0.00  0.00    +0.000 S 
ATOM      2  O   UNL     1       2.638   3.826  17.322  0.00  0.00    +0.000 OA
ATOM      3  O   UNL     1       2.958   3.400  19.795  0.00  0.00    +0.000 OA
ENDROOT
BRANCH   1   7
ATOM      4  C   UNL     1       7.543   5.475  17.776  0.00  0.00    +0.000 C 
ATOM      5  C   UNL     1       6.886   4.455  16.837  0.00  0.00    +0.000 C 
ATOM      6  C   UNL     1       5.363   4.413  16.976  0.00  0.00    +0.000 C 
ATOM      7  N   UNL     1       4.951   4.223  18.396  0.00  0.00    +0.000 NA
ATOM      8  C   UNL     1       5.570   5.214  19.322  0.00  0.00    +0.000 C 
ATOM      9  C   UNL     1       7.092   5.155  19.208  0.00  0.00    +0.000 C 
BRANCH   4  10
ATOM     10  C   UNL     1       7.231   6.942  17.480  0.00  0.00    +0.000 C 
ATOM     11  O   UNL     1       6.452   7.290  16.600  0.00  0.00    +0.000 OA
BRANCH  10  12
ATOM     12  O   UNL     1       7.943   7.799  18.255  0.00  0.00    +0.000 OA
BRANCH  12  14
ATOM     13  C   UNL     1       8.889  10.030  18.640  0.00  0.00    +0.000 C 
ATOM     14  C   UNL     1       8.049   9.140  17.745  0.00  0.00    +0.000 C 
ENDBRANCH  12  14
ENDBRANCH  10  12
ENDBRANCH   4  10
ENDBRANCH   1   7
BRANCH   1  15
ATOM     15  C   UNL     1       2.654   5.753  18.919  0.00  0.00    +0.000 A 
ATOM     16  C   UNL     1       2.529   6.801  17.980  0.00  0.00    +0.000 A 
ATOM     17  C   UNL     1       2.088   7.947  18.644  0.00  0.00    +0.000 A 
ATOM     18  N   UNL     1       1.926   7.582  19.970  0.00  0.00    +0.000 N 
ATOM     19  C   UNL     1       1.493   8.401  21.080  0.00  0.00    +0.000 C 
ATOM     20  C   UNL     1       2.264   6.257  20.138  0.00  0.00    +0.000 A 
BRANCH  17  21
ATOM     21  C   UNL     1       1.872   9.261  18.063  0.00  0.00    +0.000 C 
ATOM     22  O   UNL     1       2.699  10.157  17.966  0.00  0.00    +0.000 OA
BRANCH  21  23
ATOM     23  O   UNL     1       0.582   9.359  17.626  0.00  0.00    +0.000 OA
ATOM     24  C   UNL     1      -0.255  10.219  18.394  0.00  0.00    +0.000 C 
ENDBRANCH  21  23
ENDBRANCH  17  21
ENDBRANCH   1  15
TORSDOF 7
ENDMDL
MODEL 2
REMARK VINA RESULT:      -6.7      1.424      1.860
REMARK  Name = 
REMARK  10 active torsions:
REMARK  status: ('A' for Active; 'I' for Inactive)
REMARK    1  A    between atoms: C_1  and  C_2
REMARK    2  A    between atoms: C_2  and  O_3
REMARK    3  A    between atoms: O_3  and  C_4
REMARK    4  A    between atoms: C_4  and  C_6
REMARK    5  A    between atoms: N_9  and  S_10
REMARK    6  A    between atoms: S_10  and  C_13
REMARK    7  A    between atoms: C_15  and  C_16
REMARK    8  A    between atoms: C_16  and  O_18
REMARK    9  A    between atoms: O_18  and  C_19
REMARK   10  A    between atoms: N_20  and  C_21
REMARK                            x       y       z     vdW  Elec       q    Type
REMARK                         _______ _______ _______ _____ _____    ______ ____
ROOT
ATOM      1  S   UNL     1       2.982   4.045  18.865  0.00  0.00    +0.000 S 
ATOM      2  O   UNL     1       1.987   3.601  17.910  0.00  0.00    +0.000 OA
ATOM      3  O   UNL     1       3.067   3.484  20.194  0.00  0.00    +0.000 OA
ENDROOT
BRANCH   1   7
ATOM      4  C   UNL     1       6.903   4.867  16.656  0.00  0.00    +0.000 C 
ATOM      5  C   UNL     1       5.888   3.900  16.033  0.00  0.00    +0.000 C 
ATOM      6  C   UNL     1       4.492   4.025  16.646  0.00  0.00    +0.000 C 
ATOM      7  N   UNL     1       4.539   3.918  18.132  0.00  0.00    +0.000 NA
ATOM      8  C   UNL     1       5.510   4.860  18.756  0.00  0.00    +0.000 C 
ATOM      9  C   UNL     1       6.904   4.634  18.173  0.00  0.00    +0.000 C 
BRANCH   4  10
ATOM     10  C   UNL     1       6.652   6.350  16.387  0.00  0.00    +0.000 C 
ATOM     11  O   UNL     1       5.664   6.759  15.788  0.00  0.00    +0.000 OA
BRANCH  10  12
ATOM     12  O   UNL     1       7.658   7.145  16.834  0.00  0.00    +0.000 OA
BRANCH  12  14
ATOM     13  C   UNL     1       8.410   9.121  18.077  0.00  0.00    +0.000 C 
ATOM     14  C   UNL     1       7.248   8.234  17.678  0.00  0.00    +0.000 C 
ENDBRANCH  12  14
ENDBRANCH  10  12
ENDBRANCH   4  10
ENDBRANCH   1   7
BRANCH   1  15
ATOM     15  C   UNL     1       2.607   5.715  19.097  0.00  0.00    +0.000 A 
ATOM     16  C   UNL     1       2.089   6.297  20.275  0.00  0.00    +0.000 A 
ATOM     17  C   UNL     1       1.855   7.654  20.038  0.00  0.00    +0.000 A 
ATOM     18  N   UNL     1       2.253   7.887  18.733  0.00  0.00    +0.000 N 
ATOM     19  C   UNL     1       2.213   9.129  17.992  0.00  0.00    +0.000 C 
ATOM     20  C   UNL     1       2.710   6.720  18.163  0.00  0.00    +0.000 A 
BRANCH  17  21
ATOM     21  C   UNL     1       1.283   8.613  20.968  0.00  0.00    +0.000 C 
ATOM     22  O   UNL     1       1.785   8.998  22.014  0.00  0.00    +0.000 OA
BRANCH  21  23
ATOM     23  O   UNL     1       0.074   9.038  20.496  0.00  0.00    +0.000 OA
ATOM     24  C   UNL     1      -0.175  10.435  20.636  0.00  0.00    +0.000 C 
ENDBRANCH  21  23
ENDBRANCH  17  21
ENDBRANCH   1  15
TORSDOF 7
ENDMDL
MODEL 3
REMARK VINA RESULT:      -6.5      3.415      7.041
REMARK  Name = 
REMARK  10 active torsions:
REMARK  status: ('A' for Active; 'I' for Inactive)
REMARK    1  A    between atoms: C_1  and  C_2
REMARK    2  A    between atoms: C_2  and  O_3
REMARK    3  A    between atoms: O_3  and  C_4
REMARK    4  A    between atoms: C_4  and  C_6
REMARK    5  A    between atoms: N_9  and  S_10
REMARK    6  A    between atoms: S_10  and  C_13
REMARK    7  A    between atoms: C_15  and  C_16
REMARK    8  A    between atoms: C_16  and  O_18
REMARK    9  A    between atoms: O_18  and  C_19
REMARK   10  A    between atoms: N_20  and  C_21
REMARK                            x       y       z     vdW  Elec       q    Type
REMARK                         _______ _______ _______ _____ _____    ______ ____
ROOT
ATOM      1  S   UNL     1       5.324   4.704  17.648  0.00  0.00    +0.000 S 
ATOM      2  O   UNL     1       5.000   6.103  17.850  0.00  0.00    +0.000 OA
ATOM      3  O   UNL     1       6.359   4.043  18.412  0.00  0.00    +0.000 OA
ENDROOT
BRANCH   1   7
ATOM      4  C   UNL     1       1.445   2.788  19.134  0.00  0.00    +0.000 C 
ATOM      5  C   UNL     1       2.679   1.902  18.926  0.00  0.00    +0.000 C 
ATOM      6  C   UNL     1       3.978   2.703  18.826  0.00  0.00    +0.000 C 
ATOM      7  N   UNL     1       3.876   3.780  17.801  0.00  0.00    +0.000 NA
ATOM      8  C   UNL     1       2.689   4.660  17.994  0.00  0.00    +0.000 C 
ATOM      9  C   UNL     1       1.412   3.822  17.999  0.00  0.00    +0.000 C 
BRANCH   4  10
ATOM     10  C   UNL     1       1.379   3.526  20.471  0.00  0.00    +0.000 C 
ATOM     11  O   UNL     1       1.610   2.979  21.543  0.00  0.00    +0.000 OA
BRANCH  10  12
ATOM     12  O   UNL     1       0.990   4.820  20.341  0.00  0.00    +0.000 OA
BRANCH  12  14
ATOM     13  C   UNL     1       1.503   7.201  20.633  0.00  0.00    +0.000 C 
ATOM     14  C   UNL     1       1.794   5.775  21.055  0.00  0.00    +0.000 C 
ENDBRANCH  12  14
ENDBRANCH  10  12
ENDBRANCH   4  10
ENDBRANCH   1   7
BRANCH   1  15
ATOM     15  C   UNL     1       5.858   4.643  16.006  0.00  0.00    +0.000 A 
ATOM     16  C   UNL     1       5.265   3.895  14.964  0.00  0.00    +0.000 A 
ATOM     17  C   UNL     1       6.031   4.055  13.807  0.00  0.00    +0.000 A 
ATOM     18  N   UNL     1       7.063   4.912  14.148  0.00  0.00    +0.000 N 
ATOM     19  C   UNL     1       8.140   5.396  13.314  0.00  0.00    +0.000 C 
ATOM     20  C   UNL     1       6.959   5.271  15.474  0.00  0.00    +0.000 A 
BRANCH  17  21
ATOM     21  C   UNL     1       5.803   3.424  12.519  0.00  0.00    +0.000 C 
ATOM     22  O   UNL     1       6.628   2.816  11.851  0.00  0.00    +0.000 OA
BRANCH  21  23
ATOM     23  O   UNL     1       4.502   3.606  12.147  0.00  0.00    +0.000 OA
ATOM     24  C   UNL     1       4.100   2.901  10.976  0.00  0.00    +0.000 C 
ENDBRANCH  21  23
ENDBRANCH  17  21
ENDBRANCH   1  15
TORSDOF 7
ENDMDL
MODEL 4
REMARK VINA RESULT:      -6.4      3.582      7.235
REMARK  Name = 
REMARK  10 active torsions:
REMARK  status: ('A' for Active; 'I' for Inactive)
REMARK    1  A    between atoms: C_1  and  C_2
REMARK    2  A    between atoms: C_2  and  O_3
REMARK    3  A    between atoms: O_3  and  C_4
REMARK    4  A    between atoms: C_4  and  C_6
REMARK    5  A    between atoms: N_9  and  S_10
REMARK    6  A    between atoms: S_10  and  C_13
REMARK    7  A    between atoms: C_15  and  C_16
REMARK    8  A    between atoms: C_16  and  O_18
REMARK    9  A    between atoms: O_18  and  C_19
REMARK   10  A    between atoms: N_20  and  C_21
REMARK                            x       y       z     vdW  Elec       q    Type
REMARK                         _______ _______ _______ _____ _____    ______ ____
ROOT
ATOM      1  S   UNL     1       5.616   4.882  17.300  0.00  0.00    +0.000 S 
ATOM      2  O   UNL     1       4.746   6.040  17.332  0.00  0.00    +0.000 OA
ATOM      3  O   UNL     1       6.887   4.864  17.989  0.00  0.00    +0.000 OA
ENDROOT
BRANCH   1   7
ATOM      4  C   UNL     1       2.544   2.073  19.198  0.00  0.00    +0.000 C 
ATOM      5  C   UNL     1       3.995   2.033  19.696  0.00  0.00    +0.000 C 
ATOM      6  C   UNL     1       4.800   3.265  19.282  0.00  0.00    +0.000 C 
ATOM      7  N   UNL     1       4.712   3.505  17.813  0.00  0.00    +0.000 NA
ATOM      8  C   UNL     1       3.310   3.560  17.313  0.00  0.00    +0.000 C 
ATOM      9  C   UNL     1       2.575   2.271  17.676  0.00  0.00    +0.000 C 
BRANCH   4  10
ATOM     10  C   UNL     1       1.663   3.158  19.816  0.00  0.00    +0.000 C 
ATOM     11  O   UNL     1       0.506   3.355  19.462  0.00  0.00    +0.000 OA
BRANCH  10  12
ATOM     12  O   UNL     1       2.314   3.900  20.748  0.00  0.00    +0.000 OA
BRANCH  12  14
ATOM     13  C   UNL     1       2.392   6.132  19.732  0.00  0.00    +0.000 C 
ATOM     14  C   UNL     1       1.873   5.264  20.862  0.00  0.00    +0.000 C 
ENDBRANCH  12  14
ENDBRANCH  10  12
ENDBRANCH   4  10
ENDBRANCH   1   7
BRANCH   1  15
ATOM     15  C   UNL     1       6.001   4.707  15.626  0.00  0.00    +0.000 A 
ATOM     16  C   UNL     1       5.315   3.899  14.692  0.00  0.00    +0.000 A 
ATOM     17  C   UNL     1       5.976   3.974  13.464  0.00  0.00    +0.000 A 
ATOM     18  N   UNL     1       7.038   4.841  13.655  0.00  0.00    +0.000 N 
ATOM     19  C   UNL     1       8.039   5.258  12.698  0.00  0.00    +0.000 C 
ATOM     20  C   UNL     1       7.054   5.288  14.958  0.00  0.00    +0.000 A 
BRANCH  17  21
ATOM     21  C   UNL     1       5.630   3.263  12.245  0.00  0.00    +0.000 C 
ATOM     22  O   UNL     1       4.580   3.351  11.625  0.00  0.00    +0.000 OA
BRANCH  21  23
ATOM     23  O   UNL     1       6.672   2.460  11.877  0.00  0.00    +0.000 OA
ATOM     24  C   UNL     1       6.307   1.284  11.158  0.00  0.00    +0.000 C 
ENDBRANCH  21  23
ENDBRANCH  17  21
ENDBRANCH   1  15
TORSDOF 7
ENDMDL
MODEL 5
REMARK VINA RESULT:      -6.4      3.372      7.137
REMARK  Name = 
REMARK  10 active torsions:
REMARK  status: ('A' for Active; 'I' for Inactive)
REMARK    1  A    between atoms: C_1  and  C_2
REMARK    2  A    between atoms: C_2  and  O_3
REMARK    3  A    between atoms: O_3  and  C_4
REMARK    4  A    between atoms: C_4  and  C_6
REMARK    5  A    between atoms: N_9  and  S_10
REMARK    6  A    between atoms: S_10  and  C_13
REMARK    7  A    between atoms: C_15  and  C_16
REMARK    8  A    between atoms: C_16  and  O_18
REMARK    9  A    between atoms: O_18  and  C_19
REMARK   10  A    between atoms: N_20  and  C_21
REMARK                            x       y       z     vdW  Elec       q    Type
REMARK                         _______ _______ _______ _____ _____    ______ ____
ROOT
ATOM      1  S   UNL     1       5.739   4.918  17.493  0.00  0.00    +0.000 S 
ATOM      2  O   UNL     1       5.618   6.350  17.680  0.00  0.00    +0.000 OA
ATOM      3  O   UNL     1       6.761   4.144  18.163  0.00  0.00    +0.000 OA
ENDROOT
BRANCH   1   7
ATOM      4  C   UNL     1       1.764   3.675  19.385  0.00  0.00    +0.000 C 
ATOM      5  C   UNL     1       2.886   2.636  19.264  0.00  0.00    +0.000 C 
ATOM      6  C   UNL     1       4.254   3.266  19.000  0.00  0.00    +0.000 C 
ATOM      7  N   UNL     1       4.212   4.191  17.832  0.00  0.00    +0.000 NA
ATOM      8  C   UNL     1       3.135   5.216  17.938  0.00  0.00    +0.000 C 
ATOM      9  C   UNL     1       1.780   4.535  18.112  0.00  0.00    +0.000 C 
BRANCH   4  10
ATOM     10  C   UNL     1       1.845   4.598  20.600  0.00  0.00    +0.000 C 
ATOM     11  O   UNL     1       2.465   4.304  21.616  0.00  0.00    +0.000 OA
BRANCH  10  12
ATOM     12  O   UNL     1       1.121   5.736  20.449  0.00  0.00    +0.000 OA
BRANCH  12  14
ATOM     13  C   UNL     1       0.885   8.063  21.189  0.00  0.00    +0.000 C 
ATOM     14  C   UNL     1       1.823   6.952  20.759  0.00  0.00    +0.000 C 
ENDBRANCH  12  14
ENDBRANCH  10  12
ENDBRANCH   4  10
ENDBRANCH   1   7
BRANCH   1  15
ATOM     15  C   UNL     1       6.075   4.754  15.806  0.00  0.00    +0.000 A 
ATOM     16  C   UNL     1       5.340   3.980  14.881  0.00  0.00    +0.000 A 
ATOM     17  C   UNL     1       5.971   4.052  13.637  0.00  0.00    +0.000 A 
ATOM     18  N   UNL     1       7.062   4.885  13.810  0.00  0.00    +0.000 N 
ATOM     19  C   UNL     1       8.050   5.285  12.832  0.00  0.00    +0.000 C 
ATOM     20  C   UNL     1       7.126   5.313  15.118  0.00  0.00    +0.000 A 
BRANCH  17  21
ATOM     21  C   UNL     1       5.573   3.367  12.419  0.00  0.00    +0.000 C 
ATOM     22  O   UNL     1       4.499   3.476  11.842  0.00  0.00    +0.000 OA
BRANCH  21  23
ATOM     23  O   UNL     1       6.592   2.564  11.995  0.00  0.00    +0.000 OA
ATOM     24  C   UNL     1       6.190   1.402  11.274  0.00  0.00    +0.000 C 
ENDBRANCH  21  23
ENDBRANCH  17  21
ENDBRANCH   1  15
TORSDOF 7
ENDMDL
MODEL 6
REMARK VINA RESULT:      -6.3      1.912      2.839
REMARK  Name = 
REMARK  10 active torsions:
REMARK  status: ('A' for Active; 'I' for Inactive)
REMARK    1  A    between atoms: C_1  and  C_2
REMARK    2  A    between atoms: C_2  and  O_3
REMARK    3  A    between atoms: O_3  and  C_4
REMARK    4  A    between atoms: C_4  and  C_6
REMARK    5  A    between atoms: N_9  and  S_10
REMARK    6  A    between atoms: S_10  and  C_13
REMARK    7  A    between atoms: C_15  and  C_16
REMARK    8  A    between atoms: C_16  and  O_18
REMARK    9  A    between atoms: O_18  and  C_19
REMARK   10  A    between atoms: N_20  and  C_21
REMARK                            x       y       z     vdW  Elec       q    Type
REMARK                         _______ _______ _______ _____ _____    ______ ____
ROOT
ATOM      1  S   UNL     1       3.047   5.680  19.077  0.00  0.00    +0.000 S 
ATOM      2  O   UNL     1       2.422   5.327  17.817  0.00  0.00    +0.000 OA
ATOM      3  O   UNL     1       3.006   4.798  20.222  0.00  0.00    +0.000 OA
ENDROOT
BRANCH   1   7
ATOM      4  C   UNL     1       7.286   5.954  17.380  0.00  0.00    +0.000 C 
ATOM      5  C   UNL     1       7.083   5.355  18.777  0.00  0.00    +0.000 C 
ATOM      6  C   UNL     1       5.632   4.956  19.049  0.00  0.00    +0.000 C 
ATOM      7  N   UNL     1       4.697   6.084  18.774  0.00  0.00    +0.000 NA
ATOM      8  C   UNL     1       4.871   6.670  17.415  0.00  0.00    +0.000 C 
ATOM      9  C   UNL     1       6.314   7.132  17.226  0.00  0.00    +0.000 C 
BRANCH   4  10
ATOM     10  C   UNL     1       7.077   4.990  16.212  0.00  0.00    +0.000 C 
ATOM     11  O   UNL     1       6.597   3.871  16.353  0.00  0.00    +0.000 OA
BRANCH  10  12
ATOM     12  O   UNL     1       7.525   5.487  15.031  0.00  0.00    +0.000 OA
BRANCH  12  14
ATOM     13  C   UNL     1       7.788   5.228  12.606  0.00  0.00    +0.000 C 
ATOM     14  C   UNL     1       7.055   4.796  13.860  0.00  0.00    +0.000 C 
ENDBRANCH  12  14
ENDBRANCH  10  12
ENDBRANCH   4  10
ENDBRANCH   1   7
BRANCH   1  15
ATOM     15  C   UNL     1       2.202   7.104  19.565  0.00  0.00    +0.000 A 
ATOM     16  C   UNL     1       1.904   8.219  18.750  0.00  0.00    +0.000 A 
ATOM     17  C   UNL     1       1.276   9.191  19.531  0.00  0.00    +0.000 A 
ATOM     18  N   UNL     1       1.175   8.651  20.802  0.00  0.00    +0.000 N 
ATOM     19  C   UNL     1       0.608   9.252  21.989  0.00  0.00    +0.000 C 
ATOM     20  C   UNL     1       1.730   7.391  20.825  0.00  0.00    +0.000 A 
BRANCH  17  21
ATOM     21  C   UNL     1       0.843  10.509  19.099  0.00  0.00    +0.000 C 
ATOM     22  O   UNL     1       1.323  11.580  19.445  0.00  0.00    +0.000 OA
BRANCH  21  23
ATOM     23  O   UNL     1      -0.201  10.382  18.229  0.00  0.00    +0.000 OA
ATOM     24  C   UNL     1      -1.155  11.440  18.268  0.00  0.00    +0.000 C 
ENDBRANCH  21  23
ENDBRANCH  17  21
ENDBRANCH   1  15
TORSDOF 7
ENDMDL
MODEL 7
REMARK VINA RESULT:      -6.2      1.516      2.187
REMARK  Name = 
REMARK  10 active torsions:
REMARK  status: ('A' for Active; 'I' for Inactive)
REMARK    1  A    between atoms: C_1  and  C_2
REMARK    2  A    between atoms: C_2  and  O_3
REMARK    3  A    between atoms: O_3  and  C_4
REMARK    4  A    between atoms: C_4  and  C_6
REMARK    5  A    between atoms: N_9  and  S_10
REMARK    6  A    between atoms: S_10  and  C_13
REMARK    7  A    between atoms: C_15  and  C_16
REMARK    8  A    between atoms: C_16  and  O_18
REMARK    9  A    between atoms: O_18  and  C_19
REMARK   10  A    between atoms: N_20  and  C_21
REMARK                            x       y       z     vdW  Elec       q    Type
REMARK                         _______ _______ _______ _____ _____    ______ ____
ROOT
ATOM      1  S   UNL     1       2.945   5.236  18.922  0.00  0.00    +0.000 S 
ATOM      2  O   UNL     1       1.795   4.362  18.805  0.00  0.00    +0.000 OA
ATOM      3  O   UNL     1       3.957   5.034  19.934  0.00  0.00    +0.000 OA
ENDROOT
BRANCH   1   7
ATOM      4  C   UNL     1       6.022   5.484  15.545  0.00  0.00    +0.000 C 
ATOM      5  C   UNL     1       5.061   6.660  15.763  0.00  0.00    +0.000 C 
ATOM      6  C   UNL     1       4.382   6.629  17.133  0.00  0.00    +0.000 C 
ATOM      7  N   UNL     1       3.733   5.312  17.388  0.00  0.00    +0.000 NA
ATOM      8  C   UNL     1       4.655   4.158  17.195  0.00  0.00    +0.000 C 
ATOM      9  C   UNL     1       5.238   4.186  15.783  0.00  0.00    +0.000 C 
BRANCH   4  10
ATOM     10  C   UNL     1       7.266   5.475  16.433  0.00  0.00    +0.000 C 
ATOM     11  O   UNL     1       7.846   4.443  16.753  0.00  0.00    +0.000 OA
BRANCH  10  12
ATOM     12  O   UNL     1       7.619   6.714  16.861  0.00  0.00    +0.000 OA
BRANCH  12  14
ATOM     13  C   UNL     1       7.294   5.702  19.072  0.00  0.00    +0.000 C 
ATOM     14  C   UNL     1       7.936   6.810  18.260  0.00  0.00    +0.000 C 
ENDBRANCH  12  14
ENDBRANCH  10  12
ENDBRANCH   4  10
ENDBRANCH   1   7
BRANCH   1  15
ATOM     15  C   UNL     1       2.250   6.778  19.272  0.00  0.00    +0.000 A 
ATOM     16  C   UNL     1       1.992   7.808  18.339  0.00  0.00    +0.000 A 
ATOM     17  C   UNL     1       1.495   8.919  19.025  0.00  0.00    +0.000 A 
ATOM     18  N   UNL     1       1.432   8.548  20.357  0.00  0.00    +0.000 N 
ATOM     19  C   UNL     1       0.993   9.335  21.488  0.00  0.00    +0.000 C 
ATOM     20  C   UNL     1       1.885   7.255  20.509  0.00  0.00    +0.000 A 
BRANCH  17  21
ATOM     21  C   UNL     1       1.143  10.207  18.454  0.00  0.00    +0.000 C 
ATOM     22  O   UNL     1       1.856  11.200  18.409  0.00  0.00    +0.000 OA
BRANCH  21  23
ATOM     23  O   UNL     1      -0.128  10.154  17.960  0.00  0.00    +0.000 OA
ATOM     24  C   UNL     1      -1.138  10.666  18.826  0.00  0.00    +0.000 C 
ENDBRANCH  21  23
ENDBRANCH  17  21
ENDBRANCH   1  15
TORSDOF 7
ENDMDL
MODEL 8
REMARK VINA RESULT:      -6.2      2.063      3.050
REMARK  Name = 
REMARK  10 active torsions:
REMARK  status: ('A' for Active; 'I' for Inactive)
REMARK    1  A    between atoms: C_1  and  C_2
REMARK    2  A    between atoms: C_2  and  O_3
REMARK    3  A    between atoms: O_3  and  C_4
REMARK    4  A    between atoms: C_4  and  C_6
REMARK    5  A    between atoms: N_9  and  S_10
REMARK    6  A    between atoms: S_10  and  C_13
REMARK    7  A    between atoms: C_15  and  C_16
REMARK    8  A    between atoms: C_16  and  O_18
REMARK    9  A    between atoms: O_18  and  C_19
REMARK   10  A    between atoms: N_20  and  C_21
REMARK                            x       y       z     vdW  Elec       q    Type
REMARK                         _______ _______ _______ _____ _____    ______ ____
ROOT
ATOM      1  S   UNL     1       2.847   5.510  18.976  0.00  0.00    +0.000 S 
ATOM      2  O   UNL     1       1.648   4.701  18.876  0.00  0.00    +0.000 OA
ATOM      3  O   UNL     1       3.825   5.299  20.020  0.00  0.00    +0.000 OA
ENDROOT
BRANCH   1   7
ATOM      4  C   UNL     1       5.999   5.394  15.663  0.00  0.00    +0.000 C 
ATOM      5  C   UNL     1       5.114   6.639  15.803  0.00  0.00    +0.000 C 
ATOM      6  C   UNL     1       4.408   6.718  17.157  0.00  0.00    +0.000 C 
ATOM      7  N   UNL     1       3.668   5.460  17.460  0.00  0.00    +0.000 NA
ATOM      8  C   UNL     1       4.516   4.240  17.342  0.00  0.00    +0.000 C 
ATOM      9  C   UNL     1       5.127   4.162  15.944  0.00  0.00    +0.000 C 
BRANCH   4  10
ATOM     10  C   UNL     1       7.223   5.347  16.578  0.00  0.00    +0.000 C 
ATOM     11  O   UNL     1       7.914   4.343  16.711  0.00  0.00    +0.000 OA
BRANCH  10  12
ATOM     12  O   UNL     1       7.421   6.507  17.254  0.00  0.00    +0.000 OA
BRANCH  12  14
ATOM     13  C   UNL     1       7.098   5.608  19.513  0.00  0.00    +0.000 C 
ATOM     14  C   UNL     1       8.004   6.362  18.561  0.00  0.00    +0.000 C 
ENDBRANCH  12  14
ENDBRANCH  10  12
ENDBRANCH   4  10
ENDBRANCH   1   7
BRANCH   1  15
ATOM     15  C   UNL     1       2.241   7.106  19.233  0.00  0.00    +0.000 A 
ATOM     16  C   UNL     1       1.629   7.586  20.413  0.00  0.00    +0.000 A 
ATOM     17  C   UNL     1       1.213   8.902  20.198  0.00  0.00    +0.000 A 
ATOM     18  N   UNL     1       1.596   9.217  18.906  0.00  0.00    +0.000 N 
ATOM     19  C   UNL     1       1.397  10.456  18.188  0.00  0.00    +0.000 C 
ATOM     20  C   UNL     1       2.218   8.136  18.322  0.00  0.00    +0.000 A 
BRANCH  17  21
ATOM     21  C   UNL     1       0.500   9.753  21.135  0.00  0.00    +0.000 C 
ATOM     22  O   UNL     1      -0.447  10.483  20.878  0.00  0.00    +0.000 OA
BRANCH  21  23
ATOM     23  O   UNL     1       1.049   9.620  22.379  0.00  0.00    +0.000 OA
ATOM     24  C   UNL     1       0.111   9.495  23.445  0.00  0.00    +0.000 C 
ENDBRANCH  21  23
ENDBRANCH  17  21
ENDBRANCH   1  15
TORSDOF 7
ENDMDL
MODEL 9
REMARK VINA RESULT:      -6.1      1.688      2.458
REMARK  Name = 
REMARK  10 active torsions:
REMARK  status: ('A' for Active; 'I' for Inactive)
REMARK    1  A    between atoms: C_1  and  C_2
REMARK    2  A    between atoms: C_2  and  O_3
REMARK    3  A    between atoms: O_3  and  C_4
REMARK    4  A    between atoms: C_4  and  C_6
REMARK    5  A    between atoms: N_9  and  S_10
REMARK    6  A    between atoms: S_10  and  C_13
REMARK    7  A    between atoms: C_15  and  C_16
REMARK    8  A    between atoms: C_16  and  O_18
REMARK    9  A    between atoms: O_18  and  C_19
REMARK   10  A    between atoms: N_20  and  C_21
REMARK                            x       y       z     vdW  Elec       q    Type
REMARK                         _______ _______ _______ _____ _____    ______ ____
ROOT
ATOM      1  S   UNL     1       2.757   5.365  18.930  0.00  0.00    +0.000 S 
ATOM      2  O   UNL     1       1.558   4.573  18.740  0.00  0.00    +0.000 OA
ATOM      3  O   UNL     1       3.713   5.064  19.972  0.00  0.00    +0.000 OA
ENDROOT
BRANCH   1   7
ATOM      4  C   UNL     1       5.973   5.540  15.682  0.00  0.00    +0.000 C 
ATOM      5  C   UNL     1       5.063   6.757  15.892  0.00  0.00    +0.000 C 
ATOM      6  C   UNL     1       4.330   6.727  17.233  0.00  0.00    +0.000 C 
ATOM      7  N   UNL     1       3.607   5.438  17.430  0.00  0.00    +0.000 NA
ATOM      8  C   UNL     1       4.480   4.244  17.243  0.00  0.00    +0.000 C 
ATOM      9  C   UNL     1       5.119   4.277  15.856  0.00  0.00    +0.000 C 
BRANCH   4  10
ATOM     10  C   UNL     1       7.180   5.449  16.615  0.00  0.00    +0.000 C 
ATOM     11  O   UNL     1       7.860   4.434  16.724  0.00  0.00    +0.000 OA
BRANCH  10  12
ATOM     12  O   UNL     1       7.376   6.582  17.337  0.00  0.00    +0.000 OA
BRANCH  12  14
ATOM     13  C   UNL     1       7.043   5.601  19.561  0.00  0.00    +0.000 C 
ATOM     14  C   UNL     1       7.956   6.385  18.638  0.00  0.00    +0.000 C 
ENDBRANCH  12  14
ENDBRANCH  10  12
ENDBRANCH   4  10
ENDBRANCH   1   7
BRANCH   1  15
ATOM     15  C   UNL     1       2.150   6.937  19.307  0.00  0.00    +0.000 A 
ATOM     16  C   UNL     1       1.913   7.983  18.387  0.00  0.00    +0.000 A 
ATOM     17  C   UNL     1       1.492   9.113  19.091  0.00  0.00    +0.000 A 
ATOM     18  N   UNL     1       1.454   8.739  20.424  0.00  0.00    +0.000 N 
ATOM     19  C   UNL     1       1.090   9.542  21.570  0.00  0.00    +0.000 C 
ATOM     20  C   UNL     1       1.848   7.426  20.557  0.00  0.00    +0.000 A 
BRANCH  17  21
ATOM     21  C   UNL     1       1.186  10.420  18.536  0.00  0.00    +0.000 C 
ATOM     22  O   UNL     1       0.084  10.948  18.488  0.00  0.00    +0.000 OA
BRANCH  21  23
ATOM     23  O   UNL     1       2.332  10.994  18.065  0.00  0.00    +0.000 OA
ATOM     24  C   UNL     1       2.440  12.399  18.281  0.00  0.00    +0.000 C 
ENDBRANCH  21  23
ENDBRANCH  17  21
ENDBRANCH   1  15
TORSDOF 7
ENDMDL
