MODEL 1
REMARK VINA RESULT:      -7.4      0.000      0.000
REMARK  Name = 
REMARK  15 active torsions:
REMARK  status: ('A' for Active; 'I' for Inactive)
REMARK    1  A    between atoms: C_1  and  C_2
REMARK    2  A    between atoms: C_2  and  O_3
REMARK    3  A    between atoms: O_3  and  C_4
REMARK    4  A    between atoms: C_4  and  C_6
REMARK    5  A    between atoms: C_7  and  C_8
REMARK    6  A    between atoms: C_10  and  C_11
REMARK    7  A    between atoms: C_11  and  O_12
REMARK    8  A    between atoms: O_12  and  C_13
REMARK    9  A    between atoms: C_13  and  C_15
REMARK   10  A    between atoms: C_21  and  C_22
REMARK   11  A    between atoms: C_22  and  O_24
REMARK   12  A    between atoms: O_24  and  C_25
REMARK   13  A    between atoms: C_25  and  C_26
REMARK   14  A    between atoms: C_27  and  C_28
REMARK   15  A    between atoms: C_32  and  N_33
REMARK                            x       y       z     vdW  Elec       q    Type
REMARK                         _______ _______ _______ _____ _____    ______ ____
ROOT
ATOM      1  C   UNL     1       5.655   5.577  17.284  0.00  0.00    +0.000 C 
ATOM      2  C   UNL     1       5.709   6.917  17.496  0.00  0.00    +0.000 C 
ATOM      3  C   UNL     1       6.955   7.774  17.527  0.00  0.00    +0.000 C 
ATOM      4  N   UNL     1       4.535   7.629  17.708  0.00  0.00    +0.000 N 
ATOM      5  C   UNL     1       3.299   7.062  17.969  0.00  0.00    +0.000 C 
ATOM      6  C   UNL     1       3.142   5.726  17.805  0.00  0.00    +0.000 C 
ATOM      7  C   UNL     1       4.291   4.869  17.229  0.00  0.00    +0.000 C 
ATOM      8  H   UNL     1       4.623   8.638  17.821  0.00  0.00    +0.000 HD
ENDROOT
BRANCH   7   9
ATOM      9  C   UNL     1       4.299   3.462  17.835  0.00  0.00    +0.000 A 
ATOM     10  C   UNL     1       3.936   2.359  17.034  0.00  0.00    +0.000 A 
ATOM     11  C   UNL     1       3.785   1.089  17.590  0.00  0.00    +0.000 A 
ATOM     12  C   UNL     1       3.964   0.906  18.961  0.00  0.00    +0.000 A 
ATOM     13  C   UNL     1       4.340   1.996  19.758  0.00  0.00    +0.000 A 
ATOM     14  C   UNL     1       4.549   3.263  19.199  0.00  0.00    +0.000 A 
BRANCH  13  15
ATOM     15  N   UNL     1       4.443   1.833  21.210  0.00  0.00    +0.000 N 
ATOM     16  O   UNL     1       3.477   2.190  21.900  0.00  0.00    +0.000 OA
ATOM     17  O   UNL     1       5.497   1.365  21.666  0.00  0.00    +0.000 OA
ENDBRANCH  13  15
ENDBRANCH   7   9
BRANCH   1  18
ATOM     18  C   UNL     1       6.903   4.784  17.116  0.00  0.00    +0.000 C 
ATOM     19  O   UNL     1       7.596   4.386  18.040  0.00  0.00    +0.000 OA
BRANCH  18  20
ATOM     20  O   UNL     1       7.152   4.544  15.805  0.00  0.00    +0.000 OA
BRANCH  20  22
ATOM     21  C   UNL     1       5.899   4.010  13.750  0.00  0.00    +0.000 C 
ATOM     22  C   UNL     1       6.153   5.002  14.876  0.00  0.00    +0.000 C 
ENDBRANCH  20  22
ENDBRANCH  18  20
ENDBRANCH   1  18
BRANCH   6  23
ATOM     23  C   UNL     1       1.883   5.025  18.184  0.00  0.00    +0.000 C 
ATOM     24  O   UNL     1       1.124   4.496  17.390  0.00  0.00    +0.000 OA
BRANCH  23  25
ATOM     25  O   UNL     1       1.796   4.947  19.535  0.00  0.00    +0.000 OA
BRANCH  25  26
ATOM     26  C   UNL     1       0.768   4.123  20.104  0.00  0.00    +0.000 C 
ATOM     27  C   UNL     1       0.851   2.689  19.620  0.00  0.00    +0.000 C 
ENDBRANCH  25  26
ENDBRANCH  23  25
ENDBRANCH   6  23
BRANCH   5  28
ATOM     28  C   UNL     1       2.212   8.026  18.428  0.00  0.00    +0.000 C 
BRANCH  28  29
ATOM     29  O   UNL     1       1.864   8.954  17.392  0.00  0.00    +0.000 OA
BRANCH  29  30
ATOM     30  C   UNL     1       1.629  10.219  17.820  0.00  0.00    +0.000 C 
ATOM     31  O   UNL     1       2.481  11.066  18.043  0.00  0.00    +0.000 OA
BRANCH  30  32
ATOM     32  C   UNL     1       0.174  10.462  18.018  0.00  0.00    +0.000 A 
ATOM     33  C   UNL     1      -0.207  11.485  18.899  0.00  0.00    +0.000 A 
ATOM     34  C   UNL     1      -1.562  11.737  19.157  0.00  0.00    +0.000 A 
ATOM     35  C   UNL     1      -2.538  10.967  18.525  0.00  0.00    +0.000 A 
ATOM     36  C   UNL     1      -2.171   9.948  17.648  0.00  0.00    +0.000 A 
ATOM     37  C   UNL     1      -0.818   9.695  17.395  0.00  0.00    +0.000 A 
ENDBRANCH  30  32
ENDBRANCH  29  30
ENDBRANCH  28  29
ENDBRANCH   5  28
TORSDOF 12
ENDMDL
MODEL 2
REMARK VINA RESULT:      -7.3      1.068      1.456
REMARK  Name = 
REMARK  15 active torsions:
REMARK  status: ('A' for Active; 'I' for Inactive)
REMARK    1  A    between atoms: C_1  and  C_2
REMARK    2  A    between atoms: C_2  and  O_3
REMARK    3  A    between atoms: O_3  and  C_4
REMARK    4  A    between atoms: C_4  and  C_6
REMARK    5  A    between atoms: C_7  and  C_8
REMARK    6  A    between atoms: C_10  and  C_11
REMARK    7  A    between atoms: C_11  and  O_12
REMARK    8  A    between atoms: O_12  and  C_13
REMARK    9  A    between atoms: C_13  and  C_15
REMARK   10  A    between atoms: C_21  and  C_22
REMARK   11  A    between atoms: C_22  and  O_24
REMARK   12  A    between atoms: O_24  and  C_25
REMARK   13  A    between atoms: C_25  and  C_26
REMARK   14  A    between atoms: C_27  and  C_28
REMARK   15  A    between atoms: C_32  and  N_33
REMARK                            x       y       z     vdW  Elec       q    Type
REMARK                         _______ _______ _______ _____ _____    ______ ____
ROOT
ATOM      1  C   UNL     1       5.660   5.636  17.269  0.00  0.00    +0.000 C 
ATOM      2  C   UNL     1       5.727   6.977  17.469  0.00  0.00    +0.000 C 
ATOM      3  C   UNL     1       6.981   7.821  17.501  0.00  0.00    +0.000 C 
ATOM      4  N   UNL     1       4.559   7.703  17.666  0.00  0.00    +0.000 N 
ATOM      5  C   UNL     1       3.315   7.151  17.923  0.00  0.00    +0.000 C 
ATOM      6  C   UNL     1       3.145   5.815  17.770  0.00  0.00    +0.000 C 
ATOM      7  C   UNL     1       4.290   4.941  17.210  0.00  0.00    +0.000 C 
ATOM      8  H   UNL     1       4.657   8.712  17.770  0.00  0.00    +0.000 HD
ENDROOT
BRANCH   7   9
ATOM      9  C   UNL     1       4.279   3.539  17.829  0.00  0.00    +0.000 A 
ATOM     10  C   UNL     1       3.854   2.441  17.053  0.00  0.00    +0.000 A 
ATOM     11  C   UNL     1       3.685   1.181  17.627  0.00  0.00    +0.000 A 
ATOM     12  C   UNL     1       3.911   1.004  18.992  0.00  0.00    +0.000 A 
ATOM     13  C   UNL     1       4.348   2.089  19.763  0.00  0.00    +0.000 A 
ATOM     14  C   UNL     1       4.573   3.344  19.184  0.00  0.00    +0.000 A 
BRANCH  13  15
ATOM     15  N   UNL     1       4.500   1.936  21.212  0.00  0.00    +0.000 N 
ATOM     16  O   UNL     1       5.574   1.482  21.633  0.00  0.00    +0.000 OA
ATOM     17  O   UNL     1       3.541   2.253  21.931  0.00  0.00    +0.000 OA
ENDBRANCH  13  15
ENDBRANCH   7   9
BRANCH   1  18
ATOM     18  C   UNL     1       6.901   4.828  17.117  0.00  0.00    +0.000 C 
ATOM     19  O   UNL     1       7.507   4.314  18.046  0.00  0.00    +0.000 OA
BRANCH  18  20
ATOM     20  O   UNL     1       7.253   4.721  15.812  0.00  0.00    +0.000 OA
BRANCH  20  22
ATOM     21  C   UNL     1       5.810   4.234  13.873  0.00  0.00    +0.000 C 
ATOM     22  C   UNL     1       6.591   3.688  15.061  0.00  0.00    +0.000 C 
ENDBRANCH  20  22
ENDBRANCH  18  20
ENDBRANCH   1  18
BRANCH   6  23
ATOM     23  C   UNL     1       1.877   5.130  18.146  0.00  0.00    +0.000 C 
ATOM     24  O   UNL     1       1.095   4.642  17.348  0.00  0.00    +0.000 OA
BRANCH  23  25
ATOM     25  O   UNL     1       1.807   5.014  19.496  0.00  0.00    +0.000 OA
BRANCH  25  26
ATOM     26  C   UNL     1       0.679   4.330  20.062  0.00  0.00    +0.000 C 
ATOM     27  C   UNL     1       0.891   2.829  20.120  0.00  0.00    +0.000 C 
ENDBRANCH  25  26
ENDBRANCH  23  25
ENDBRANCH   6  23
BRANCH   5  28
ATOM     28  C   UNL     1       2.234   8.130  18.366  0.00  0.00    +0.000 C 
BRANCH  28  29
ATOM     29  O   UNL     1       2.277   8.349  19.783  0.00  0.00    +0.000 OA
BRANCH  29  30
ATOM     30  C   UNL     1       1.090   8.699  20.338  0.00  0.00    +0.000 C 
ATOM     31  O   UNL     1       0.491   8.067  21.195  0.00  0.00    +0.000 OA
BRANCH  30  32
ATOM     32  C   UNL     1       0.570   9.965  19.751  0.00  0.00    +0.000 A 
ATOM     33  C   UNL     1       1.226  11.159  20.079  0.00  0.00    +0.000 A 
ATOM     34  C   UNL     1       0.761  12.387  19.587  0.00  0.00    +0.000 A 
ATOM     35  C   UNL     1      -0.361  12.418  18.759  0.00  0.00    +0.000 A 
ATOM     36  C   UNL     1      -1.021  11.236  18.427  0.00  0.00    +0.000 A 
ATOM     37  C   UNL     1      -0.558  10.011  18.921  0.00  0.00    +0.000 A 
ENDBRANCH  30  32
ENDBRANCH  29  30
ENDBRANCH  28  29
ENDBRANCH   5  28
TORSDOF 12
ENDMDL
MODEL 3
REMARK VINA RESULT:      -7.3      1.271      2.010
REMARK  Name = 
REMARK  15 active torsions:
REMARK  status: ('A' for Active; 'I' for Inactive)
REMARK    1  A    between atoms: C_1  and  C_2
REMARK    2  A    between atoms: C_2  and  O_3
REMARK    3  A    between atoms: O_3  and  C_4
REMARK    4  A    between atoms: C_4  and  C_6
REMARK    5  A    between atoms: C_7  and  C_8
REMARK    6  A    between atoms: C_10  and  C_11
REMARK    7  A    between atoms: C_11  and  O_12
REMARK    8  A    between atoms: O_12  and  C_13
REMARK    9  A    between atoms: C_13  and  C_15
REMARK   10  A    between atoms: C_21  and  C_22
REMARK   11  A    between atoms: C_22  and  O_24
REMARK   12  A    between atoms: O_24  and  C_25
REMARK   13  A    between atoms: C_25  and  C_26
REMARK   14  A    between atoms: C_27  and  C_28
REMARK   15  A    between atoms: C_32  and  N_33
REMARK                            x       y       z     vdW  Elec       q    Type
REMARK                         _______ _______ _______ _____ _____    ______ ____
ROOT
ATOM      1  C   UNL     1       5.599   5.703  17.302  0.00  0.00    +0.000 C 
ATOM      2  C   UNL     1       5.629   7.041  17.528  0.00  0.00    +0.000 C 
ATOM      3  C   UNL     1       6.857   7.923  17.550  0.00  0.00    +0.000 C 
ATOM      4  N   UNL     1       4.444   7.727  17.765  0.00  0.00    +0.000 N 
ATOM      5  C   UNL     1       3.224   7.131  18.037  0.00  0.00    +0.000 C 
ATOM      6  C   UNL     1       3.092   5.794  17.860  0.00  0.00    +0.000 C 
ATOM      7  C   UNL     1       4.249   4.968  17.258  0.00  0.00    +0.000 C 
ATOM      8  H   UNL     1       4.513   8.736  17.888  0.00  0.00    +0.000 HD
ENDROOT
BRANCH   7   9
ATOM      9  C   UNL     1       4.295   3.554  17.848  0.00  0.00    +0.000 A 
ATOM     10  C   UNL     1       3.967   2.451  17.032  0.00  0.00    +0.000 A 
ATOM     11  C   UNL     1       3.849   1.170  17.573  0.00  0.00    +0.000 A 
ATOM     12  C   UNL     1       4.029   0.976  18.942  0.00  0.00    +0.000 A 
ATOM     13  C   UNL     1       4.370   2.067  19.753  0.00  0.00    +0.000 A 
ATOM     14  C   UNL     1       4.545   3.346  19.210  0.00  0.00    +0.000 A 
BRANCH  13  15
ATOM     15  N   UNL     1       4.473   1.891  21.204  0.00  0.00    +0.000 N 
ATOM     16  O   UNL     1       5.539   1.450  21.657  0.00  0.00    +0.000 OA
ATOM     17  O   UNL     1       3.481   2.176  21.892  0.00  0.00    +0.000 OA
ENDBRANCH  13  15
ENDBRANCH   7   9
BRANCH   1  18
ATOM     18  C   UNL     1       6.860   4.938  17.106  0.00  0.00    +0.000 C 
ATOM     19  O   UNL     1       7.486   4.399  18.007  0.00  0.00    +0.000 OA
BRANCH  18  20
ATOM     20  O   UNL     1       7.206   4.900  15.796  0.00  0.00    +0.000 OA
BRANCH  20  22
ATOM     21  C   UNL     1       5.693   4.274  13.953  0.00  0.00    +0.000 C 
ATOM     22  C   UNL     1       6.664   3.810  15.029  0.00  0.00    +0.000 C 
ENDBRANCH  20  22
ENDBRANCH  18  20
ENDBRANCH   1  18
BRANCH   6  23
ATOM     23  C   UNL     1       1.853   5.062  18.249  0.00  0.00    +0.000 C 
ATOM     24  O   UNL     1       1.070   4.565  17.458  0.00  0.00    +0.000 OA
BRANCH  23  25
ATOM     25  O   UNL     1       1.816   4.919  19.598  0.00  0.00    +0.000 OA
BRANCH  25  26
ATOM     26  C   UNL     1       0.796   4.083  20.164  0.00  0.00    +0.000 C 
ATOM     27  C   UNL     1       0.807   2.686  19.572  0.00  0.00    +0.000 C 
ENDBRANCH  25  26
ENDBRANCH  23  25
ENDBRANCH   6  23
BRANCH   5  28
ATOM     28  C   UNL     1       2.124   8.067  18.524  0.00  0.00    +0.000 C 
BRANCH  28  29
ATOM     29  O   UNL     1       2.386   9.424  18.141  0.00  0.00    +0.000 OA
BRANCH  29  30
ATOM     30  C   UNL     1       1.314  10.251  18.218  0.00  0.00    +0.000 C 
ATOM     31  O   UNL     1       0.176   9.978  17.866  0.00  0.00    +0.000 OA
BRANCH  30  32
ATOM     32  C   UNL     1       1.694  11.580  18.772  0.00  0.00    +0.000 A 
ATOM     33  C   UNL     1       2.535  12.396  18.001  0.00  0.00    +0.000 A 
ATOM     34  C   UNL     1       2.958  13.642  18.484  0.00  0.00    +0.000 A 
ATOM     35  C   UNL     1       2.532  14.076  19.740  0.00  0.00    +0.000 A 
ATOM     36  C   UNL     1       1.696  13.273  20.513  0.00  0.00    +0.000 A 
ATOM     37  C   UNL     1       1.277  12.027  20.032  0.00  0.00    +0.000 A 
ENDBRANCH  30  32
ENDBRANCH  29  30
ENDBRANCH  28  29
ENDBRANCH   5  28
TORSDOF 12
ENDMDL
MODEL 4
REMARK VINA RESULT:      -7.2      0.662      1.198
REMARK  Name = 
REMARK  15 active torsions:
REMARK  status: ('A' for Active; 'I' for Inactive)
REMARK    1  A    between atoms: C_1  and  C_2
REMARK    2  A    between atoms: C_2  and  O_3
REMARK    3  A    between atoms: O_3  and  C_4
REMARK    4  A    between atoms: C_4  and  C_6
REMARK    5  A    between atoms: C_7  and  C_8
REMARK    6  A    between atoms: C_10  and  C_11
REMARK    7  A    between atoms: C_11  and  O_12
REMARK    8  A    between atoms: O_12  and  C_13
REMARK    9  A    between atoms: C_13  and  C_15
REMARK   10  A    between atoms: C_21  and  C_22
REMARK   11  A    between atoms: C_22  and  O_24
REMARK   12  A    between atoms: O_24  and  C_25
REMARK   13  A    between atoms: C_25  and  C_26
REMARK   14  A    between atoms: C_27  and  C_28
REMARK   15  A    between atoms: C_32  and  N_33
REMARK                            x       y       z     vdW  Elec       q    Type
REMARK                         _______ _______ _______ _____ _____    ______ ____
ROOT
ATOM      1  C   UNL     1       5.677   5.674  17.264  0.00  0.00    +0.000 C 
ATOM      2  C   UNL     1       5.792   7.008  17.491  0.00  0.00    +0.000 C 
ATOM      3  C   UNL     1       7.075   7.808  17.523  0.00  0.00    +0.000 C 
ATOM      4  N   UNL     1       4.653   7.769  17.719  0.00  0.00    +0.000 N 
ATOM      5  C   UNL     1       3.394   7.255  17.981  0.00  0.00    +0.000 C 
ATOM      6  C   UNL     1       3.176   5.929  17.804  0.00  0.00    +0.000 C 
ATOM      7  C   UNL     1       4.282   5.029  17.210  0.00  0.00    +0.000 C 
ATOM      8  H   UNL     1       4.787   8.772  17.843  0.00  0.00    +0.000 HD
ENDROOT
BRANCH   7   9
ATOM      9  C   UNL     1       4.231   3.615  17.800  0.00  0.00    +0.000 A 
ATOM     10  C   UNL     1       3.744   2.551  17.012  0.00  0.00    +0.000 A 
ATOM     11  C   UNL     1       3.540   1.287  17.563  0.00  0.00    +0.000 A 
ATOM     12  C   UNL     1       3.792   1.072  18.918  0.00  0.00    +0.000 A 
ATOM     13  C   UNL     1       4.290   2.122  19.701  0.00  0.00    +0.000 A 
ATOM     14  C   UNL     1       4.550   3.379  19.143  0.00  0.00    +0.000 A 
BRANCH  13  15
ATOM     15  N   UNL     1       4.471   1.932  21.142  0.00  0.00    +0.000 N 
ATOM     16  O   UNL     1       5.562   1.492  21.532  0.00  0.00    +0.000 OA
ATOM     17  O   UNL     1       3.517   2.205  21.886  0.00  0.00    +0.000 OA
ENDBRANCH  13  15
ENDBRANCH   7   9
BRANCH   1  18
ATOM     18  C   UNL     1       6.887   4.828  17.079  0.00  0.00    +0.000 C 
ATOM     19  O   UNL     1       7.500   4.293  17.990  0.00  0.00    +0.000 OA
BRANCH  18  20
ATOM     20  O   UNL     1       7.201   4.713  15.765  0.00  0.00    +0.000 OA
BRANCH  20  22
ATOM     21  C   UNL     1       6.263   4.069  13.578  0.00  0.00    +0.000 C 
ATOM     22  C   UNL     1       6.500   3.691  15.033  0.00  0.00    +0.000 C 
ENDBRANCH  20  22
ENDBRANCH  18  20
ENDBRANCH   1  18
BRANCH   6  23
ATOM     23  C   UNL     1       1.890   5.280  18.182  0.00  0.00    +0.000 C 
ATOM     24  O   UNL     1       1.267   4.515  17.466  0.00  0.00    +0.000 OA
BRANCH  23  25
ATOM     25  O   UNL     1       1.606   5.560  19.479  0.00  0.00    +0.000 OA
BRANCH  25  26
ATOM     26  C   UNL     1       1.662   4.489  20.434  0.00  0.00    +0.000 C 
ATOM     27  C   UNL     1       0.759   3.333  20.049  0.00  0.00    +0.000 C 
ENDBRANCH  25  26
ENDBRANCH  23  25
ENDBRANCH   6  23
BRANCH   5  28
ATOM     28  C   UNL     1       2.354   8.261  18.459  0.00  0.00    +0.000 C 
BRANCH  28  29
ATOM     29  O   UNL     1       2.076   9.243  17.452  0.00  0.00    +0.000 OA
BRANCH  29  30
ATOM     30  C   UNL     1       2.042  10.522  17.903  0.00  0.00    +0.000 C 
ATOM     31  O   UNL     1       2.883  11.380  17.677  0.00  0.00    +0.000 OA
BRANCH  30  32
ATOM     32  C   UNL     1       0.843  10.766  18.750  0.00  0.00    +0.000 A 
ATOM     33  C   UNL     1      -0.417  10.488  18.201  0.00  0.00    +0.000 A 
ATOM     34  C   UNL     1      -1.586  10.732  18.936  0.00  0.00    +0.000 A 
ATOM     35  C   UNL     1      -1.492  11.248  20.228  0.00  0.00    +0.000 A 
ATOM     36  C   UNL     1      -0.245  11.527  20.784  0.00  0.00    +0.000 A 
ATOM     37  C   UNL     1       0.921  11.287  20.048  0.00  0.00    +0.000 A 
ENDBRANCH  30  32
ENDBRANCH  29  30
ENDBRANCH  28  29
ENDBRANCH   5  28
TORSDOF 12
ENDMDL
MODEL 5
REMARK VINA RESULT:      -7.2      3.941      9.720
REMARK  Name = 
REMARK  15 active torsions:
REMARK  status: ('A' for Active; 'I' for Inactive)
REMARK    1  A    between atoms: C_1  and  C_2
REMARK    2  A    between atoms: C_2  and  O_3
REMARK    3  A    between atoms: O_3  and  C_4
REMARK    4  A    between atoms: C_4  and  C_6
REMARK    5  A    between atoms: C_7  and  C_8
REMARK    6  A    between atoms: C_10  and  C_11
REMARK    7  A    between atoms: C_11  and  O_12
REMARK    8  A    between atoms: O_12  and  C_13
REMARK    9  A    between atoms: C_13  and  C_15
REMARK   10  A    between atoms: C_21  and  C_22
REMARK   11  A    between atoms: C_22  and  O_24
REMARK   12  A    between atoms: O_24  and  C_25
REMARK   13  A    between atoms: C_25  and  C_26
REMARK   14  A    between atoms: C_27  and  C_28
REMARK   15  A    between atoms: C_32  and  N_33
REMARK                            x       y       z     vdW  Elec       q    Type
REMARK                         _______ _______ _______ _____ _____    ______ ____
ROOT
ATOM      1  C   UNL     1       1.165  13.496  19.540  0.00  0.00    +0.000 C 
ATOM      2  C   UNL     1       2.024  13.246  18.518  0.00  0.00    +0.000 C 
ATOM      3  C   UNL     1       2.769  14.275  17.697  0.00  0.00    +0.000 C 
ATOM      4  N   UNL     1       2.289  11.935  18.146  0.00  0.00    +0.000 N 
ATOM      5  C   UNL     1       1.567  10.830  18.564  0.00  0.00    +0.000 C 
ATOM      6  C   UNL     1       0.668  10.974  19.568  0.00  0.00    +0.000 C 
ATOM      7  C   UNL     1       0.534  12.323  20.308  0.00  0.00    +0.000 C 
ATOM      8  H   UNL     1       2.973  11.797  17.403  0.00  0.00    +0.000 HD
ENDROOT
BRANCH   7   9
ATOM      9  C   UNL     1      -0.911  12.578  20.751  0.00  0.00    +0.000 A 
ATOM     10  C   UNL     1      -1.209  12.671  22.126  0.00  0.00    +0.000 A 
ATOM     11  C   UNL     1      -2.530  12.749  22.569  0.00  0.00    +0.000 A 
ATOM     12  C   UNL     1      -3.574  12.706  21.646  0.00  0.00    +0.000 A 
ATOM     13  C   UNL     1      -3.282  12.629  20.278  0.00  0.00    +0.000 A 
ATOM     14  C   UNL     1      -1.958  12.606  19.822  0.00  0.00    +0.000 A 
BRANCH  13  15
ATOM     15  N   UNL     1      -4.371  12.492  19.308  0.00  0.00    +0.000 N 
ATOM     16  O   UNL     1      -4.176  11.768  18.321  0.00  0.00    +0.000 OA
ATOM     17  O   UNL     1      -5.418  13.122  19.522  0.00  0.00    +0.000 OA
ENDBRANCH  13  15
ENDBRANCH   7   9
BRANCH   1  18
ATOM     18  C   UNL     1       0.818  14.893  19.916  0.00  0.00    +0.000 C 
ATOM     19  O   UNL     1       1.358  15.519  20.815  0.00  0.00    +0.000 OA
BRANCH  18  20
ATOM     20  O   UNL     1      -0.157  15.384  19.112  0.00  0.00    +0.000 OA
BRANCH  20  22
ATOM     21  C   UNL     1      -0.367  17.509  17.880  0.00  0.00    +0.000 C 
ATOM     22  C   UNL     1      -0.421  16.794  19.223  0.00  0.00    +0.000 C 
ENDBRANCH  20  22
ENDBRANCH  18  20
ENDBRANCH   1  18
BRANCH   6  23
ATOM     23  C   UNL     1      -0.234   9.865  19.988  0.00  0.00    +0.000 C 
ATOM     24  O   UNL     1      -1.232   9.520  19.378  0.00  0.00    +0.000 OA
BRANCH  23  25
ATOM     25  O   UNL     1       0.302   9.225  21.057  0.00  0.00    +0.000 OA
BRANCH  25  26
ATOM     26  C   UNL     1      -0.550   8.939  22.176  0.00  0.00    +0.000 C 
ATOM     27  C   UNL     1       0.017   9.473  23.478  0.00  0.00    +0.000 C 
ENDBRANCH  25  26
ENDBRANCH  23  25
ENDBRANCH   6  23
BRANCH   5  28
ATOM     28  C   UNL     1       1.864   9.527  17.830  0.00  0.00    +0.000 C 
BRANCH  28  29
ATOM     29  O   UNL     1       2.316   8.510  18.734  0.00  0.00    +0.000 OA
BRANCH  29  30
ATOM     30  C   UNL     1       2.860   7.421  18.136  0.00  0.00    +0.000 C 
ATOM     31  O   UNL     1       3.648   7.440  17.202  0.00  0.00    +0.000 OA
BRANCH  30  32
ATOM     32  C   UNL     1       2.355   6.159  18.744  0.00  0.00    +0.000 A 
ATOM     33  C   UNL     1       2.112   5.071  17.894  0.00  0.00    +0.000 A 
ATOM     34  C   UNL     1       1.600   3.869  18.401  0.00  0.00    +0.000 A 
ATOM     35  C   UNL     1       1.338   3.753  19.766  0.00  0.00    +0.000 A 
ATOM     36  C   UNL     1       1.576   4.829  20.621  0.00  0.00    +0.000 A 
ATOM     37  C   UNL     1       2.082   6.030  20.112  0.00  0.00    +0.000 A 
ENDBRANCH  30  32
ENDBRANCH  29  30
ENDBRANCH  28  29
ENDBRANCH   5  28
TORSDOF 12
ENDMDL
MODEL 6
REMARK VINA RESULT:      -7.1      3.937      9.726
REMARK  Name = 
REMARK  15 active torsions:
REMARK  status: ('A' for Active; 'I' for Inactive)
REMARK    1  A    between atoms: C_1  and  C_2
REMARK    2  A    between atoms: C_2  and  O_3
REMARK    3  A    between atoms: O_3  and  C_4
REMARK    4  A    between atoms: C_4  and  C_6
REMARK    5  A    between atoms: C_7  and  C_8
REMARK    6  A    between atoms: C_10  and  C_11
REMARK    7  A    between atoms: C_11  and  O_12
REMARK    8  A    between atoms: O_12  and  C_13
REMARK    9  A    between atoms: C_13  and  C_15
REMARK   10  A    between atoms: C_21  and  C_22
REMARK   11  A    between atoms: C_22  and  O_24
REMARK   12  A    between atoms: O_24  and  C_25
REMARK   13  A    between atoms: C_25  and  C_26
REMARK   14  A    between atoms: C_27  and  C_28
REMARK   15  A    between atoms: C_32  and  N_33
REMARK                            x       y       z     vdW  Elec       q    Type
REMARK                         _______ _______ _______ _____ _____    ______ ____
ROOT
ATOM      1  C   UNL     1       1.297  13.428  19.526  0.00  0.00    +0.000 C 
ATOM      2  C   UNL     1       2.122  13.149  18.484  0.00  0.00    +0.000 C 
ATOM      3  C   UNL     1       2.868  14.152  17.633  0.00  0.00    +0.000 C 
ATOM      4  N   UNL     1       2.346  11.828  18.117  0.00  0.00    +0.000 N 
ATOM      5  C   UNL     1       1.610  10.745  18.565  0.00  0.00    +0.000 C 
ATOM      6  C   UNL     1       0.742  10.919  19.592  0.00  0.00    +0.000 C 
ATOM      7  C   UNL     1       0.661  12.278  20.323  0.00  0.00    +0.000 C 
ATOM      8  H   UNL     1       3.005  11.667  17.357  0.00  0.00    +0.000 HD
ENDROOT
BRANCH   7   9
ATOM      9  C   UNL     1      -0.765  12.572  20.802  0.00  0.00    +0.000 A 
ATOM     10  C   UNL     1      -1.022  12.692  22.184  0.00  0.00    +0.000 A 
ATOM     11  C   UNL     1      -2.327  12.806  22.662  0.00  0.00    +0.000 A 
ATOM     12  C   UNL     1      -3.399  12.772  21.770  0.00  0.00    +0.000 A 
ATOM     13  C   UNL     1      -3.147  12.667  20.396  0.00  0.00    +0.000 A 
ATOM     14  C   UNL     1      -1.838  12.609  19.902  0.00  0.00    +0.000 A 
BRANCH  13  15
ATOM     15  N   UNL     1      -4.267  12.540  19.459  0.00  0.00    +0.000 N 
ATOM     16  O   UNL     1      -4.107  11.817  18.466  0.00  0.00    +0.000 OA
ATOM     17  O   UNL     1      -5.302  13.177  19.706  0.00  0.00    +0.000 OA
ENDBRANCH  13  15
ENDBRANCH   7   9
BRANCH   1  18
ATOM     18  C   UNL     1       0.994  14.837  19.897  0.00  0.00    +0.000 C 
ATOM     19  O   UNL     1       0.246  15.570  19.268  0.00  0.00    +0.000 OA
BRANCH  18  20
ATOM     20  O   UNL     1       1.638  15.187  21.038  0.00  0.00    +0.000 OA
BRANCH  20  22
ATOM     21  C   UNL     1       0.319  16.041  22.938  0.00  0.00    +0.000 C 
ATOM     22  C   UNL     1       1.151  16.365  21.705  0.00  0.00    +0.000 C 
ENDBRANCH  20  22
ENDBRANCH  18  20
ENDBRANCH   1  18
BRANCH   6  23
ATOM     23  C   UNL     1      -0.174   9.837  20.047  0.00  0.00    +0.000 C 
ATOM     24  O   UNL     1      -1.206   9.522  19.479  0.00  0.00    +0.000 OA
BRANCH  23  25
ATOM     25  O   UNL     1       0.387   9.178  21.092  0.00  0.00    +0.000 OA
BRANCH  25  26
ATOM     26  C   UNL     1      -0.445   8.852  22.216  0.00  0.00    +0.000 C 
ATOM     27  C   UNL     1       0.031   9.521  23.492  0.00  0.00    +0.000 C 
ENDBRANCH  25  26
ENDBRANCH  23  25
ENDBRANCH   6  23
BRANCH   5  28
ATOM     28  C   UNL     1       1.856   9.429  17.836  0.00  0.00    +0.000 C 
BRANCH  28  29
ATOM     29  O   UNL     1       2.214   8.384  18.751  0.00  0.00    +0.000 OA
BRANCH  29  30
ATOM     30  C   UNL     1       2.821   7.315  18.180  0.00  0.00    +0.000 C 
ATOM     31  O   UNL     1       3.663   7.362  17.295  0.00  0.00    +0.000 OA
BRANCH  30  32
ATOM     32  C   UNL     1       2.314   6.036  18.749  0.00  0.00    +0.000 A 
ATOM     33  C   UNL     1       1.959   5.015  17.856  0.00  0.00    +0.000 A 
ATOM     34  C   UNL     1       1.440   3.801  18.329  0.00  0.00    +0.000 A 
ATOM     35  C   UNL     1       1.282   3.608  19.701  0.00  0.00    +0.000 A 
ATOM     36  C   UNL     1       1.632   4.616  20.598  0.00  0.00    +0.000 A 
ATOM     37  C   UNL     1       2.147   5.828  20.124  0.00  0.00    +0.000 A 
ENDBRANCH  30  32
ENDBRANCH  29  30
ENDBRANCH  28  29
ENDBRANCH   5  28
TORSDOF 12
ENDMDL
MODEL 7
REMARK VINA RESULT:      -6.9      3.912      9.625
REMARK  Name = 
REMARK  15 active torsions:
REMARK  status: ('A' for Active; 'I' for Inactive)
REMARK    1  A    between atoms: C_1  and  C_2
REMARK    2  A    between atoms: C_2  and  O_3
REMARK    3  A    between atoms: O_3  and  C_4
REMARK    4  A    between atoms: C_4  and  C_6
REMARK    5  A    between atoms: C_7  and  C_8
REMARK    6  A    between atoms: C_10  and  C_11
REMARK    7  A    between atoms: C_11  and  O_12
REMARK    8  A    between atoms: O_12  and  C_13
REMARK    9  A    between atoms: C_13  and  C_15
REMARK   10  A    between atoms: C_21  and  C_22
REMARK   11  A    between atoms: C_22  and  O_24
REMARK   12  A    between atoms: O_24  and  C_25
REMARK   13  A    between atoms: C_25  and  C_26
REMARK   14  A    between atoms: C_27  and  C_28
REMARK   15  A    between atoms: C_32  and  N_33
REMARK                            x       y       z     vdW  Elec       q    Type
REMARK                         _______ _______ _______ _____ _____    ______ ____
ROOT
ATOM      1  C   UNL     1       1.250  13.396  19.597  0.00  0.00    +0.000 C 
ATOM      2  C   UNL     1       2.102  13.121  18.576  0.00  0.00    +0.000 C 
ATOM      3  C   UNL     1       2.884  14.125  17.760  0.00  0.00    +0.000 C 
ATOM      4  N   UNL     1       2.321  11.802  18.199  0.00  0.00    +0.000 N 
ATOM      5  C   UNL     1       1.559  10.721  18.611  0.00  0.00    +0.000 C 
ATOM      6  C   UNL     1       0.664  10.893  19.614  0.00  0.00    +0.000 C 
ATOM      7  C   UNL     1       0.577  12.244  20.360  0.00  0.00    +0.000 C 
ATOM      8  H   UNL     1       3.000  11.643  17.456  0.00  0.00    +0.000 HD
ENDROOT
BRANCH   7   9
ATOM      9  C   UNL     1      -0.859  12.548  20.801  0.00  0.00    +0.000 A 
ATOM     10  C   UNL     1      -1.146  12.695  22.174  0.00  0.00    +0.000 A 
ATOM     11  C   UNL     1      -2.462  12.820  22.621  0.00  0.00    +0.000 A 
ATOM     12  C   UNL     1      -3.513  12.770  21.706  0.00  0.00    +0.000 A 
ATOM     13  C   UNL     1      -3.231  12.639  20.340  0.00  0.00    +0.000 A 
ATOM     14  C   UNL     1      -1.911  12.569  19.877  0.00  0.00    +0.000 A 
BRANCH  13  15
ATOM     15  N   UNL     1      -4.329  12.495  19.381  0.00  0.00    +0.000 N 
ATOM     16  O   UNL     1      -5.368  13.137  19.594  0.00  0.00    +0.000 OA
ATOM     17  O   UNL     1      -4.162  11.726  18.422  0.00  0.00    +0.000 OA
ENDBRANCH  13  15
ENDBRANCH   7   9
BRANCH   1  18
ATOM     18  C   UNL     1       0.952  14.804  19.978  0.00  0.00    +0.000 C 
ATOM     19  O   UNL     1       1.438  15.374  20.943  0.00  0.00    +0.000 OA
BRANCH  18  20
ATOM     20  O   UNL     1       0.092  15.373  19.098  0.00  0.00    +0.000 OA
BRANCH  20  22
ATOM     21  C   UNL     1       1.002  17.388  18.008  0.00  0.00    +0.000 C 
ATOM     22  C   UNL     1       0.075  16.811  19.068  0.00  0.00    +0.000 C 
ENDBRANCH  20  22
ENDBRANCH  18  20
ENDBRANCH   1  18
BRANCH   6  23
ATOM     23  C   UNL     1      -0.277   9.816  20.029  0.00  0.00    +0.000 C 
ATOM     24  O   UNL     1      -1.389   9.653  19.556  0.00  0.00    +0.000 OA
BRANCH  23  25
ATOM     25  O   UNL     1       0.345   8.978  20.895  0.00  0.00    +0.000 OA
BRANCH  25  26
ATOM     26  C   UNL     1       0.924   9.537  22.084  0.00  0.00    +0.000 C 
ATOM     27  C   UNL     1      -0.014   9.447  23.273  0.00  0.00    +0.000 C 
ENDBRANCH  25  26
ENDBRANCH  23  25
ENDBRANCH   6  23
BRANCH   5  28
ATOM     28  C   UNL     1       1.811   9.413  17.873  0.00  0.00    +0.000 C 
BRANCH  28  29
ATOM     29  O   UNL     1       2.258   8.385  18.768  0.00  0.00    +0.000 OA
BRANCH  29  30
ATOM     30  C   UNL     1       2.841   7.320  18.163  0.00  0.00    +0.000 C 
ATOM     31  O   UNL     1       3.685   7.375  17.282  0.00  0.00    +0.000 OA
BRANCH  30  32
ATOM     32  C   UNL     1       2.302   6.036  18.691  0.00  0.00    +0.000 A 
ATOM     33  C   UNL     1       2.098   5.928  20.074  0.00  0.00    +0.000 A 
ATOM     34  C   UNL     1       1.629   4.732  20.635  0.00  0.00    +0.000 A 
ATOM     35  C   UNL     1       1.355   3.644  19.807  0.00  0.00    +0.000 A 
ATOM     36  C   UNL     1       1.553   3.741  18.431  0.00  0.00    +0.000 A 
ATOM     37  C   UNL     1       2.026   4.933  17.872  0.00  0.00    +0.000 A 
ENDBRANCH  30  32
ENDBRANCH  29  30
ENDBRANCH  28  29
ENDBRANCH   5  28
TORSDOF 12
ENDMDL
MODEL 8
REMARK VINA RESULT:      -6.8      2.392      7.933
REMARK  Name = 
REMARK  15 active torsions:
REMARK  status: ('A' for Active; 'I' for Inactive)
REMARK    1  A    between atoms: C_1  and  C_2
REMARK    2  A    between atoms: C_2  and  O_3
REMARK    3  A    between atoms: O_3  and  C_4
REMARK    4  A    between atoms: C_4  and  C_6
REMARK    5  A    between atoms: C_7  and  C_8
REMARK    6  A    between atoms: C_10  and  C_11
REMARK    7  A    between atoms: C_11  and  O_12
REMARK    8  A    between atoms: O_12  and  C_13
REMARK    9  A    between atoms: C_13  and  C_15
REMARK   10  A    between atoms: C_21  and  C_22
REMARK   11  A    between atoms: C_22  and  O_24
REMARK   12  A    between atoms: O_24  and  C_25
REMARK   13  A    between atoms: C_25  and  C_26
REMARK   14  A    between atoms: C_27  and  C_28
REMARK   15  A    between atoms: C_32  and  N_33
REMARK                            x       y       z     vdW  Elec       q    Type
REMARK                         _______ _______ _______ _____ _____    ______ ____
ROOT
ATOM      1  C   UNL     1       2.934   3.792  17.984  0.00  0.00    +0.000 C 
ATOM      2  C   UNL     1       3.785   2.760  17.753  0.00  0.00    +0.000 C 
ATOM      3  C   UNL     1       3.604   1.327  18.199  0.00  0.00    +0.000 C 
ATOM      4  N   UNL     1       4.954   2.978  17.035  0.00  0.00    +0.000 N 
ATOM      5  C   UNL     1       5.474   4.224  16.725  0.00  0.00    +0.000 C 
ATOM      6  C   UNL     1       4.711   5.324  16.935  0.00  0.00    +0.000 C 
ATOM      7  C   UNL     1       3.247   5.182  17.405  0.00  0.00    +0.000 C 
ATOM      8  H   UNL     1       5.540   2.165  16.851  0.00  0.00    +0.000 HD
ENDROOT
BRANCH   7   9
ATOM      9  C   UNL     1       2.836   6.340  18.320  0.00  0.00    +0.000 A 
ATOM     10  C   UNL     1       2.815   6.147  19.717  0.00  0.00    +0.000 A 
ATOM     11  C   UNL     1       2.302   7.126  20.568  0.00  0.00    +0.000 A 
ATOM     12  C   UNL     1       1.776   8.302  20.035  0.00  0.00    +0.000 A 
ATOM     13  C   UNL     1       1.809   8.504  18.649  0.00  0.00    +0.000 A 
ATOM     14  C   UNL     1       2.372   7.551  17.792  0.00  0.00    +0.000 A 
BRANCH  13  15
ATOM     15  N   UNL     1       1.177   9.695  18.072  0.00  0.00    +0.000 N 
ATOM     16  O   UNL     1       0.024   9.579  17.633  0.00  0.00    +0.000 OA
ATOM     17  O   UNL     1       1.839  10.743  18.042  0.00  0.00    +0.000 OA
ENDBRANCH  13  15
ENDBRANCH   7   9
BRANCH   1  18
ATOM     18  C   UNL     1       1.706   3.595  18.802  0.00  0.00    +0.000 C 
ATOM     19  O   UNL     1       0.687   4.260  18.687  0.00  0.00    +0.000 OA
BRANCH  18  20
ATOM     20  O   UNL     1       1.863   2.567  19.672  0.00  0.00    +0.000 OA
BRANCH  20  22
ATOM     21  C   UNL     1       2.235   3.523  21.913  0.00  0.00    +0.000 C 
ATOM     22  C   UNL     1       1.305   2.756  20.984  0.00  0.00    +0.000 C 
ENDBRANCH  20  22
ENDBRANCH  18  20
ENDBRANCH   1  18
BRANCH   6  23
ATOM     23  C   UNL     1       5.242   6.703  16.746  0.00  0.00    +0.000 C 
ATOM     24  O   UNL     1       4.930   7.442  15.827  0.00  0.00    +0.000 OA
BRANCH  23  25
ATOM     25  O   UNL     1       6.001   7.048  17.816  0.00  0.00    +0.000 OA
BRANCH  25  26
ATOM     26  C   UNL     1       7.417   7.188  17.629  0.00  0.00    +0.000 C 
ATOM     27  C   UNL     1       7.881   8.619  17.827  0.00  0.00    +0.000 C 
ENDBRANCH  25  26
ENDBRANCH  23  25
ENDBRANCH   6  23
BRANCH   5  28
ATOM     28  C   UNL     1       6.891   4.230  16.166  0.00  0.00    +0.000 C 
BRANCH  28  29
ATOM     29  O   UNL     1       6.967   3.512  14.927  0.00  0.00    +0.000 OA
BRANCH  29  30
ATOM     30  C   UNL     1       6.810   4.277  13.818  0.00  0.00    +0.000 C 
ATOM     31  O   UNL     1       7.242   5.410  13.667  0.00  0.00    +0.000 OA
BRANCH  30  32
ATOM     32  C   UNL     1       6.005   3.571  12.783  0.00  0.00    +0.000 A 
ATOM     33  C   UNL     1       6.599   2.492  12.113  0.00  0.00    +0.000 A 
ATOM     34  C   UNL     1       5.906   1.812  11.102  0.00  0.00    +0.000 A 
ATOM     35  C   UNL     1       4.612   2.209  10.766  0.00  0.00    +0.000 A 
ATOM     36  C   UNL     1       4.012   3.280  11.426  0.00  0.00    +0.000 A 
ATOM     37  C   UNL     1       4.706   3.961  12.432  0.00  0.00    +0.000 A 
ENDBRANCH  30  32
ENDBRANCH  29  30
ENDBRANCH  28  29
ENDBRANCH   5  28
TORSDOF 12
ENDMDL
MODEL 9
REMARK VINA RESULT:      -6.8      3.955      9.765
REMARK  Name = 
REMARK  15 active torsions:
REMARK  status: ('A' for Active; 'I' for Inactive)
REMARK    1  A    between atoms: C_1  and  C_2
REMARK    2  A    between atoms: C_2  and  O_3
REMARK    3  A    between atoms: O_3  and  C_4
REMARK    4  A    between atoms: C_4  and  C_6
REMARK    5  A    between atoms: C_7  and  C_8
REMARK    6  A    between atoms: C_10  and  C_11
REMARK    7  A    between atoms: C_11  and  O_12
REMARK    8  A    between atoms: O_12  and  C_13
REMARK    9  A    between atoms: C_13  and  C_15
REMARK   10  A    between atoms: C_21  and  C_22
REMARK   11  A    between atoms: C_22  and  O_24
REMARK   12  A    between atoms: O_24  and  C_25
REMARK   13  A    between atoms: C_25  and  C_26
REMARK   14  A    between atoms: C_27  and  C_28
REMARK   15  A    between atoms: C_32  and  N_33
REMARK                            x       y       z     vdW  Elec       q    Type
REMARK                         _______ _______ _______ _____ _____    ______ ____
ROOT
ATOM      1  C   UNL     1       1.406  13.384  19.906  0.00  0.00    +0.000 C 
ATOM      2  C   UNL     1       2.214  13.151  18.839  0.00  0.00    +0.000 C 
ATOM      3  C   UNL     1       3.049  14.174  18.104  0.00  0.00    +0.000 C 
ATOM      4  N   UNL     1       2.330  11.864  18.331  0.00  0.00    +0.000 N 
ATOM      5  C   UNL     1       1.501  10.804  18.658  0.00  0.00    +0.000 C 
ATOM      6  C   UNL     1       0.642  10.938  19.697  0.00  0.00    +0.000 C 
ATOM      7  C   UNL     1       0.668  12.211  20.572  0.00  0.00    +0.000 C 
ATOM      8  H   UNL     1       2.980  11.732  17.557  0.00  0.00    +0.000 HD
ENDROOT
BRANCH   7   9
ATOM      9  C   UNL     1      -0.733  12.570  21.081  0.00  0.00    +0.000 A 
ATOM     10  C   UNL     1      -0.949  12.730  22.465  0.00  0.00    +0.000 A 
ATOM     11  C   UNL     1      -2.236  12.905  22.974  0.00  0.00    +0.000 A 
ATOM     12  C   UNL     1      -3.331  12.893  22.111  0.00  0.00    +0.000 A 
ATOM     13  C   UNL     1      -3.119  12.749  20.733  0.00  0.00    +0.000 A 
ATOM     14  C   UNL     1      -1.827  12.630  20.208  0.00  0.00    +0.000 A 
BRANCH  13  15
ATOM     15  N   UNL     1      -4.267  12.646  19.828  0.00  0.00    +0.000 N 
ATOM     16  O   UNL     1      -5.243  13.377  20.050  0.00  0.00    +0.000 OA
ATOM     17  O   UNL     1      -4.202  11.820  18.904  0.00  0.00    +0.000 OA
ENDBRANCH  13  15
ENDBRANCH   7   9
BRANCH   1  18
ATOM     18  C   UNL     1       1.218  14.764  20.429  0.00  0.00    +0.000 C 
ATOM     19  O   UNL     1       1.918  15.275  21.291  0.00  0.00    +0.000 OA
BRANCH  18  20
ATOM     20  O   UNL     1       0.187  15.384  19.805  0.00  0.00    +0.000 OA
BRANCH  20  22
ATOM     21  C   UNL     1      -0.172  17.044  18.018  0.00  0.00    +0.000 C 
ATOM     22  C   UNL     1       0.422  16.740  19.387  0.00  0.00    +0.000 C 
ENDBRANCH  20  22
ENDBRANCH  18  20
ENDBRANCH   1  18
BRANCH   6  23
ATOM     23  C   UNL     1      -0.367   9.893  20.031  0.00  0.00    +0.000 C 
ATOM     24  O   UNL     1      -1.407   9.719  19.420  0.00  0.00    +0.000 OA
BRANCH  23  25
ATOM     25  O   UNL     1       0.118   9.094  21.014  0.00  0.00    +0.000 OA
BRANCH  25  26
ATOM     26  C   UNL     1      -0.662   8.937  22.210  0.00  0.00    +0.000 C 
ATOM     27  C   UNL     1       0.018   9.550  23.419  0.00  0.00    +0.000 C 
ENDBRANCH  25  26
ENDBRANCH  23  25
ENDBRANCH   6  23
BRANCH   5  28
ATOM     28  C   UNL     1       1.642   9.560  17.789  0.00  0.00    +0.000 C 
BRANCH  28  29
ATOM     29  O   UNL     1       2.878   8.880  18.048  0.00  0.00    +0.000 OA
BRANCH  29  30
ATOM     30  C   UNL     1       2.746   7.677  18.661  0.00  0.00    +0.000 C 
ATOM     31  O   UNL     1       2.205   7.482  19.739  0.00  0.00    +0.000 OA
BRANCH  30  32
ATOM     32  C   UNL     1       3.376   6.590  17.862  0.00  0.00    +0.000 A 
ATOM     33  C   UNL     1       2.915   5.280  18.056  0.00  0.00    +0.000 A 
ATOM     34  C   UNL     1       3.494   4.209  17.361  0.00  0.00    +0.000 A 
ATOM     35  C   UNL     1       4.533   4.452  16.463  0.00  0.00    +0.000 A 
ATOM     36  C   UNL     1       4.999   5.750  16.262  0.00  0.00    +0.000 A 
ATOM     37  C   UNL     1       4.423   6.818  16.959  0.00  0.00    +0.000 A 
ENDBRANCH  30  32
ENDBRANCH  29  30
ENDBRANCH  28  29
ENDBRANCH   5  28
TORSDOF 12
ENDMDL
