MODEL 1
REMARK VINA RESULT:      -8.3      0.000      0.000
REMARK  Name = 
REMARK  3 active torsions:
REMARK  status: ('A' for Active; 'I' for Inactive)
REMARK    1  A    between atoms: N_3  and  C_4
REMARK    2  A    between atoms: N_16  and  C_17
REMARK    3  A    between atoms: C_22  and  C_23
REMARK                            x       y       z     vdW  Elec       q    Type
REMARK                         _______ _______ _______ _____ _____    ______ ____
ROOT
ATOM      1  O   UNL     1       2.159   9.567  17.448  0.00  0.00    +0.000 OA
ATOM      2  C   UNL     1       1.863   9.157  18.561  0.00  0.00    +0.000 C 
ATOM      3  N   UNL     1       2.139   7.877  19.098  0.00  0.00    +0.000 N 
ATOM      4  C   UNL     1       1.457   7.732  20.359  0.00  0.00    +0.000 C 
ATOM      5  C   UNL     1       1.178   9.175  20.783  0.00  0.00    +0.000 C 
ATOM      6  N   UNL     1       1.145   9.887  19.535  0.00  0.00    +0.000 N 
ENDROOT
BRANCH   3   7
ATOM      7  C   UNL     1       2.788   6.830  18.392  0.00  0.00    +0.000 A 
ATOM      8  C   UNL     1       2.261   5.534  18.424  0.00  0.00    +0.000 A 
ATOM      9  C   UNL     1       2.869   4.474  17.755  0.00  0.00    +0.000 A 
ATOM     10  C   UNL     1       4.036   4.680  17.026  0.00  0.00    +0.000 A 
ATOM     11  C   UNL     1       4.638   3.609  16.353  0.00  0.00    +0.000 A 
ATOM     12  C   UNL     1       5.815   3.800  15.634  0.00  0.00    +0.000 A 
ATOM     13  C   UNL     1       6.398   5.063  15.588  0.00  0.00    +0.000 A 
ATOM     14  C   UNL     1       5.799   6.141  16.250  0.00  0.00    +0.000 A 
ATOM     15  C   UNL     1       4.603   5.974  16.972  0.00  0.00    +0.000 A 
ATOM     16  C   UNL     1       3.959   7.042  17.647  0.00  0.00    +0.000 A 
ENDBRANCH   3   7
BRANCH   6  17
ATOM     17  C   UNL     1       0.424  11.082  19.261  0.00  0.00    +0.000 A 
ATOM     18  C   UNL     1       1.031  12.318  19.570  0.00  0.00    +0.000 A 
ATOM     19  N   UNL     1       0.529  13.546  19.301  0.00  0.00    +0.000 NA
ATOM     20  C   UNL     1      -0.663  13.569  18.692  0.00  0.00    +0.000 A 
ATOM     21  C   UNL     1      -1.357  12.422  18.351  0.00  0.00    +0.000 A 
ATOM     22  C   UNL     1      -0.841  11.134  18.641  0.00  0.00    +0.000 A 
BRANCH  22  23
ATOM     23  C   UNL     1      -1.709   9.949  18.253  0.00  0.00    +0.000 C 
ATOM     24  C   UNL     1      -3.094  10.081  17.665  0.00  0.00    +0.000 C 
ATOM     25  C   UNL     1      -1.958   9.713  16.770  0.00  0.00    +0.000 C 
ENDBRANCH  22  23
ENDBRANCH   6  17
TORSDOF 3
ENDMDL
MODEL 2
REMARK VINA RESULT:      -8.2      2.429      8.433
REMARK  Name = 
REMARK  3 active torsions:
REMARK  status: ('A' for Active; 'I' for Inactive)
REMARK    1  A    between atoms: N_3  and  C_4
REMARK    2  A    between atoms: N_16  and  C_17
REMARK    3  A    between atoms: C_22  and  C_23
REMARK                            x       y       z     vdW  Elec       q    Type
REMARK                         _______ _______ _______ _____ _____    ______ ____
ROOT
ATOM      1  O   UNL     1       1.768   6.414  20.679  0.00  0.00    +0.000 OA
ATOM      2  C   UNL     1       2.032   7.117  19.715  0.00  0.00    +0.000 C 
ATOM      3  N   UNL     1       1.662   8.470  19.521  0.00  0.00    +0.000 N 
ATOM      4  C   UNL     1       2.002   8.869  18.179  0.00  0.00    +0.000 C 
ATOM      5  C   UNL     1       3.053   7.841  17.756  0.00  0.00    +0.000 C 
ATOM      6  N   UNL     1       2.747   6.698  18.571  0.00  0.00    +0.000 N 
ENDROOT
BRANCH   3   7
ATOM      7  C   UNL     1       0.872   9.227  20.426  0.00  0.00    +0.000 A 
ATOM      8  C   UNL     1       0.901   8.933  21.794  0.00  0.00    +0.000 A 
ATOM      9  C   UNL     1       0.136   9.642  22.716  0.00  0.00    +0.000 A 
ATOM     10  C   UNL     1      -0.693  10.677  22.294  0.00  0.00    +0.000 A 
ATOM     11  C   UNL     1      -1.457  11.388  23.230  0.00  0.00    +0.000 A 
ATOM     12  C   UNL     1      -2.301  12.415  22.817  0.00  0.00    +0.000 A 
ATOM     13  C   UNL     1      -2.390  12.733  21.466  0.00  0.00    +0.000 A 
ATOM     14  C   UNL     1      -1.625  12.036  20.524  0.00  0.00    +0.000 A 
ATOM     15  C   UNL     1      -0.755  11.002  20.920  0.00  0.00    +0.000 A 
ATOM     16  C   UNL     1       0.045  10.279  20.000  0.00  0.00    +0.000 A 
ENDBRANCH   3   7
BRANCH   6  17
ATOM     17  C   UNL     1       3.009   5.336  18.252  0.00  0.00    +0.000 A 
ATOM     18  C   UNL     1       1.937   4.530  17.817  0.00  0.00    +0.000 A 
ATOM     19  N   UNL     1       2.019   3.246  17.395  0.00  0.00    +0.000 NA
ATOM     20  C   UNL     1       3.244   2.705  17.409  0.00  0.00    +0.000 A 
ATOM     21  C   UNL     1       4.368   3.396  17.826  0.00  0.00    +0.000 A 
ATOM     22  C   UNL     1       4.285   4.735  18.280  0.00  0.00    +0.000 A 
BRANCH  22  23
ATOM     23  C   UNL     1       5.579   5.379  18.748  0.00  0.00    +0.000 C 
ATOM     24  C   UNL     1       6.945   4.977  18.244  0.00  0.00    +0.000 C 
ATOM     25  C   UNL     1       6.336   6.247  17.752  0.00  0.00    +0.000 C 
ENDBRANCH  22  23
ENDBRANCH   6  17
TORSDOF 3
ENDMDL
MODEL 3
REMARK VINA RESULT:      -8.0      1.207      2.216
REMARK  Name = 
REMARK  3 active torsions:
REMARK  status: ('A' for Active; 'I' for Inactive)
REMARK    1  A    between atoms: N_3  and  C_4
REMARK    2  A    between atoms: N_16  and  C_17
REMARK    3  A    between atoms: C_22  and  C_23
REMARK                            x       y       z     vdW  Elec       q    Type
REMARK                         _______ _______ _______ _____ _____    ______ ____
ROOT
ATOM      1  O   UNL     1       1.967   9.348  17.840  0.00  0.00    +0.000 OA
ATOM      2  C   UNL     1       1.682   9.162  19.014  0.00  0.00    +0.000 C 
ATOM      3  N   UNL     1       1.837   7.962  19.749  0.00  0.00    +0.000 N 
ATOM      4  C   UNL     1       1.206   8.107  21.036  0.00  0.00    +0.000 C 
ATOM      5  C   UNL     1       1.115   9.623  21.221  0.00  0.00    +0.000 C 
ATOM      6  N   UNL     1       1.102  10.122  19.874  0.00  0.00    +0.000 N 
ENDROOT
BRANCH   3   7
ATOM      7  C   UNL     1       2.325   6.744  19.208  0.00  0.00    +0.000 A 
ATOM      8  C   UNL     1       3.272   6.766  18.178  0.00  0.00    +0.000 A 
ATOM      9  C   UNL     1       3.772   5.597  17.610  0.00  0.00    +0.000 A 
ATOM     10  C   UNL     1       3.335   4.355  18.060  0.00  0.00    +0.000 A 
ATOM     11  C   UNL     1       3.846   3.183  17.486  0.00  0.00    +0.000 A 
ATOM     12  C   UNL     1       3.405   1.935  17.917  0.00  0.00    +0.000 A 
ATOM     13  C   UNL     1       2.445   1.853  18.921  0.00  0.00    +0.000 A 
ATOM     14  C   UNL     1       1.934   3.017  19.507  0.00  0.00    +0.000 A 
ATOM     15  C   UNL     1       2.376   4.289  19.096  0.00  0.00    +0.000 A 
ATOM     16  C   UNL     1       1.892   5.491  19.671  0.00  0.00    +0.000 A 
ENDBRANCH   3   7
BRANCH   6  17
ATOM     17  C   UNL     1       0.510  11.335  19.426  0.00  0.00    +0.000 A 
ATOM     18  C   UNL     1       1.225  12.538  19.603  0.00  0.00    +0.000 A 
ATOM     19  N   UNL     1       0.854  13.764  19.166  0.00  0.00    +0.000 NA
ATOM     20  C   UNL     1      -0.312  13.821  18.512  0.00  0.00    +0.000 A 
ATOM     21  C   UNL     1      -1.106  12.710  18.288  0.00  0.00    +0.000 A 
ATOM     22  C   UNL     1      -0.728  11.426  18.754  0.00  0.00    +0.000 A 
BRANCH  22  23
ATOM     23  C   UNL     1      -1.696  10.288  18.482  0.00  0.00    +0.000 C 
ATOM     24  C   UNL     1      -2.986  10.451  17.713  0.00  0.00    +0.000 C 
ATOM     25  C   UNL     1      -1.822   9.798  17.046  0.00  0.00    +0.000 C 
ENDBRANCH  22  23
ENDBRANCH   6  17
TORSDOF 3
ENDMDL
MODEL 4
REMARK VINA RESULT:      -7.9      1.109      2.377
REMARK  Name = 
REMARK  3 active torsions:
REMARK  status: ('A' for Active; 'I' for Inactive)
REMARK    1  A    between atoms: N_3  and  C_4
REMARK    2  A    between atoms: N_16  and  C_17
REMARK    3  A    between atoms: C_22  and  C_23
REMARK                            x       y       z     vdW  Elec       q    Type
REMARK                         _______ _______ _______ _____ _____    ______ ____
ROOT
ATOM      1  O   UNL     1       1.985   9.285  17.255  0.00  0.00    +0.000 OA
ATOM      2  C   UNL     1       1.819   8.898  18.403  0.00  0.00    +0.000 C 
ATOM      3  N   UNL     1       2.292   7.690  18.971  0.00  0.00    +0.000 N 
ATOM      4  C   UNL     1       1.721   7.527  20.284  0.00  0.00    +0.000 C 
ATOM      5  C   UNL     1       1.292   8.944  20.666  0.00  0.00    +0.000 C 
ATOM      6  N   UNL     1       1.084   9.583  19.396  0.00  0.00    +0.000 N 
ENDROOT
BRANCH   3   7
ATOM      7  C   UNL     1       3.017   6.697  18.263  0.00  0.00    +0.000 A 
ATOM      8  C   UNL     1       2.535   5.384  18.208  0.00  0.00    +0.000 A 
ATOM      9  C   UNL     1       3.219   4.375  17.535  0.00  0.00    +0.000 A 
ATOM     10  C   UNL     1       4.419   4.650  16.888  0.00  0.00    +0.000 A 
ATOM     11  C   UNL     1       5.099   3.630  16.209  0.00  0.00    +0.000 A 
ATOM     12  C   UNL     1       6.309   3.890  15.572  0.00  0.00    +0.000 A 
ATOM     13  C   UNL     1       6.849   5.171  15.615  0.00  0.00    +0.000 A 
ATOM     14  C   UNL     1       6.174   6.200  16.283  0.00  0.00    +0.000 A 
ATOM     15  C   UNL     1       4.943   5.963  16.923  0.00  0.00    +0.000 A 
ATOM     16  C   UNL     1       4.224   6.979  17.601  0.00  0.00    +0.000 A 
ENDBRANCH   3   7
BRANCH   6  17
ATOM     17  C   UNL     1       0.201  10.665  19.126  0.00  0.00    +0.000 A 
ATOM     18  C   UNL     1      -1.187  10.411  19.107  0.00  0.00    +0.000 A 
ATOM     19  N   UNL     1      -2.168  11.330  18.952  0.00  0.00    +0.000 NA
ATOM     20  C   UNL     1      -1.762  12.596  18.794  0.00  0.00    +0.000 A 
ATOM     21  C   UNL     1      -0.428  12.963  18.784  0.00  0.00    +0.000 A 
ATOM     22  C   UNL     1       0.603  12.003  18.934  0.00  0.00    +0.000 A 
BRANCH  22  23
ATOM     23  C   UNL     1       2.031  12.519  18.870  0.00  0.00    +0.000 C 
ATOM     24  C   UNL     1       2.388  13.971  18.659  0.00  0.00    +0.000 C 
ATOM     25  C   UNL     1       2.520  13.384  20.024  0.00  0.00    +0.000 C 
ENDBRANCH  22  23
ENDBRANCH   6  17
TORSDOF 3
ENDMDL
MODEL 5
REMARK VINA RESULT:      -7.9      2.514      8.337
REMARK  Name = 
REMARK  3 active torsions:
REMARK  status: ('A' for Active; 'I' for Inactive)
REMARK    1  A    between atoms: N_3  and  C_4
REMARK    2  A    between atoms: N_16  and  C_17
REMARK    3  A    between atoms: C_22  and  C_23
REMARK                            x       y       z     vdW  Elec       q    Type
REMARK                         _______ _______ _______ _____ _____    ______ ____
ROOT
ATOM      1  O   UNL     1       3.440   7.468  17.297  0.00  0.00    +0.000 OA
ATOM      2  C   UNL     1       3.266   6.581  18.119  0.00  0.00    +0.000 C 
ATOM      3  N   UNL     1       2.480   6.650  19.294  0.00  0.00    +0.000 N 
ATOM      4  C   UNL     1       2.693   5.462  20.082  0.00  0.00    +0.000 C 
ATOM      5  C   UNL     1       3.253   4.460  19.071  0.00  0.00    +0.000 C 
ATOM      6  N   UNL     1       3.854   5.297  18.070  0.00  0.00    +0.000 N 
ENDROOT
BRANCH   3   7
ATOM      7  C   UNL     1       1.783   7.808  19.730  0.00  0.00    +0.000 A 
ATOM      8  C   UNL     1       1.648   8.906  18.874  0.00  0.00    +0.000 A 
ATOM      9  C   UNL     1       0.982  10.066  19.261  0.00  0.00    +0.000 A 
ATOM     10  C   UNL     1       0.423  10.164  20.532  0.00  0.00    +0.000 A 
ATOM     11  C   UNL     1      -0.249  11.334  20.912  0.00  0.00    +0.000 A 
ATOM     12  C   UNL     1      -0.797  11.449  22.187  0.00  0.00    +0.000 A 
ATOM     13  C   UNL     1      -0.672  10.398  23.089  0.00  0.00    +0.000 A 
ATOM     14  C   UNL     1      -0.010   9.222  22.716  0.00  0.00    +0.000 A 
ATOM     15  C   UNL     1       0.541   9.078  21.429  0.00  0.00    +0.000 A 
ATOM     16  C   UNL     1       1.209   7.901  21.008  0.00  0.00    +0.000 A 
ENDBRANCH   3   7
BRANCH   6  17
ATOM     17  C   UNL     1       4.944   4.954  17.223  0.00  0.00    +0.000 A 
ATOM     18  C   UNL     1       4.666   4.317  15.995  0.00  0.00    +0.000 A 
ATOM     19  N   UNL     1       5.566   3.998  15.036  0.00  0.00    +0.000 NA
ATOM     20  C   UNL     1       6.839   4.317  15.301  0.00  0.00    +0.000 A 
ATOM     21  C   UNL     1       7.232   4.933  16.476  0.00  0.00    +0.000 A 
ATOM     22  C   UNL     1       6.296   5.258  17.488  0.00  0.00    +0.000 A 
BRANCH  22  23
ATOM     23  C   UNL     1       6.850   5.899  18.749  0.00  0.00    +0.000 C 
ATOM     24  C   UNL     1       8.221   5.601  19.308  0.00  0.00    +0.000 C 
ATOM     25  C   UNL     1       7.994   6.891  18.593  0.00  0.00    +0.000 C 
ENDBRANCH  22  23
ENDBRANCH   6  17
TORSDOF 3
ENDMDL
MODEL 6
REMARK VINA RESULT:      -7.7      1.145      1.644
REMARK  Name = 
REMARK  3 active torsions:
REMARK  status: ('A' for Active; 'I' for Inactive)
REMARK    1  A    between atoms: N_3  and  C_4
REMARK    2  A    between atoms: N_16  and  C_17
REMARK    3  A    between atoms: C_22  and  C_23
REMARK                            x       y       z     vdW  Elec       q    Type
REMARK                         _______ _______ _______ _____ _____    ______ ____
ROOT
ATOM      1  O   UNL     1       1.909   9.356  18.304  0.00  0.00    +0.000 OA
ATOM      2  C   UNL     1       1.553   9.281  19.471  0.00  0.00    +0.000 C 
ATOM      3  N   UNL     1       1.587   8.133  20.299  0.00  0.00    +0.000 N 
ATOM      4  C   UNL     1       0.905   8.419  21.536  0.00  0.00    +0.000 C 
ATOM      5  C   UNL     1       0.911   9.947  21.604  0.00  0.00    +0.000 C 
ATOM      6  N   UNL     1       1.000  10.340  20.225  0.00  0.00    +0.000 N 
ENDROOT
BRANCH   3   7
ATOM      7  C   UNL     1       2.015   6.848  19.877  0.00  0.00    +0.000 A 
ATOM      8  C   UNL     1       1.674   5.716  20.626  0.00  0.00    +0.000 A 
ATOM      9  C   UNL     1       2.080   4.437  20.256  0.00  0.00    +0.000 A 
ATOM     10  C   UNL     1       2.850   4.247  19.112  0.00  0.00    +0.000 A 
ATOM     11  C   UNL     1       3.252   2.956  18.745  0.00  0.00    +0.000 A 
ATOM     12  C   UNL     1       4.036   2.757  17.612  0.00  0.00    +0.000 A 
ATOM     13  C   UNL     1       4.427   3.848  16.843  0.00  0.00    +0.000 A 
ATOM     14  C   UNL     1       4.024   5.141  17.196  0.00  0.00    +0.000 A 
ATOM     15  C   UNL     1       3.221   5.365  18.330  0.00  0.00    +0.000 A 
ATOM     16  C   UNL     1       2.783   6.657  18.716  0.00  0.00    +0.000 A 
ENDBRANCH   3   7
BRANCH   6  17
ATOM     17  C   UNL     1       0.517  11.552  19.658  0.00  0.00    +0.000 A 
ATOM     18  C   UNL     1       1.286  12.724  19.821  0.00  0.00    +0.000 A 
ATOM     19  N   UNL     1       1.023  13.937  19.282  0.00  0.00    +0.000 NA
ATOM     20  C   UNL     1      -0.083  14.014  18.531  0.00  0.00    +0.000 A 
ATOM     21  C   UNL     1      -0.920  12.934  18.309  0.00  0.00    +0.000 A 
ATOM     22  C   UNL     1      -0.655  11.666  18.882  0.00  0.00    +0.000 A 
BRANCH  22  23
ATOM     23  C   UNL     1      -1.664  10.566  18.598  0.00  0.00    +0.000 C 
ATOM     24  C   UNL     1      -2.745  10.670  17.548  0.00  0.00    +0.000 C 
ATOM     25  C   UNL     1      -1.546   9.824  17.274  0.00  0.00    +0.000 C 
ENDBRANCH  22  23
ENDBRANCH   6  17
TORSDOF 3
ENDMDL
MODEL 7
REMARK VINA RESULT:      -7.6      2.533      8.068
REMARK  Name = 
REMARK  3 active torsions:
REMARK  status: ('A' for Active; 'I' for Inactive)
REMARK    1  A    between atoms: N_3  and  C_4
REMARK    2  A    between atoms: N_16  and  C_17
REMARK    3  A    between atoms: C_22  and  C_23
REMARK                            x       y       z     vdW  Elec       q    Type
REMARK                         _______ _______ _______ _____ _____    ______ ____
ROOT
ATOM      1  O   UNL     1       2.153   6.995  20.769  0.00  0.00    +0.000 OA
ATOM      2  C   UNL     1       2.402   7.340  19.624  0.00  0.00    +0.000 C 
ATOM      3  N   UNL     1       1.869   8.456  18.935  0.00  0.00    +0.000 N 
ATOM      4  C   UNL     1       2.270   8.398  17.552  0.00  0.00    +0.000 C 
ATOM      5  C   UNL     1       3.485   7.469  17.570  0.00  0.00    +0.000 C 
ATOM      6  N   UNL     1       3.266   6.659  18.737  0.00  0.00    +0.000 N 
ENDROOT
BRANCH   3   7
ATOM      7  C   UNL     1       0.906   9.349  19.473  0.00  0.00    +0.000 A 
ATOM      8  C   UNL     1       0.187  10.197  18.623  0.00  0.00    +0.000 A 
ATOM      9  C   UNL     1      -0.760  11.097  19.107  0.00  0.00    +0.000 A 
ATOM     10  C   UNL     1      -1.020  11.177  20.472  0.00  0.00    +0.000 A 
ATOM     11  C   UNL     1      -1.977  12.082  20.950  0.00  0.00    +0.000 A 
ATOM     12  C   UNL     1      -2.233  12.182  22.314  0.00  0.00    +0.000 A 
ATOM     13  C   UNL     1      -1.530  11.381  23.208  0.00  0.00    +0.000 A 
ATOM     14  C   UNL     1      -0.578  10.468  22.741  0.00  0.00    +0.000 A 
ATOM     15  C   UNL     1      -0.311  10.341  21.365  0.00  0.00    +0.000 A 
ATOM     16  C   UNL     1       0.637   9.421  20.850  0.00  0.00    +0.000 A 
ENDBRANCH   3   7
BRANCH   6  17
ATOM     17  C   UNL     1       3.740   5.335  18.949  0.00  0.00    +0.000 A 
ATOM     18  C   UNL     1       5.126   5.135  19.112  0.00  0.00    +0.000 A 
ATOM     19  N   UNL     1       5.739   3.964  19.404  0.00  0.00    +0.000 NA
ATOM     20  C   UNL     1       4.934   2.902  19.537  0.00  0.00    +0.000 A 
ATOM     21  C   UNL     1       3.561   2.975  19.387  0.00  0.00    +0.000 A 
ATOM     22  C   UNL     1       2.916   4.196  19.070  0.00  0.00    +0.000 A 
BRANCH  22  23
ATOM     23  C   UNL     1       1.408   4.146  18.894  0.00  0.00    +0.000 C 
ATOM     24  C   UNL     1       0.595   2.876  18.987  0.00  0.00    +0.000 C 
ATOM     25  C   UNL     1       0.564   3.841  20.124  0.00  0.00    +0.000 C 
ENDBRANCH  22  23
ENDBRANCH   6  17
TORSDOF 3
ENDMDL
MODEL 8
REMARK VINA RESULT:      -7.5      3.216      4.515
REMARK  Name = 
REMARK  3 active torsions:
REMARK  status: ('A' for Active; 'I' for Inactive)
REMARK    1  A    between atoms: N_3  and  C_4
REMARK    2  A    between atoms: N_16  and  C_17
REMARK    3  A    between atoms: C_22  and  C_23
REMARK                            x       y       z     vdW  Elec       q    Type
REMARK                         _______ _______ _______ _____ _____    ______ ____
ROOT
ATOM      1  O   UNL     1       1.089  10.746  21.968  0.00  0.00    +0.000 OA
ATOM      2  C   UNL     1       0.332  11.036  21.053  0.00  0.00    +0.000 C 
ATOM      3  N   UNL     1       0.264  10.426  19.777  0.00  0.00    +0.000 N 
ATOM      4  C   UNL     1      -0.624  11.185  18.933  0.00  0.00    +0.000 C 
ATOM      5  C   UNL     1      -1.470  11.980  19.928  0.00  0.00    +0.000 C 
ATOM      6  N   UNL     1      -0.621  12.079  21.083  0.00  0.00    +0.000 N 
ENDROOT
BRANCH   3   7
ATOM      7  C   UNL     1       1.116   9.378  19.339  0.00  0.00    +0.000 A 
ATOM      8  C   UNL     1       1.759   9.472  18.100  0.00  0.00    +0.000 A 
ATOM      9  C   UNL     1       2.596   8.465  17.626  0.00  0.00    +0.000 A 
ATOM     10  C   UNL     1       2.816   7.319  18.384  0.00  0.00    +0.000 A 
ATOM     11  C   UNL     1       3.662   6.312  17.900  0.00  0.00    +0.000 A 
ATOM     12  C   UNL     1       3.877   5.154  18.643  0.00  0.00    +0.000 A 
ATOM     13  C   UNL     1       3.243   4.996  19.871  0.00  0.00    +0.000 A 
ATOM     14  C   UNL     1       2.403   5.999  20.367  0.00  0.00    +0.000 A 
ATOM     15  C   UNL     1       2.181   7.183  19.639  0.00  0.00    +0.000 A 
ATOM     16  C   UNL     1       1.346   8.228  20.111  0.00  0.00    +0.000 A 
ENDBRANCH   3   7
BRANCH   6  17
ATOM     17  C   UNL     1      -0.639  13.112  22.061  0.00  0.00    +0.000 A 
ATOM     18  C   UNL     1       0.350  14.115  21.997  0.00  0.00    +0.000 A 
ATOM     19  N   UNL     1       0.434  15.210  22.788  0.00  0.00    +0.000 NA
ATOM     20  C   UNL     1      -0.518  15.329  23.722  0.00  0.00    +0.000 A 
ATOM     21  C   UNL     1      -1.532  14.402  23.887  0.00  0.00    +0.000 A 
ATOM     22  C   UNL     1      -1.617  13.248  23.069  0.00  0.00    +0.000 A 
BRANCH  22  23
ATOM     23  C   UNL     1      -2.752  12.283  23.366  0.00  0.00    +0.000 C 
ATOM     24  C   UNL     1      -3.945  12.631  24.223  0.00  0.00    +0.000 C 
ATOM     25  C   UNL     1      -4.109  12.575  22.741  0.00  0.00    +0.000 C 
ENDBRANCH  22  23
ENDBRANCH   6  17
TORSDOF 3
ENDMDL
MODEL 9
REMARK VINA RESULT:      -7.5      2.468      8.466
REMARK  Name = 
REMARK  3 active torsions:
REMARK  status: ('A' for Active; 'I' for Inactive)
REMARK    1  A    between atoms: N_3  and  C_4
REMARK    2  A    between atoms: N_16  and  C_17
REMARK    3  A    between atoms: C_22  and  C_23
REMARK                            x       y       z     vdW  Elec       q    Type
REMARK                         _______ _______ _______ _____ _____    ______ ____
ROOT
ATOM      1  O   UNL     1       1.757   6.986  20.730  0.00  0.00    +0.000 OA
ATOM      2  C   UNL     1       2.116   7.398  19.636  0.00  0.00    +0.000 C 
ATOM      3  N   UNL     1       1.729   8.608  19.013  0.00  0.00    +0.000 N 
ATOM      4  C   UNL     1       2.222   8.625  17.659  0.00  0.00    +0.000 C 
ATOM      5  C   UNL     1       3.350   7.593  17.676  0.00  0.00    +0.000 C 
ATOM      6  N   UNL     1       2.982   6.715  18.753  0.00  0.00    +0.000 N 
ENDROOT
BRANCH   3   7
ATOM      7  C   UNL     1       0.808   9.539  19.562  0.00  0.00    +0.000 A 
ATOM      8  C   UNL     1       0.213  10.502  18.739  0.00  0.00    +0.000 A 
ATOM      9  C   UNL     1      -0.688  11.441  19.236  0.00  0.00    +0.000 A 
ATOM     10  C   UNL     1      -1.026  11.445  20.585  0.00  0.00    +0.000 A 
ATOM     11  C   UNL     1      -1.937  12.390  21.076  0.00  0.00    +0.000 A 
ATOM     12  C   UNL     1      -2.270  12.414  22.427  0.00  0.00    +0.000 A 
ATOM     13  C   UNL     1      -1.691  11.495  23.296  0.00  0.00    +0.000 A 
ATOM     14  C   UNL     1      -0.787  10.541  22.815  0.00  0.00    +0.000 A 
ATOM     15  C   UNL     1      -0.444  10.490  21.451  0.00  0.00    +0.000 A 
ATOM     16  C   UNL     1       0.458   9.534  20.922  0.00  0.00    +0.000 A 
ENDBRANCH   3   7
BRANCH   6  17
ATOM     17  C   UNL     1       3.326   5.341  18.881  0.00  0.00    +0.000 A 
ATOM     18  C   UNL     1       2.296   4.381  18.810  0.00  0.00    +0.000 A 
ATOM     19  N   UNL     1       2.450   3.036  18.828  0.00  0.00    +0.000 NA
ATOM     20  C   UNL     1       3.710   2.595  18.932  0.00  0.00    +0.000 A 
ATOM     21  C   UNL     1       4.800   3.443  19.019  0.00  0.00    +0.000 A 
ATOM     22  C   UNL     1       4.642   4.851  19.013  0.00  0.00    +0.000 A 
BRANCH  22  23
ATOM     23  C   UNL     1       5.908   5.680  19.152  0.00  0.00    +0.000 C 
ATOM     24  C   UNL     1       7.276   5.196  18.734  0.00  0.00    +0.000 C 
ATOM     25  C   UNL     1       6.563   6.186  17.874  0.00  0.00    +0.000 C 
ENDBRANCH  22  23
ENDBRANCH   6  17
TORSDOF 3
ENDMDL
