MODEL 1
REMARK VINA RESULT:      -7.3      0.000      0.000
REMARK  Name = 
REMARK  10 active torsions:
REMARK  status: ('A' for Active; 'I' for Inactive)
REMARK    1  A    between atoms: C_1  and  O_2
REMARK    2  A    between atoms: O_2  and  C_3
REMARK    3  A    between atoms: C_5  and  N_6
REMARK    4  A    between atoms: C_7  and  C_9
REMARK    5  A    between atoms: C_9  and  C_10
REMARK    6  A    between atoms: C_9  and  C_11
REMARK    7  A    between atoms: C_15  and  C_16
REMARK    8  A    between atoms: N_18  and  C_19
REMARK    9  A    between atoms: N_22  and  C_23
REMARK   10  A    between atoms: C_23  and  C_24
REMARK                            x       y       z     vdW  Elec       q    Type
REMARK                         _______ _______ _______ _____ _____    ______ ____
ROOT
ATOM      1  C   UNL     1       1.505   8.961  19.576  0.00  0.00    +0.000 A 
ATOM      2  C   UNL     1       2.105   7.983  18.748  0.00  0.00    +0.000 A 
ATOM      3  C   UNL     1       2.315   6.657  19.141  0.00  0.00    +0.000 A 
ATOM      4  C   UNL     1       1.872   6.292  20.412  0.00  0.00    +0.000 A 
ATOM      5 CL   UNL     1       2.019   4.664  20.976  0.00  0.00    +0.000 Cl
ATOM      6  C   UNL     1       1.314   7.250  21.272  0.00  0.00    +0.000 A 
ATOM      7  C   UNL     1       1.146   8.599  20.884  0.00  0.00    +0.000 A 
ENDROOT
BRANCH   3   8
ATOM      8  N   UNL     1       2.948   5.707  18.286  0.00  0.00    +0.000 N 
ATOM      9  C   UNL     1       4.277   5.313  18.365  0.00  0.00    +0.000 C 
ATOM     10  O   UNL     1       5.079   5.722  19.208  0.00  0.00    +0.000 OA
ATOM     11  H   UNL     1       2.332   5.189  17.666  0.00  0.00    +0.000 HD
BRANCH   9  12
ATOM     12  C   UNL     1       4.721   4.259  17.346  0.00  0.00    +0.000 C 
ATOM     13  C   UNL     1       3.617   3.250  17.049  0.00  0.00    +0.000 C 
ATOM     14  C   UNL     1       5.138   4.959  16.045  0.00  0.00    +0.000 C 
ENDBRANCH   9  12
ENDBRANCH   3   8
BRANCH   7  15
ATOM     15  C   UNL     1       0.587   9.508  21.942  0.00  0.00    +0.000 C 
ATOM     16  O   UNL     1       1.080   9.466  23.069  0.00  0.00    +0.000 OA
ATOM     17  N   UNL     1      -0.416  10.414  21.638  0.00  0.00    +0.000 N 
ATOM     18  H   UNL     1      -0.672  10.514  20.658  0.00  0.00    +0.000 HD
BRANCH  17  19
ATOM     19  C   UNL     1      -0.702  11.499  22.580  0.00  0.00    +0.000 C 
ATOM     20  C   UNL     1      -0.481  12.897  22.020  0.00  0.00    +0.000 C 
ATOM     21  C   UNL     1      -1.300  13.742  22.980  0.00  0.00    +0.000 C 
ATOM     22  N   UNL     1      -2.554  12.996  23.181  0.00  0.00    +0.000 NA
ATOM     23  C   UNL     1      -2.153  11.564  23.123  0.00  0.00    +0.000 C 
BRANCH  22  24
ATOM     24  C   UNL     1      -3.533  13.344  22.133  0.00  0.00    +0.000 C 
BRANCH  24  25
ATOM     25  C   UNL     1      -4.964  12.989  22.478  0.00  0.00    +0.000 A 
ATOM     26  C   UNL     1      -5.438  13.095  23.793  0.00  0.00    +0.000 A 
ATOM     27  C   UNL     1      -6.768  12.790  24.094  0.00  0.00    +0.000 A 
ATOM     28  C   UNL     1      -7.635  12.376  23.083  0.00  0.00    +0.000 A 
ATOM     29  C   UNL     1      -7.175  12.267  21.773  0.00  0.00    +0.000 A 
ATOM     30  C   UNL     1      -5.848  12.574  21.471  0.00  0.00    +0.000 A 
ENDBRANCH  24  25
ENDBRANCH  22  24
ENDBRANCH  17  19
ENDBRANCH   7  15
BRANCH   1  32
ATOM     31  C   UNL     1       2.087  10.637  18.003  0.00  0.00    +0.000 C 
ATOM     32  O   UNL     1       1.287  10.240  19.128  0.00  0.00    +0.000 OA
ENDBRANCH   1  32
TORSDOF 7
ENDMDL
MODEL 2
REMARK VINA RESULT:      -7.2      1.062      1.554
REMARK  Name = 
REMARK  10 active torsions:
REMARK  status: ('A' for Active; 'I' for Inactive)
REMARK    1  A    between atoms: C_1  and  O_2
REMARK    2  A    between atoms: O_2  and  C_3
REMARK    3  A    between atoms: C_5  and  N_6
REMARK    4  A    between atoms: C_7  and  C_9
REMARK    5  A    between atoms: C_9  and  C_10
REMARK    6  A    between atoms: C_9  and  C_11
REMARK    7  A    between atoms: C_15  and  C_16
REMARK    8  A    between atoms: N_18  and  C_19
REMARK    9  A    between atoms: N_22  and  C_23
REMARK   10  A    between atoms: C_23  and  C_24
REMARK                            x       y       z     vdW  Elec       q    Type
REMARK                         _______ _______ _______ _____ _____    ______ ____
ROOT
ATOM      1  C   UNL     1       1.492   8.801  19.191  0.00  0.00    +0.000 A 
ATOM      2  C   UNL     1       2.138   7.733  18.524  0.00  0.00    +0.000 A 
ATOM      3  C   UNL     1       2.400   6.494  19.117  0.00  0.00    +0.000 A 
ATOM      4  C   UNL     1       1.963   6.310  20.428  0.00  0.00    +0.000 A 
ATOM      5 CL   UNL     1       2.174   4.797  21.237  0.00  0.00    +0.000 Cl
ATOM      6  C   UNL     1       1.361   7.364  21.130  0.00  0.00    +0.000 A 
ATOM      7  C   UNL     1       1.139   8.630  20.539  0.00  0.00    +0.000 A 
ENDROOT
BRANCH   3   8
ATOM      8  N   UNL     1       3.079   5.450  18.419  0.00  0.00    +0.000 N 
ATOM      9  C   UNL     1       2.466   4.444  17.686  0.00  0.00    +0.000 C 
ATOM     10  O   UNL     1       1.248   4.337  17.524  0.00  0.00    +0.000 OA
ATOM     11  H   UNL     1       4.088   5.545  18.353  0.00  0.00    +0.000 HD
BRANCH   9  12
ATOM     12  C   UNL     1       3.410   3.447  17.006  0.00  0.00    +0.000 C 
ATOM     13  C   UNL     1       4.777   4.058  16.720  0.00  0.00    +0.000 C 
ATOM     14  C   UNL     1       3.579   2.216  17.908  0.00  0.00    +0.000 C 
ENDBRANCH   9  12
ENDBRANCH   3   8
BRANCH   7  15
ATOM     15  C   UNL     1       0.535   9.667  21.444  0.00  0.00    +0.000 C 
ATOM     16  O   UNL     1       0.932   9.730  22.607  0.00  0.00    +0.000 OA
ATOM     17  N   UNL     1      -0.401  10.567  20.961  0.00  0.00    +0.000 N 
ATOM     18  H   UNL     1      -0.572  10.569  19.958  0.00  0.00    +0.000 HD
BRANCH  17  19
ATOM     19  C   UNL     1      -0.716  11.757  21.756  0.00  0.00    +0.000 C 
ATOM     20  C   UNL     1      -0.783  13.051  20.957  0.00  0.00    +0.000 C 
ATOM     21  C   UNL     1      -1.582  13.944  21.891  0.00  0.00    +0.000 C 
ATOM     22  N   UNL     1      -2.673  13.095  22.400  0.00  0.00    +0.000 NA
ATOM     23  C   UNL     1      -2.075  11.736  22.503  0.00  0.00    +0.000 C 
BRANCH  22  24
ATOM     24  C   UNL     1      -3.824  13.129  21.478  0.00  0.00    +0.000 C 
BRANCH  24  25
ATOM     25  C   UNL     1      -5.163  12.898  22.147  0.00  0.00    +0.000 A 
ATOM     26  C   UNL     1      -6.292  12.536  21.399  0.00  0.00    +0.000 A 
ATOM     27  C   UNL     1      -7.515  12.300  22.032  0.00  0.00    +0.000 A 
ATOM     28  C   UNL     1      -7.620  12.423  23.416  0.00  0.00    +0.000 A 
ATOM     29  C   UNL     1      -6.506  12.782  24.170  0.00  0.00    +0.000 A 
ATOM     30  C   UNL     1      -5.283  13.016  23.540  0.00  0.00    +0.000 A 
ENDBRANCH  24  25
ENDBRANCH  22  24
ENDBRANCH  17  19
ENDBRANCH   7  15
BRANCH   1  32
ATOM     31  C   UNL     1       2.360  10.618  17.939  0.00  0.00    +0.000 C 
ATOM     32  O   UNL     1       1.224   9.985  18.551  0.00  0.00    +0.000 OA
ENDBRANCH   1  32
TORSDOF 7
ENDMDL
MODEL 3
REMARK VINA RESULT:      -7.1      3.218      4.992
REMARK  Name = 
REMARK  10 active torsions:
REMARK  status: ('A' for Active; 'I' for Inactive)
REMARK    1  A    between atoms: C_1  and  O_2
REMARK    2  A    between atoms: O_2  and  C_3
REMARK    3  A    between atoms: C_5  and  N_6
REMARK    4  A    between atoms: C_7  and  C_9
REMARK    5  A    between atoms: C_9  and  C_10
REMARK    6  A    between atoms: C_9  and  C_11
REMARK    7  A    between atoms: C_15  and  C_16
REMARK    8  A    between atoms: N_18  and  C_19
REMARK    9  A    between atoms: N_22  and  C_23
REMARK   10  A    between atoms: C_23  and  C_24
REMARK                            x       y       z     vdW  Elec       q    Type
REMARK                         _______ _______ _______ _____ _____    ______ ____
ROOT
ATOM      1  C   UNL     1       2.422   4.275  18.094  0.00  0.00    +0.000 A 
ATOM      2  C   UNL     1       3.335   3.922  17.072  0.00  0.00    +0.000 A 
ATOM      3  C   UNL     1       4.663   4.360  17.035  0.00  0.00    +0.000 A 
ATOM      4  C   UNL     1       5.101   5.159  18.090  0.00  0.00    +0.000 A 
ATOM      5 CL   UNL     1       6.740   5.701  18.182  0.00  0.00    +0.000 Cl
ATOM      6  C   UNL     1       4.207   5.562  19.094  0.00  0.00    +0.000 A 
ATOM      7  C   UNL     1       2.853   5.153  19.101  0.00  0.00    +0.000 A 
ENDROOT
BRANCH   3   8
ATOM      8  N   UNL     1       5.546   4.003  15.972  0.00  0.00    +0.000 N 
ATOM      9  C   UNL     1       5.889   4.820  14.904  0.00  0.00    +0.000 C 
ATOM     10  O   UNL     1       5.488   5.976  14.749  0.00  0.00    +0.000 OA
ATOM     11  H   UNL     1       6.059   3.135  16.095  0.00  0.00    +0.000 HD
BRANCH   9  12
ATOM     12  C   UNL     1       6.875   4.221  13.897  0.00  0.00    +0.000 C 
ATOM     13  C   UNL     1       6.162   3.512  12.751  0.00  0.00    +0.000 C 
ATOM     14  C   UNL     1       7.764   5.340  13.333  0.00  0.00    +0.000 C 
ENDBRANCH   9  12
ENDBRANCH   3   8
BRANCH   7  15
ATOM     15  C   UNL     1       2.015   5.718  20.214  0.00  0.00    +0.000 C 
ATOM     16  O   UNL     1       1.773   5.002  21.184  0.00  0.00    +0.000 OA
ATOM     17  N   UNL     1       1.580   7.033  20.173  0.00  0.00    +0.000 N 
ATOM     18  H   UNL     1       1.944   7.621  19.426  0.00  0.00    +0.000 HD
BRANCH  17  19
ATOM     19  C   UNL     1       1.066   7.648  21.399  0.00  0.00    +0.000 C 
ATOM     20  C   UNL     1       1.884   8.827  21.906  0.00  0.00    +0.000 C 
ATOM     21  C   UNL     1       0.885   9.523  22.814  0.00  0.00    +0.000 C 
ATOM     22  N   UNL     1      -0.388   9.510  22.073  0.00  0.00    +0.000 NA
ATOM     23  C   UNL     1      -0.370   8.227  21.318  0.00  0.00    +0.000 C 
BRANCH  22  24
ATOM     24  C   UNL     1      -0.474  10.681  21.180  0.00  0.00    +0.000 C 
BRANCH  24  25
ATOM     25  C   UNL     1      -0.637  12.002  21.903  0.00  0.00    +0.000 A 
ATOM     26  C   UNL     1       0.164  13.106  21.581  0.00  0.00    +0.000 A 
ATOM     27  C   UNL     1      -0.014  14.327  22.237  0.00  0.00    +0.000 A 
ATOM     28  C   UNL     1      -0.994  14.455  23.220  0.00  0.00    +0.000 A 
ATOM     29  C   UNL     1      -1.796  13.364  23.550  0.00  0.00    +0.000 A 
ATOM     30  C   UNL     1      -1.621  12.146  22.893  0.00  0.00    +0.000 A 
ENDBRANCH  24  25
ENDBRANCH  22  24
ENDBRANCH  17  19
ENDBRANCH   7  15
BRANCH   1  32
ATOM     31  C   UNL     1       0.987   2.481  18.680  0.00  0.00    +0.000 C 
ATOM     32  O   UNL     1       1.139   3.788  18.104  0.00  0.00    +0.000 OA
ENDBRANCH   1  32
TORSDOF 7
ENDMDL
MODEL 4
REMARK VINA RESULT:      -7.1      2.787      4.639
REMARK  Name = 
REMARK  10 active torsions:
REMARK  status: ('A' for Active; 'I' for Inactive)
REMARK    1  A    between atoms: C_1  and  O_2
REMARK    2  A    between atoms: O_2  and  C_3
REMARK    3  A    between atoms: C_5  and  N_6
REMARK    4  A    between atoms: C_7  and  C_9
REMARK    5  A    between atoms: C_9  and  C_10
REMARK    6  A    between atoms: C_9  and  C_11
REMARK    7  A    between atoms: C_15  and  C_16
REMARK    8  A    between atoms: N_18  and  C_19
REMARK    9  A    between atoms: N_22  and  C_23
REMARK   10  A    between atoms: C_23  and  C_24
REMARK                            x       y       z     vdW  Elec       q    Type
REMARK                         _______ _______ _______ _____ _____    ______ ____
ROOT
ATOM      1  C   UNL     1       2.339   4.288  18.073  0.00  0.00    +0.000 A 
ATOM      2  C   UNL     1       3.245   3.933  17.046  0.00  0.00    +0.000 A 
ATOM      3  C   UNL     1       4.583   4.339  17.019  0.00  0.00    +0.000 A 
ATOM      4  C   UNL     1       5.038   5.108  18.089  0.00  0.00    +0.000 A 
ATOM      5 CL   UNL     1       6.689   5.609  18.192  0.00  0.00    +0.000 Cl
ATOM      6  C   UNL     1       4.152   5.514  19.098  0.00  0.00    +0.000 A 
ATOM      7  C   UNL     1       2.789   5.137  19.096  0.00  0.00    +0.000 A 
ENDROOT
BRANCH   3   8
ATOM      8  N   UNL     1       5.459   3.981  15.951  0.00  0.00    +0.000 N 
ATOM      9  C   UNL     1       5.886   4.833  14.941  0.00  0.00    +0.000 C 
ATOM     10  O   UNL     1       5.577   6.024  14.853  0.00  0.00    +0.000 OA
ATOM     11  H   UNL     1       5.901   3.070  16.027  0.00  0.00    +0.000 HD
BRANCH   9  12
ATOM     12  C   UNL     1       6.845   4.222  13.915  0.00  0.00    +0.000 C 
ATOM     13  C   UNL     1       6.103   3.477  12.811  0.00  0.00    +0.000 C 
ATOM     14  C   UNL     1       7.699   5.338  13.295  0.00  0.00    +0.000 C 
ENDBRANCH   9  12
ENDBRANCH   3   8
BRANCH   7  15
ATOM     15  C   UNL     1       1.963   5.702  20.219  0.00  0.00    +0.000 C 
ATOM     16  O   UNL     1       1.709   4.976  21.179  0.00  0.00    +0.000 OA
ATOM     17  N   UNL     1       1.552   7.024  20.197  0.00  0.00    +0.000 N 
ATOM     18  H   UNL     1       1.925   7.616  19.458  0.00  0.00    +0.000 HD
BRANCH  17  19
ATOM     19  C   UNL     1       1.051   7.631  21.433  0.00  0.00    +0.000 C 
ATOM     20  C   UNL     1       1.897   8.780  21.961  0.00  0.00    +0.000 C 
ATOM     21  C   UNL     1       0.913   9.485  22.880  0.00  0.00    +0.000 C 
ATOM     22  N   UNL     1      -0.357   9.517  22.136  0.00  0.00    +0.000 NA
ATOM     23  C   UNL     1      -0.370   8.248  21.359  0.00  0.00    +0.000 C 
BRANCH  22  24
ATOM     24  C   UNL     1      -0.412  10.705  21.263  0.00  0.00    +0.000 C 
BRANCH  24  25
ATOM     25  C   UNL     1      -1.554  11.651  21.573  0.00  0.00    +0.000 A 
ATOM     26  C   UNL     1      -2.229  12.330  20.549  0.00  0.00    +0.000 A 
ATOM     27  C   UNL     1      -3.297  13.179  20.846  0.00  0.00    +0.000 A 
ATOM     28  C   UNL     1      -3.702  13.357  22.168  0.00  0.00    +0.000 A 
ATOM     29  C   UNL     1      -3.039  12.688  23.195  0.00  0.00    +0.000 A 
ATOM     30  C   UNL     1      -1.973  11.837  22.899  0.00  0.00    +0.000 A 
ENDBRANCH  24  25
ENDBRANCH  22  24
ENDBRANCH  17  19
ENDBRANCH   7  15
BRANCH   1  32
ATOM     31  C   UNL     1       0.852   2.544  18.681  0.00  0.00    +0.000 C 
ATOM     32  O   UNL     1       1.044   3.832  18.073  0.00  0.00    +0.000 OA
ENDBRANCH   1  32
TORSDOF 7
ENDMDL
MODEL 5
REMARK VINA RESULT:      -7.1      1.046      1.082
REMARK  Name = 
REMARK  10 active torsions:
REMARK  status: ('A' for Active; 'I' for Inactive)
REMARK    1  A    between atoms: C_1  and  O_2
REMARK    2  A    between atoms: O_2  and  C_3
REMARK    3  A    between atoms: C_5  and  N_6
REMARK    4  A    between atoms: C_7  and  C_9
REMARK    5  A    between atoms: C_9  and  C_10
REMARK    6  A    between atoms: C_9  and  C_11
REMARK    7  A    between atoms: C_15  and  C_16
REMARK    8  A    between atoms: N_18  and  C_19
REMARK    9  A    between atoms: N_22  and  C_23
REMARK   10  A    between atoms: C_23  and  C_24
REMARK                            x       y       z     vdW  Elec       q    Type
REMARK                         _______ _______ _______ _____ _____    ______ ____
ROOT
ATOM      1  C   UNL     1       1.641   9.263  18.669  0.00  0.00    +0.000 A 
ATOM      2  C   UNL     1       2.336   8.236  17.986  0.00  0.00    +0.000 A 
ATOM      3  C   UNL     1       2.641   6.995  18.556  0.00  0.00    +0.000 A 
ATOM      4  C   UNL     1       2.198   6.766  19.858  0.00  0.00    +0.000 A 
ATOM      5 CL   UNL     1       2.461   5.245  20.636  0.00  0.00    +0.000 Cl
ATOM      6  C   UNL     1       1.546   7.780  20.575  0.00  0.00    +0.000 A 
ATOM      7  C   UNL     1       1.281   9.049  20.008  0.00  0.00    +0.000 A 
ENDROOT
BRANCH   3   8
ATOM      8  N   UNL     1       3.368   5.995  17.843  0.00  0.00    +0.000 N 
ATOM      9  C   UNL     1       4.646   6.146  17.325  0.00  0.00    +0.000 C 
ATOM     10  O   UNL     1       5.332   7.166  17.437  0.00  0.00    +0.000 OA
ATOM     11  H   UNL     1       2.957   5.066  17.842  0.00  0.00    +0.000 HD
BRANCH   9  12
ATOM     12  C   UNL     1       5.227   4.919  16.616  0.00  0.00    +0.000 C 
ATOM     13  C   UNL     1       4.292   3.718  16.695  0.00  0.00    +0.000 C 
ATOM     14  C   UNL     1       5.492   5.265  15.143  0.00  0.00    +0.000 C 
ENDBRANCH   9  12
ENDBRANCH   3   8
BRANCH   7  15
ATOM     15  C   UNL     1       0.626  10.041  20.928  0.00  0.00    +0.000 C 
ATOM     16  O   UNL     1       1.056  10.144  22.077  0.00  0.00    +0.000 OA
ATOM     17  N   UNL     1      -0.394  10.860  20.474  0.00  0.00    +0.000 N 
ATOM     18  H   UNL     1      -0.597  10.841  19.477  0.00  0.00    +0.000 HD
BRANCH  17  19
ATOM     19  C   UNL     1      -0.776  12.027  21.273  0.00  0.00    +0.000 C 
ATOM     20  C   UNL     1      -1.029  13.291  20.464  0.00  0.00    +0.000 C 
ATOM     21  C   UNL     1      -1.853  14.115  21.439  0.00  0.00    +0.000 C 
ATOM     22  N   UNL     1      -2.813  13.170  22.033  0.00  0.00    +0.000 NA
ATOM     23  C   UNL     1      -2.072  11.881  22.112  0.00  0.00    +0.000 C 
BRANCH  22  24
ATOM     24  C   UNL     1      -4.021  13.068  21.192  0.00  0.00    +0.000 C 
BRANCH  24  25
ATOM     25  C   UNL     1      -5.297  12.815  21.966  0.00  0.00    +0.000 A 
ATOM     26  C   UNL     1      -5.358  13.033  23.350  0.00  0.00    +0.000 A 
ATOM     27  C   UNL     1      -6.550  12.821  24.049  0.00  0.00    +0.000 A 
ATOM     28  C   UNL     1      -7.690  12.391  23.371  0.00  0.00    +0.000 A 
ATOM     29  C   UNL     1      -7.641  12.171  21.997  0.00  0.00    +0.000 A 
ATOM     30  C   UNL     1      -6.453  12.385  21.298  0.00  0.00    +0.000 A 
ENDBRANCH  24  25
ENDBRANCH  22  24
ENDBRANCH  17  19
ENDBRANCH   7  15
BRANCH   1  32
ATOM     31  C   UNL     1       2.366  11.447  18.097  0.00  0.00    +0.000 C 
ATOM     32  O   UNL     1       1.333  10.449  18.051  0.00  0.00    +0.000 OA
ENDBRANCH   1  32
TORSDOF 7
ENDMDL
MODEL 6
REMARK VINA RESULT:      -7.0      3.498      5.128
REMARK  Name = 
REMARK  10 active torsions:
REMARK  status: ('A' for Active; 'I' for Inactive)
REMARK    1  A    between atoms: C_1  and  O_2
REMARK    2  A    between atoms: O_2  and  C_3
REMARK    3  A    between atoms: C_5  and  N_6
REMARK    4  A    between atoms: C_7  and  C_9
REMARK    5  A    between atoms: C_9  and  C_10
REMARK    6  A    between atoms: C_9  and  C_11
REMARK    7  A    between atoms: C_15  and  C_16
REMARK    8  A    between atoms: N_18  and  C_19
REMARK    9  A    between atoms: N_22  and  C_23
REMARK   10  A    between atoms: C_23  and  C_24
REMARK                            x       y       z     vdW  Elec       q    Type
REMARK                         _______ _______ _______ _____ _____    ______ ____
ROOT
ATOM      1  C   UNL     1       2.379   4.273  18.183  0.00  0.00    +0.000 A 
ATOM      2  C   UNL     1       3.284   3.903  17.159  0.00  0.00    +0.000 A 
ATOM      3  C   UNL     1       4.595   4.384  17.073  0.00  0.00    +0.000 A 
ATOM      4  C   UNL     1       5.024   5.248  18.079  0.00  0.00    +0.000 A 
ATOM      5 CL   UNL     1       6.645   5.850  18.109  0.00  0.00    +0.000 Cl
ATOM      6  C   UNL     1       4.137   5.667  19.082  0.00  0.00    +0.000 A 
ATOM      7  C   UNL     1       2.799   5.212  19.138  0.00  0.00    +0.000 A 
ENDROOT
BRANCH   3   8
ATOM      8  N   UNL     1       5.468   4.008  16.009  0.00  0.00    +0.000 N 
ATOM      9  C   UNL     1       5.818   4.812  14.934  0.00  0.00    +0.000 C 
ATOM     10  O   UNL     1       5.432   5.972  14.772  0.00  0.00    +0.000 OA
ATOM     11  H   UNL     1       5.969   3.133  16.136  0.00  0.00    +0.000 HD
BRANCH   9  12
ATOM     12  C   UNL     1       6.791   4.191  13.927  0.00  0.00    +0.000 C 
ATOM     13  C   UNL     1       6.064   3.494  12.783  0.00  0.00    +0.000 C 
ATOM     14  C   UNL     1       7.700   5.292  13.360  0.00  0.00    +0.000 C 
ENDBRANCH   9  12
ENDBRANCH   3   8
BRANCH   7  15
ATOM     15  C   UNL     1       1.964   5.801  20.241  0.00  0.00    +0.000 C 
ATOM     16  O   UNL     1       1.766   5.124  21.248  0.00  0.00    +0.000 OA
ATOM     17  N   UNL     1       1.484   7.097  20.148  0.00  0.00    +0.000 N 
ATOM     18  H   UNL     1       1.812   7.661  19.367  0.00  0.00    +0.000 HD
BRANCH  17  19
ATOM     19  C   UNL     1       0.973   7.752  21.355  0.00  0.00    +0.000 C 
ATOM     20  C   UNL     1       1.917   8.778  21.965  0.00  0.00    +0.000 C 
ATOM     21  C   UNL     1       0.965   9.595  22.822  0.00  0.00    +0.000 C 
ATOM     22  N   UNL     1      -0.232   9.796  21.988  0.00  0.00    +0.000 NA
ATOM     23  C   UNL     1      -0.349   8.546  21.190  0.00  0.00    +0.000 C 
BRANCH  22  24
ATOM     24  C   UNL     1      -0.071  10.990  21.137  0.00  0.00    +0.000 C 
BRANCH  24  25
ATOM     25  C   UNL     1      -0.913  10.973  19.878  0.00  0.00    +0.000 A 
ATOM     26  C   UNL     1      -2.095  11.721  19.789  0.00  0.00    +0.000 A 
ATOM     27  C   UNL     1      -2.849  11.718  18.613  0.00  0.00    +0.000 A 
ATOM     28  C   UNL     1      -2.429  10.968  17.516  0.00  0.00    +0.000 A 
ATOM     29  C   UNL     1      -1.256  10.220  17.592  0.00  0.00    +0.000 A 
ATOM     30  C   UNL     1      -0.501  10.224  18.765  0.00  0.00    +0.000 A 
ENDBRANCH  24  25
ENDBRANCH  22  24
ENDBRANCH  17  19
ENDBRANCH   7  15
BRANCH   1  32
ATOM     31  C   UNL     1       1.031   2.429  18.821  0.00  0.00    +0.000 C 
ATOM     32  O   UNL     1       1.114   3.743  18.244  0.00  0.00    +0.000 OA
ENDBRANCH   1  32
TORSDOF 7
ENDMDL
MODEL 7
REMARK VINA RESULT:      -7.0      2.883     10.234
REMARK  Name = 
REMARK  10 active torsions:
REMARK  status: ('A' for Active; 'I' for Inactive)
REMARK    1  A    between atoms: C_1  and  O_2
REMARK    2  A    between atoms: O_2  and  C_3
REMARK    3  A    between atoms: C_5  and  N_6
REMARK    4  A    between atoms: C_7  and  C_9
REMARK    5  A    between atoms: C_9  and  C_10
REMARK    6  A    between atoms: C_9  and  C_11
REMARK    7  A    between atoms: C_15  and  C_16
REMARK    8  A    between atoms: N_18  and  C_19
REMARK    9  A    between atoms: N_22  and  C_23
REMARK   10  A    between atoms: C_23  and  C_24
REMARK                            x       y       z     vdW  Elec       q    Type
REMARK                         _______ _______ _______ _____ _____    ______ ____
ROOT
ATOM      1  C   UNL     1       1.386   9.133  19.512  0.00  0.00    +0.000 A 
ATOM      2  C   UNL     1       0.783  10.383  19.794  0.00  0.00    +0.000 A 
ATOM      3  C   UNL     1       0.130  10.674  20.997  0.00  0.00    +0.000 A 
ATOM      4  C   UNL     1       0.112   9.676  21.970  0.00  0.00    +0.000 A 
ATOM      5 CL   UNL     1      -0.608   9.950  23.518  0.00  0.00    +0.000 Cl
ATOM      6  C   UNL     1       0.662   8.414  21.703  0.00  0.00    +0.000 A 
ATOM      7  C   UNL     1       1.281   8.111  20.467  0.00  0.00    +0.000 A 
ENDROOT
BRANCH   3   8
ATOM      8  N   UNL     1      -0.489  11.938  21.233  0.00  0.00    +0.000 N 
ATOM      9  C   UNL     1       0.181  13.124  21.499  0.00  0.00    +0.000 C 
ATOM     10  O   UNL     1       1.408  13.241  21.542  0.00  0.00    +0.000 OA
ATOM     11  H   UNL     1      -1.488  11.982  21.055  0.00  0.00    +0.000 HD
BRANCH   9  12
ATOM     12  C   UNL     1      -0.704  14.358  21.697  0.00  0.00    +0.000 C 
ATOM     13  C   UNL     1      -2.034  14.009  22.356  0.00  0.00    +0.000 C 
ATOM     14  C   UNL     1       0.044  15.381  22.566  0.00  0.00    +0.000 C 
ENDBRANCH   9  12
ENDBRANCH   3   8
BRANCH   7  15
ATOM     15  C   UNL     1       1.767   6.696  20.321  0.00  0.00    +0.000 C 
ATOM     16  O   UNL     1       1.692   5.949  21.296  0.00  0.00    +0.000 OA
ATOM     17  N   UNL     1       2.231   6.231  19.101  0.00  0.00    +0.000 N 
ATOM     18  H   UNL     1       2.120   6.844  18.297  0.00  0.00    +0.000 HD
BRANCH  17  19
ATOM     19  C   UNL     1       2.376   4.787  18.902  0.00  0.00    +0.000 C 
ATOM     20  C   UNL     1       1.897   4.284  17.548  0.00  0.00    +0.000 C 
ATOM     21  C   UNL     1       2.610   2.946  17.451  0.00  0.00    +0.000 C 
ATOM     22  N   UNL     1       3.979   3.200  17.929  0.00  0.00    +0.000 NA
ATOM     23  C   UNL     1       3.822   4.231  18.991  0.00  0.00    +0.000 C 
BRANCH  22  24
ATOM     24  C   UNL     1       4.832   3.667  16.820  0.00  0.00    +0.000 C 
BRANCH  24  25
ATOM     25  C   UNL     1       5.735   4.830  17.178  0.00  0.00    +0.000 A 
ATOM     26  C   UNL     1       6.905   4.634  17.925  0.00  0.00    +0.000 A 
ATOM     27  C   UNL     1       7.742   5.711  18.226  0.00  0.00    +0.000 A 
ATOM     28  C   UNL     1       7.418   6.993  17.784  0.00  0.00    +0.000 A 
ATOM     29  C   UNL     1       6.258   7.200  17.041  0.00  0.00    +0.000 A 
ATOM     30  C   UNL     1       5.422   6.125  16.737  0.00  0.00    +0.000 A 
ENDBRANCH  24  25
ENDBRANCH  22  24
ENDBRANCH  17  19
ENDBRANCH   7  15
BRANCH   1  32
ATOM     31  C   UNL     1       2.406  10.095  17.600  0.00  0.00    +0.000 C 
ATOM     32  O   UNL     1       2.048   8.911  18.331  0.00  0.00    +0.000 OA
ENDBRANCH   1  32
TORSDOF 7
ENDMDL
MODEL 8
REMARK VINA RESULT:      -7.0      0.949      1.268
REMARK  Name = 
REMARK  10 active torsions:
REMARK  status: ('A' for Active; 'I' for Inactive)
REMARK    1  A    between atoms: C_1  and  O_2
REMARK    2  A    between atoms: O_2  and  C_3
REMARK    3  A    between atoms: C_5  and  N_6
REMARK    4  A    between atoms: C_7  and  C_9
REMARK    5  A    between atoms: C_9  and  C_10
REMARK    6  A    between atoms: C_9  and  C_11
REMARK    7  A    between atoms: C_15  and  C_16
REMARK    8  A    between atoms: N_18  and  C_19
REMARK    9  A    between atoms: N_22  and  C_23
REMARK   10  A    between atoms: C_23  and  C_24
REMARK                            x       y       z     vdW  Elec       q    Type
REMARK                         _______ _______ _______ _____ _____    ______ ____
ROOT
ATOM      1  C   UNL     1       1.501   9.129  19.007  0.00  0.00    +0.000 A 
ATOM      2  C   UNL     1       2.154   8.192  18.172  0.00  0.00    +0.000 A 
ATOM      3  C   UNL     1       2.562   6.924  18.600  0.00  0.00    +0.000 A 
ATOM      4  C   UNL     1       2.269   6.571  19.917  0.00  0.00    +0.000 A 
ATOM      5 CL   UNL     1       2.666   5.005  20.532  0.00  0.00    +0.000 Cl
ATOM      6  C   UNL     1       1.662   7.495  20.781  0.00  0.00    +0.000 A 
ATOM      7  C   UNL     1       1.294   8.793  20.354  0.00  0.00    +0.000 A 
ENDROOT
BRANCH   3   8
ATOM      8  N   UNL     1       3.242   6.017  17.734  0.00  0.00    +0.000 N 
ATOM      9  C   UNL     1       4.490   6.231  17.166  0.00  0.00    +0.000 C 
ATOM     10  O   UNL     1       5.185   7.232  17.358  0.00  0.00    +0.000 OA
ATOM     11  H   UNL     1       2.828   5.094  17.646  0.00  0.00    +0.000 HD
BRANCH   9  12
ATOM     12  C   UNL     1       5.024   5.098  16.285  0.00  0.00    +0.000 C 
ATOM     13  C   UNL     1       6.525   4.898  16.457  0.00  0.00    +0.000 C 
ATOM     14  C   UNL     1       4.291   3.795  16.638  0.00  0.00    +0.000 C 
ENDBRANCH   9  12
ENDBRANCH   3   8
BRANCH   7  15
ATOM     15  C   UNL     1       0.708   9.678  21.418  0.00  0.00    +0.000 C 
ATOM     16  O   UNL     1       1.070   9.512  22.582  0.00  0.00    +0.000 OA
ATOM     17  N   UNL     1      -0.173  10.695  21.085  0.00  0.00    +0.000 N 
ATOM     18  H   UNL     1      -0.311  10.885  20.095  0.00  0.00    +0.000 HD
BRANCH  17  19
ATOM     19  C   UNL     1      -0.459  11.736  22.074  0.00  0.00    +0.000 C 
ATOM     20  C   UNL     1      -0.071  13.143  21.641  0.00  0.00    +0.000 C 
ATOM     21  C   UNL     1      -0.909  13.993  22.582  0.00  0.00    +0.000 C 
ATOM     22  N   UNL     1      -2.234  13.349  22.610  0.00  0.00    +0.000 NA
ATOM     23  C   UNL     1      -1.947  11.894  22.483  0.00  0.00    +0.000 C 
BRANCH  22  24
ATOM     24  C   UNL     1      -3.073  13.850  21.505  0.00  0.00    +0.000 C 
BRANCH  24  25
ATOM     25  C   UNL     1      -4.448  13.220  21.435  0.00  0.00    +0.000 A 
ATOM     26  C   UNL     1      -5.338  13.304  22.516  0.00  0.00    +0.000 A 
ATOM     27  C   UNL     1      -6.613  12.741  22.428  0.00  0.00    +0.000 A 
ATOM     28  C   UNL     1      -7.012  12.091  21.261  0.00  0.00    +0.000 A 
ATOM     29  C   UNL     1      -6.137  12.001  20.181  0.00  0.00    +0.000 A 
ATOM     30  C   UNL     1      -4.863  12.565  20.266  0.00  0.00    +0.000 A 
ENDBRANCH  24  25
ENDBRANCH  22  24
ENDBRANCH  17  19
ENDBRANCH   7  15
BRANCH   1  32
ATOM     31  C   UNL     1       2.144  11.255  18.177  0.00  0.00    +0.000 C 
ATOM     32  O   UNL     1       1.088  10.347  18.527  0.00  0.00    +0.000 OA
ENDBRANCH   1  32
TORSDOF 7
ENDMDL
MODEL 9
REMARK VINA RESULT:      -7.0      2.765     10.251
REMARK  Name = 
REMARK  10 active torsions:
REMARK  status: ('A' for Active; 'I' for Inactive)
REMARK    1  A    between atoms: C_1  and  O_2
REMARK    2  A    between atoms: O_2  and  C_3
REMARK    3  A    between atoms: C_5  and  N_6
REMARK    4  A    between atoms: C_7  and  C_9
REMARK    5  A    between atoms: C_9  and  C_10
REMARK    6  A    between atoms: C_9  and  C_11
REMARK    7  A    between atoms: C_15  and  C_16
REMARK    8  A    between atoms: N_18  and  C_19
REMARK    9  A    between atoms: N_22  and  C_23
REMARK   10  A    between atoms: C_23  and  C_24
REMARK                            x       y       z     vdW  Elec       q    Type
REMARK                         _______ _______ _______ _____ _____    ______ ____
ROOT
ATOM      1  C   UNL     1       1.120   9.070  19.433  0.00  0.00    +0.000 A 
ATOM      2  C   UNL     1       0.479  10.296  19.733  0.00  0.00    +0.000 A 
ATOM      3  C   UNL     1      -0.071  10.597  20.984  0.00  0.00    +0.000 A 
ATOM      4  C   UNL     1       0.058   9.636  21.985  0.00  0.00    +0.000 A 
ATOM      5 CL   UNL     1      -0.526   9.928  23.586  0.00  0.00    +0.000 Cl
ATOM      6  C   UNL     1       0.647   8.394  21.705  0.00  0.00    +0.000 A 
ATOM      7  C   UNL     1       1.162   8.078  20.426  0.00  0.00    +0.000 A 
ENDROOT
BRANCH   3   8
ATOM      8  N   UNL     1      -0.733  11.835  21.239  0.00  0.00    +0.000 N 
ATOM      9  C   UNL     1      -0.104  13.042  21.511  0.00  0.00    +0.000 C 
ATOM     10  O   UNL     1       1.119  13.203  21.544  0.00  0.00    +0.000 OA
ATOM     11  H   UNL     1      -1.734  11.845  21.071  0.00  0.00    +0.000 HD
BRANCH   9  12
ATOM     12  C   UNL     1      -1.030  14.241  21.731  0.00  0.00    +0.000 C 
ATOM     13  C   UNL     1      -1.438  14.897  20.417  0.00  0.00    +0.000 C 
ATOM     14  C   UNL     1      -2.286  13.778  22.483  0.00  0.00    +0.000 C 
ENDBRANCH   9  12
ENDBRANCH   3   8
BRANCH   7  15
ATOM     15  C   UNL     1       1.709   6.686  20.277  0.00  0.00    +0.000 C 
ATOM     16  O   UNL     1       1.703   5.948  21.262  0.00  0.00    +0.000 OA
ATOM     17  N   UNL     1       2.151   6.228  19.047  0.00  0.00    +0.000 N 
ATOM     18  H   UNL     1       1.984   6.826  18.240  0.00  0.00    +0.000 HD
BRANCH  17  19
ATOM     19  C   UNL     1       2.357   4.790  18.858  0.00  0.00    +0.000 C 
ATOM     20  C   UNL     1       1.884   4.255  17.514  0.00  0.00    +0.000 C 
ATOM     21  C   UNL     1       2.653   2.948  17.419  0.00  0.00    +0.000 C 
ATOM     22  N   UNL     1       4.016   3.266  17.878  0.00  0.00    +0.000 NA
ATOM     23  C   UNL     1       3.826   4.298  18.933  0.00  0.00    +0.000 C 
BRANCH  22  24
ATOM     24  C   UNL     1       4.835   3.760  16.755  0.00  0.00    +0.000 C 
BRANCH  24  25
ATOM     25  C   UNL     1       5.758   4.906  17.117  0.00  0.00    +0.000 A 
ATOM     26  C   UNL     1       5.448   6.225  16.756  0.00  0.00    +0.000 A 
ATOM     27  C   UNL     1       6.295   7.275  17.118  0.00  0.00    +0.000 A 
ATOM     28  C   UNL     1       7.457   7.017  17.843  0.00  0.00    +0.000 A 
ATOM     29  C   UNL     1       7.776   5.711  18.207  0.00  0.00    +0.000 A 
ATOM     30  C   UNL     1       6.929   4.661  17.849  0.00  0.00    +0.000 A 
ENDBRANCH  24  25
ENDBRANCH  22  24
ENDBRANCH  17  19
ENDBRANCH   7  15
BRANCH   1  32
ATOM     31  C   UNL     1       2.488   9.908  17.688  0.00  0.00    +0.000 C 
ATOM     32  O   UNL     1       1.678   8.838  18.201  0.00  0.00    +0.000 OA
ENDBRANCH   1  32
TORSDOF 7
ENDMDL
