MODEL 1
REMARK VINA RESULT:      -7.3      0.000      0.000
REMARK  Name = 
REMARK  6 active torsions:
REMARK  status: ('A' for Active; 'I' for Inactive)
REMARK    1  A    between atoms: C_1  and  C_2
REMARK    2  A    between atoms: C_2  and  C_3
REMARK    3  A    between atoms: C_2  and  C_4
REMARK    4  A    between atoms: N_6  and  C_7
REMARK    5  A    between atoms: C_10  and  N_11
REMARK    6  A    between atoms: N_14  and  C_15
REMARK                            x       y       z     vdW  Elec       q    Type
REMARK                         _______ _______ _______ _____ _____    ______ ____
ROOT
ATOM      1  C   UNL     1       2.557   6.659  18.767  0.00  0.00    +0.000 A 
ATOM      2  C   UNL     1       2.267   7.850  18.113  0.00  0.00    +0.000 A 
ATOM      3  C   UNL     1       1.582   8.875  18.765  0.00  0.00    +0.000 A 
ATOM      4  C   UNL     1       1.134   8.756  20.085  0.00  0.00    +0.000 A 
ATOM      5  C   UNL     1       1.472   7.573  20.753  0.00  0.00    +0.000 A 
ATOM      6  C   UNL     1       2.159   6.528  20.100  0.00  0.00    +0.000 A 
ENDROOT
BRANCH   4   7
ATOM      7  N   UNL     1       0.342   9.733  20.645  0.00  0.00    +0.000 N 
ATOM      8  C   UNL     1      -0.619   9.388  21.710  0.00  0.00    +0.000 C 
ATOM      9  C   UNL     1      -0.385  10.308  22.919  0.00  0.00    +0.000 C 
ATOM     10  N   UNL     1      -0.521  11.714  22.515  0.00  0.00    +0.000 N 
ATOM     11  C   UNL     1       0.384  12.124  21.419  0.00  0.00    +0.000 C 
ATOM     12  C   UNL     1       0.305  11.141  20.213  0.00  0.00    +0.000 C 
BRANCH  10  13
ATOM     13  C   UNL     1      -1.492  12.532  23.050  0.00  0.00    +0.000 A 
ATOM     14  C   UNL     1      -2.793  12.062  23.290  0.00  0.00    +0.000 A 
ATOM     15  C   UNL     1      -3.795  12.907  23.785  0.00  0.00    +0.000 A 
ATOM     16  C   UNL     1      -3.502  14.234  24.060  0.00  0.00    +0.000 A 
ATOM     17  F   UNL     1      -4.460  15.046  24.522  0.00  0.00    +0.000 F 
ATOM     18  C   UNL     1      -2.225  14.730  23.856  0.00  0.00    +0.000 A 
ATOM     19  C   UNL     1      -1.234  13.881  23.358  0.00  0.00    +0.000 A 
ENDBRANCH  10  13
ENDBRANCH   4   7
BRANCH   1  22
ATOM     20  C   UNL     1       2.549   4.458  17.603  0.00  0.00    +0.000 C 
ATOM     21  O   UNL     1       1.332   4.333  17.480  0.00  0.00    +0.000 OA
ATOM     22  N   UNL     1       3.192   5.573  18.121  0.00  0.00    +0.000 N 
ATOM     23  H   UNL     1       4.191   5.650  17.981  0.00  0.00    +0.000 HD
BRANCH  20  25
ATOM     24  C   UNL     1       4.813   3.929  16.631  0.00  0.00    +0.000 C 
ATOM     25  C   UNL     1       3.498   3.349  17.147  0.00  0.00    +0.000 C 
ATOM     26  C   UNL     1       3.779   2.394  18.312  0.00  0.00    +0.000 C 
ENDBRANCH  20  25
ENDBRANCH   1  22
TORSDOF 4
ENDMDL
MODEL 2
REMARK VINA RESULT:      -7.2      1.546      2.183
REMARK  Name = 
REMARK  6 active torsions:
REMARK  status: ('A' for Active; 'I' for Inactive)
REMARK    1  A    between atoms: C_1  and  C_2
REMARK    2  A    between atoms: C_2  and  C_3
REMARK    3  A    between atoms: C_2  and  C_4
REMARK    4  A    between atoms: N_6  and  C_7
REMARK    5  A    between atoms: C_10  and  N_11
REMARK    6  A    between atoms: N_14  and  C_15
REMARK                            x       y       z     vdW  Elec       q    Type
REMARK                         _______ _______ _______ _____ _____    ______ ____
ROOT
ATOM      1  C   UNL     1       3.070   6.489  18.442  0.00  0.00    +0.000 A 
ATOM      2  C   UNL     1       2.643   6.227  19.737  0.00  0.00    +0.000 A 
ATOM      3  C   UNL     1       1.926   7.180  20.461  0.00  0.00    +0.000 A 
ATOM      4  C   UNL     1       1.622   8.443  19.941  0.00  0.00    +0.000 A 
ATOM      5  C   UNL     1       2.012   8.682  18.618  0.00  0.00    +0.000 A 
ATOM      6  C   UNL     1       2.743   7.727  17.881  0.00  0.00    +0.000 A 
ENDROOT
BRANCH   4   7
ATOM      7  N   UNL     1       1.037   9.403  20.736  0.00  0.00    +0.000 N 
ATOM      8  C   UNL     1       0.567  10.669  20.144  0.00  0.00    +0.000 C 
ATOM      9  C   UNL     1      -0.901  10.896  20.537  0.00  0.00    +0.000 C 
ATOM     10  N   UNL     1      -1.034  10.913  22.000  0.00  0.00    +0.000 N 
ATOM     11  C   UNL     1      -0.543   9.688  22.670  0.00  0.00    +0.000 C 
ATOM     12  C   UNL     1       0.895   9.316  22.200  0.00  0.00    +0.000 C 
BRANCH  10  13
ATOM     13  C   UNL     1      -1.478  12.027  22.676  0.00  0.00    +0.000 A 
ATOM     14  C   UNL     1      -2.739  12.054  23.293  0.00  0.00    +0.000 A 
ATOM     15  C   UNL     1      -3.214  13.205  23.936  0.00  0.00    +0.000 A 
ATOM     16  C   UNL     1      -2.423  14.343  23.982  0.00  0.00    +0.000 A 
ATOM     17  F   UNL     1      -2.878  15.447  24.586  0.00  0.00    +0.000 F 
ATOM     18  C   UNL     1      -1.164  14.349  23.403  0.00  0.00    +0.000 A 
ATOM     19  C   UNL     1      -0.702  13.198  22.761  0.00  0.00    +0.000 A 
ENDBRANCH  10  13
ENDBRANCH   4   7
BRANCH   1  22
ATOM     20  C   UNL     1       5.118   5.128  18.054  0.00  0.00    +0.000 C 
ATOM     21  O   UNL     1       5.666   5.329  19.135  0.00  0.00    +0.000 OA
ATOM     22  N   UNL     1       3.852   5.574  17.700  0.00  0.00    +0.000 N 
ATOM     23  H   UNL     1       3.424   5.176  16.875  0.00  0.00    +0.000 HD
BRANCH  20  25
ATOM     24  C   UNL     1       5.259   4.642  15.585  0.00  0.00    +0.000 C 
ATOM     25  C   UNL     1       5.812   4.306  16.967  0.00  0.00    +0.000 C 
ATOM     26  C   UNL     1       7.321   4.575  16.997  0.00  0.00    +0.000 C 
ENDBRANCH  20  25
ENDBRANCH   1  22
TORSDOF 4
ENDMDL
MODEL 3
REMARK VINA RESULT:      -7.2      1.281      1.453
REMARK  Name = 
REMARK  6 active torsions:
REMARK  status: ('A' for Active; 'I' for Inactive)
REMARK    1  A    between atoms: C_1  and  C_2
REMARK    2  A    between atoms: C_2  and  C_3
REMARK    3  A    between atoms: C_2  and  C_4
REMARK    4  A    between atoms: N_6  and  C_7
REMARK    5  A    between atoms: C_10  and  N_11
REMARK    6  A    between atoms: N_14  and  C_15
REMARK                            x       y       z     vdW  Elec       q    Type
REMARK                         _______ _______ _______ _____ _____    ______ ____
ROOT
ATOM      1  C   UNL     1       2.890   6.954  18.326  0.00  0.00    +0.000 A 
ATOM      2  C   UNL     1       2.547   8.156  17.720  0.00  0.00    +0.000 A 
ATOM      3  C   UNL     1       1.810   9.120  18.409  0.00  0.00    +0.000 A 
ATOM      4  C   UNL     1       1.362   8.925  19.720  0.00  0.00    +0.000 A 
ATOM      5  C   UNL     1       1.754   7.733  20.341  0.00  0.00    +0.000 A 
ATOM      6  C   UNL     1       2.493   6.750  19.650  0.00  0.00    +0.000 A 
ENDROOT
BRANCH   4   7
ATOM      7  N   UNL     1       0.522   9.839  20.314  0.00  0.00    +0.000 N 
ATOM      8  C   UNL     1      -0.427   9.405  21.357  0.00  0.00    +0.000 C 
ATOM      9  C   UNL     1      -0.243  10.284  22.604  0.00  0.00    +0.000 C 
ATOM     10  N   UNL     1      -0.444  11.698  22.258  0.00  0.00    +0.000 N 
ATOM     11  C   UNL     1       0.447  12.195  21.187  0.00  0.00    +0.000 C 
ATOM     12  C   UNL     1       0.421  11.261  19.941  0.00  0.00    +0.000 C 
BRANCH  10  13
ATOM     13  C   UNL     1      -1.455  12.445  22.819  0.00  0.00    +0.000 A 
ATOM     14  C   UNL     1      -2.591  11.838  23.378  0.00  0.00    +0.000 A 
ATOM     15  C   UNL     1      -3.644  12.599  23.902  0.00  0.00    +0.000 A 
ATOM     16  C   UNL     1      -3.567  13.984  23.887  0.00  0.00    +0.000 A 
ATOM     17  F   UNL     1      -4.576  14.713  24.376  0.00  0.00    +0.000 F 
ATOM     18  C   UNL     1      -2.453  14.620  23.362  0.00  0.00    +0.000 A 
ATOM     19  C   UNL     1      -1.411  13.852  22.839  0.00  0.00    +0.000 A 
ENDBRANCH  10  13
ENDBRANCH   4   7
BRANCH   1  22
ATOM     20  C   UNL     1       4.842   6.047  17.075  0.00  0.00    +0.000 C 
ATOM     21  O   UNL     1       5.606   6.996  17.235  0.00  0.00    +0.000 OA
ATOM     22  N   UNL     1       3.580   5.928  17.640  0.00  0.00    +0.000 N 
ATOM     23  H   UNL     1       3.132   5.022  17.611  0.00  0.00    +0.000 HD
BRANCH  20  25
ATOM     24  C   UNL     1       6.733   4.518  16.410  0.00  0.00    +0.000 C 
ATOM     25  C   UNL     1       5.254   4.848  16.220  0.00  0.00    +0.000 C 
ATOM     26  C   UNL     1       4.403   3.628  16.591  0.00  0.00    +0.000 C 
ENDBRANCH  20  25
ENDBRANCH   1  22
TORSDOF 4
ENDMDL
MODEL 4
REMARK VINA RESULT:      -7.2      1.506      2.168
REMARK  Name = 
REMARK  6 active torsions:
REMARK  status: ('A' for Active; 'I' for Inactive)
REMARK    1  A    between atoms: C_1  and  C_2
REMARK    2  A    between atoms: C_2  and  C_3
REMARK    3  A    between atoms: C_2  and  C_4
REMARK    4  A    between atoms: N_6  and  C_7
REMARK    5  A    between atoms: C_10  and  N_11
REMARK    6  A    between atoms: N_14  and  C_15
REMARK                            x       y       z     vdW  Elec       q    Type
REMARK                         _______ _______ _______ _____ _____    ______ ____
ROOT
ATOM      1  C   UNL     1       2.843   6.960  18.331  0.00  0.00    +0.000 A 
ATOM      2  C   UNL     1       2.552   6.676  19.659  0.00  0.00    +0.000 A 
ATOM      3  C   UNL     1       1.842   7.583  20.446  0.00  0.00    +0.000 A 
ATOM      4  C   UNL     1       1.409   8.820  19.956  0.00  0.00    +0.000 A 
ATOM      5  C   UNL     1       1.662   9.079  18.605  0.00  0.00    +0.000 A 
ATOM      6  C   UNL     1       2.386   8.171  17.803  0.00  0.00    +0.000 A 
ENDROOT
BRANCH   4   7
ATOM      7  N   UNL     1       0.835   9.743  20.802  0.00  0.00    +0.000 N 
ATOM      8  C   UNL     1       0.363  11.037  20.276  0.00  0.00    +0.000 C 
ATOM      9  C   UNL     1      -1.101  11.249  20.693  0.00  0.00    +0.000 C 
ATOM     10  N   UNL     1      -1.219  11.196  22.157  0.00  0.00    +0.000 N 
ATOM     11  C   UNL     1      -0.726   9.940  22.762  0.00  0.00    +0.000 C 
ATOM     12  C   UNL     1       0.706   9.586  22.262  0.00  0.00    +0.000 C 
BRANCH  10  13
ATOM     13  C   UNL     1      -1.653  12.278  22.889  0.00  0.00    +0.000 A 
ATOM     14  C   UNL     1      -2.927  12.298  23.480  0.00  0.00    +0.000 A 
ATOM     15  C   UNL     1      -3.390  13.420  24.182  0.00  0.00    +0.000 A 
ATOM     16  C   UNL     1      -2.574  14.534  24.313  0.00  0.00    +0.000 A 
ATOM     17  F   UNL     1      -3.018  15.610  24.973  0.00  0.00    +0.000 F 
ATOM     18  C   UNL     1      -1.304  14.545  23.762  0.00  0.00    +0.000 A 
ATOM     19  C   UNL     1      -0.853  13.424  23.061  0.00  0.00    +0.000 A 
ENDBRANCH  10  13
ENDBRANCH   4   7
BRANCH   1  22
ATOM     20  C   UNL     1       4.896   6.361  17.056  0.00  0.00    +0.000 C 
ATOM     21  O   UNL     1       5.604   7.298  17.418  0.00  0.00    +0.000 OA
ATOM     22  N   UNL     1       3.616   6.096  17.521  0.00  0.00    +0.000 N 
ATOM     23  H   UNL     1       3.215   5.190  17.314  0.00  0.00    +0.000 HD
BRANCH  20  25
ATOM     24  C   UNL     1       6.931   5.236  16.082  0.00  0.00    +0.000 C 
ATOM     25  C   UNL     1       5.409   5.344  16.035  0.00  0.00    +0.000 C 
ATOM     26  C   UNL     1       4.786   3.972  16.311  0.00  0.00    +0.000 C 
ENDBRANCH  20  25
ENDBRANCH   1  22
TORSDOF 4
ENDMDL
MODEL 5
REMARK VINA RESULT:      -7.0      1.347      1.587
REMARK  Name = 
REMARK  6 active torsions:
REMARK  status: ('A' for Active; 'I' for Inactive)
REMARK    1  A    between atoms: C_1  and  C_2
REMARK    2  A    between atoms: C_2  and  C_3
REMARK    3  A    between atoms: C_2  and  C_4
REMARK    4  A    between atoms: N_6  and  C_7
REMARK    5  A    between atoms: C_10  and  N_11
REMARK    6  A    between atoms: N_14  and  C_15
REMARK                            x       y       z     vdW  Elec       q    Type
REMARK                         _______ _______ _______ _____ _____    ______ ____
ROOT
ATOM      1  C   UNL     1       3.046   7.274  18.398  0.00  0.00    +0.000 A 
ATOM      2  C   UNL     1       2.513   8.374  17.738  0.00  0.00    +0.000 A 
ATOM      3  C   UNL     1       1.556   9.182  18.352  0.00  0.00    +0.000 A 
ATOM      4  C   UNL     1       1.070   8.922  19.638  0.00  0.00    +0.000 A 
ATOM      5  C   UNL     1       1.647   7.843  20.316  0.00  0.00    +0.000 A 
ATOM      6  C   UNL     1       2.610   7.015  19.700  0.00  0.00    +0.000 A 
ENDROOT
BRANCH   4   7
ATOM      7  N   UNL     1       0.027   9.660  20.152  0.00  0.00    +0.000 N 
ATOM      8  C   UNL     1      -0.270   9.617  21.596  0.00  0.00    +0.000 C 
ATOM      9  C   UNL     1      -0.316  11.051  22.146  0.00  0.00    +0.000 C 
ATOM     10  N   UNL     1      -1.324  11.836  21.420  0.00  0.00    +0.000 N 
ATOM     11  C   UNL     1      -1.115  11.891  19.957  0.00  0.00    +0.000 C 
ATOM     12  C   UNL     1      -0.910  10.470  19.353  0.00  0.00    +0.000 C 
BRANCH  10  13
ATOM     13  C   UNL     1      -2.421  12.374  22.055  0.00  0.00    +0.000 A 
ATOM     14  C   UNL     1      -3.236  13.329  21.426  0.00  0.00    +0.000 A 
ATOM     15  C   UNL     1      -4.321  13.915  22.091  0.00  0.00    +0.000 A 
ATOM     16  C   UNL     1      -4.615  13.540  23.393  0.00  0.00    +0.000 A 
ATOM     17  F   UNL     1      -5.644  14.106  24.033  0.00  0.00    +0.000 F 
ATOM     18  C   UNL     1      -3.847  12.586  24.041  0.00  0.00    +0.000 A 
ATOM     19  C   UNL     1      -2.764  12.011  23.371  0.00  0.00    +0.000 A 
ENDBRANCH  10  13
ENDBRANCH   4   7
BRANCH   1  22
ATOM     20  C   UNL     1       3.724   5.066  17.469  0.00  0.00    +0.000 C 
ATOM     21  O   UNL     1       2.627   4.515  17.517  0.00  0.00    +0.000 OA
ATOM     22  N   UNL     1       3.969   6.395  17.786  0.00  0.00    +0.000 N 
ATOM     23  H   UNL     1       4.858   6.791  17.511  0.00  0.00    +0.000 HD
BRANCH  20  25
ATOM     24  C   UNL     1       5.319   4.648  15.562  0.00  0.00    +0.000 C 
ATOM     25  C   UNL     1       4.964   4.300  17.006  0.00  0.00    +0.000 C 
ATOM     26  C   UNL     1       6.149   4.628  17.921  0.00  0.00    +0.000 C 
ENDBRANCH  20  25
ENDBRANCH   1  22
TORSDOF 4
ENDMDL
MODEL 6
REMARK VINA RESULT:      -7.0      1.539      2.012
REMARK  Name = 
REMARK  6 active torsions:
REMARK  status: ('A' for Active; 'I' for Inactive)
REMARK    1  A    between atoms: C_1  and  C_2
REMARK    2  A    between atoms: C_2  and  C_3
REMARK    3  A    between atoms: C_2  and  C_4
REMARK    4  A    between atoms: N_6  and  C_7
REMARK    5  A    between atoms: C_10  and  N_11
REMARK    6  A    between atoms: N_14  and  C_15
REMARK                            x       y       z     vdW  Elec       q    Type
REMARK                         _______ _______ _______ _____ _____    ______ ____
ROOT
ATOM      1  C   UNL     1       3.137   6.861  18.226  0.00  0.00    +0.000 A 
ATOM      2  C   UNL     1       2.708   6.703  19.537  0.00  0.00    +0.000 A 
ATOM      3  C   UNL     1       1.826   7.616  20.116  0.00  0.00    +0.000 A 
ATOM      4  C   UNL     1       1.350   8.737  19.428  0.00  0.00    +0.000 A 
ATOM      5  C   UNL     1       1.747   8.863  18.092  0.00  0.00    +0.000 A 
ATOM      6  C   UNL     1       2.644   7.949  17.500  0.00  0.00    +0.000 A 
ENDROOT
BRANCH   4   7
ATOM      7  N   UNL     1       0.593   9.686  20.078  0.00  0.00    +0.000 N 
ATOM      8  C   UNL     1      -0.297   9.292  21.186  0.00  0.00    +0.000 C 
ATOM      9  C   UNL     1       0.012  10.159  22.416  0.00  0.00    +0.000 C 
ATOM     10  N   UNL     1      -0.152  11.581  22.083  0.00  0.00    +0.000 N 
ATOM     11  C   UNL     1       0.682  12.041  20.951  0.00  0.00    +0.000 C 
ATOM     12  C   UNL     1       0.528  11.112  19.711  0.00  0.00    +0.000 C 
BRANCH  10  13
ATOM     13  C   UNL     1      -1.087  12.371  22.713  0.00  0.00    +0.000 A 
ATOM     14  C   UNL     1      -2.313  11.845  23.151  0.00  0.00    +0.000 A 
ATOM     15  C   UNL     1      -3.287  12.659  23.745  0.00  0.00    +0.000 A 
ATOM     16  C   UNL     1      -3.039  14.012  23.922  0.00  0.00    +0.000 A 
ATOM     17  F   UNL     1      -3.972  14.792  24.479  0.00  0.00    +0.000 F 
ATOM     18  C   UNL     1      -1.834  14.564  23.521  0.00  0.00    +0.000 A 
ATOM     19  C   UNL     1      -0.871  13.745  22.926  0.00  0.00    +0.000 A 
ENDBRANCH  10  13
ENDBRANCH   4   7
BRANCH   1  22
ATOM     20  C   UNL     1       5.367   6.346  17.244  0.00  0.00    +0.000 C 
ATOM     21  O   UNL     1       5.927   7.403  17.525  0.00  0.00    +0.000 OA
ATOM     22  N   UNL     1       4.080   5.994  17.626  0.00  0.00    +0.000 N 
ATOM     23  H   UNL     1       3.803   5.027  17.520  0.00  0.00    +0.000 HD
BRANCH  20  25
ATOM     24  C   UNL     1       7.385   4.841  17.123  0.00  0.00    +0.000 C 
ATOM     25  C   UNL     1       6.091   5.269  16.435  0.00  0.00    +0.000 C 
ATOM     26  C   UNL     1       5.176   4.053  16.255  0.00  0.00    +0.000 C 
ENDBRANCH  20  25
ENDBRANCH   1  22
TORSDOF 4
ENDMDL
MODEL 7
REMARK VINA RESULT:      -7.0      1.701      2.300
REMARK  Name = 
REMARK  6 active torsions:
REMARK  status: ('A' for Active; 'I' for Inactive)
REMARK    1  A    between atoms: C_1  and  C_2
REMARK    2  A    between atoms: C_2  and  C_3
REMARK    3  A    between atoms: C_2  and  C_4
REMARK    4  A    between atoms: N_6  and  C_7
REMARK    5  A    between atoms: C_10  and  N_11
REMARK    6  A    between atoms: N_14  and  C_15
REMARK                            x       y       z     vdW  Elec       q    Type
REMARK                         _______ _______ _______ _____ _____    ______ ____
ROOT
ATOM      1  C   UNL     1       3.179   6.607  18.291  0.00  0.00    +0.000 A 
ATOM      2  C   UNL     1       2.692   6.480  19.586  0.00  0.00    +0.000 A 
ATOM      3  C   UNL     1       1.832   7.438  20.124  0.00  0.00    +0.000 A 
ATOM      4  C   UNL     1       1.436   8.574  19.410  0.00  0.00    +0.000 A 
ATOM      5  C   UNL     1       1.890   8.670  18.090  0.00  0.00    +0.000 A 
ATOM      6  C   UNL     1       2.766   7.710  17.540  0.00  0.00    +0.000 A 
ENDROOT
BRANCH   4   7
ATOM      7  N   UNL     1       0.700   9.563  20.024  0.00  0.00    +0.000 N 
ATOM      8  C   UNL     1      -0.263   9.218  21.087  0.00  0.00    +0.000 C 
ATOM      9  C   UNL     1       0.032  10.069  22.332  0.00  0.00    +0.000 C 
ATOM     10  N   UNL     1      -0.039  11.497  21.994  0.00  0.00    +0.000 N 
ATOM     11  C   UNL     1       0.872  11.911  20.905  0.00  0.00    +0.000 C 
ATOM     12  C   UNL     1       0.729  10.989  19.657  0.00  0.00    +0.000 C 
BRANCH  10  13
ATOM     13  C   UNL     1      -0.961  12.336  22.578  0.00  0.00    +0.000 A 
ATOM     14  C   UNL     1      -0.690  13.701  22.770  0.00  0.00    +0.000 A 
ATOM     15  C   UNL     1      -1.606  14.544  23.413  0.00  0.00    +0.000 A 
ATOM     16  C   UNL     1      -2.816  14.034  23.860  0.00  0.00    +0.000 A 
ATOM     17  F   UNL     1      -3.687  14.835  24.483  0.00  0.00    +0.000 F 
ATOM     18  C   UNL     1      -3.128  12.698  23.671  0.00  0.00    +0.000 A 
ATOM     19  C   UNL     1      -2.207  11.864  23.033  0.00  0.00    +0.000 A 
ENDBRANCH  10  13
ENDBRANCH   4   7
BRANCH   1  22
ATOM     20  C   UNL     1       5.384   6.005  17.303  0.00  0.00    +0.000 C 
ATOM     21  O   UNL     1       5.958   7.074  17.499  0.00  0.00    +0.000 OA
ATOM     22  N   UNL     1       4.102   5.692  17.734  0.00  0.00    +0.000 N 
ATOM     23  H   UNL     1       3.816   4.722  17.701  0.00  0.00    +0.000 HD
BRANCH  20  25
ATOM     24  C   UNL     1       6.169   5.163  15.061  0.00  0.00    +0.000 C 
ATOM     25  C   UNL     1       6.083   4.868  16.557  0.00  0.00    +0.000 C 
ATOM     26  C   UNL     1       7.491   4.663  17.124  0.00  0.00    +0.000 C 
ENDBRANCH  20  25
ENDBRANCH   1  22
TORSDOF 4
ENDMDL
MODEL 8
REMARK VINA RESULT:      -7.0      0.975      1.458
REMARK  Name = 
REMARK  6 active torsions:
REMARK  status: ('A' for Active; 'I' for Inactive)
REMARK    1  A    between atoms: C_1  and  C_2
REMARK    2  A    between atoms: C_2  and  C_3
REMARK    3  A    between atoms: C_2  and  C_4
REMARK    4  A    between atoms: N_6  and  C_7
REMARK    5  A    between atoms: C_10  and  N_11
REMARK    6  A    between atoms: N_14  and  C_15
REMARK                            x       y       z     vdW  Elec       q    Type
REMARK                         _______ _______ _______ _____ _____    ______ ____
ROOT
ATOM      1  C   UNL     1       3.049   7.271  18.289  0.00  0.00    +0.000 A 
ATOM      2  C   UNL     1       2.568   7.031  19.570  0.00  0.00    +0.000 A 
ATOM      3  C   UNL     1       1.642   7.892  20.159  0.00  0.00    +0.000 A 
ATOM      4  C   UNL     1       1.170   9.040  19.513  0.00  0.00    +0.000 A 
ATOM      5  C   UNL     1       1.622   9.250  18.205  0.00  0.00    +0.000 A 
ATOM      6  C   UNL     1       2.564   8.388  17.604  0.00  0.00    +0.000 A 
ENDROOT
BRANCH   4   7
ATOM      7  N   UNL     1       0.366   9.936  20.182  0.00  0.00    +0.000 N 
ATOM      8  C   UNL     1      -0.351   9.521  21.402  0.00  0.00    +0.000 C 
ATOM      9  C   UNL     1      -0.036  10.510  22.535  0.00  0.00    +0.000 C 
ATOM     10  N   UNL     1      -0.415  11.872  22.134  0.00  0.00    +0.000 N 
ATOM     11  C   UNL     1       0.235  12.344  20.891  0.00  0.00    +0.000 C 
ATOM     12  C   UNL     1       0.080  11.311  19.736  0.00  0.00    +0.000 C 
BRANCH  10  13
ATOM     13  C   UNL     1      -1.377  12.587  22.811  0.00  0.00    +0.000 A 
ATOM     14  C   UNL     1      -2.702  12.129  22.898  0.00  0.00    +0.000 A 
ATOM     15  C   UNL     1      -3.694  12.881  23.543  0.00  0.00    +0.000 A 
ATOM     16  C   UNL     1      -3.368  14.098  24.122  0.00  0.00    +0.000 A 
ATOM     17  F   UNL     1      -4.315  14.823  24.727  0.00  0.00    +0.000 F 
ATOM     18  C   UNL     1      -2.068  14.574  24.074  0.00  0.00    +0.000 A 
ATOM     19  C   UNL     1      -1.087  13.819  23.426  0.00  0.00    +0.000 A 
ENDBRANCH  10  13
ENDBRANCH   4   7
BRANCH   1  22
ATOM     20  C   UNL     1       3.885   5.116  17.365  0.00  0.00    +0.000 C 
ATOM     21  O   UNL     1       2.828   4.490  17.405  0.00  0.00    +0.000 OA
ATOM     22  N   UNL     1       4.036   6.458  17.684  0.00  0.00    +0.000 N 
ATOM     23  H   UNL     1       4.897   6.914  17.416  0.00  0.00    +0.000 HD
BRANCH  20  25
ATOM     24  C   UNL     1       5.633   4.970  15.555  0.00  0.00    +0.000 C 
ATOM     25  C   UNL     1       5.178   4.437  16.911  0.00  0.00    +0.000 C 
ATOM     26  C   UNL     1       6.280   4.670  17.951  0.00  0.00    +0.000 C 
ENDBRANCH  20  25
ENDBRANCH   1  22
TORSDOF 4
ENDMDL
MODEL 9
REMARK VINA RESULT:      -6.9      1.680      2.003
REMARK  Name = 
REMARK  6 active torsions:
REMARK  status: ('A' for Active; 'I' for Inactive)
REMARK    1  A    between atoms: C_1  and  C_2
REMARK    2  A    between atoms: C_2  and  C_3
REMARK    3  A    between atoms: C_2  and  C_4
REMARK    4  A    between atoms: N_6  and  C_7
REMARK    5  A    between atoms: C_10  and  N_11
REMARK    6  A    between atoms: N_14  and  C_15
REMARK                            x       y       z     vdW  Elec       q    Type
REMARK                         _______ _______ _______ _____ _____    ______ ____
ROOT
ATOM      1  C   UNL     1       3.142   7.044  18.224  0.00  0.00    +0.000 A 
ATOM      2  C   UNL     1       2.716   8.187  17.560  0.00  0.00    +0.000 A 
ATOM      3  C   UNL     1       1.838   9.083  18.171  0.00  0.00    +0.000 A 
ATOM      4  C   UNL     1       1.327   8.874  19.456  0.00  0.00    +0.000 A 
ATOM      5  C   UNL     1       1.799   7.746  20.138  0.00  0.00    +0.000 A 
ATOM      6  C   UNL     1       2.682   6.831  19.526  0.00  0.00    +0.000 A 
ENDROOT
BRANCH   4   7
ATOM      7  N   UNL     1       0.357   9.707  19.966  0.00  0.00    +0.000 N 
ATOM      8  C   UNL     1      -0.289   9.391  21.254  0.00  0.00    +0.000 C 
ATOM      9  C   UNL     1      -0.184  10.610  22.184  0.00  0.00    +0.000 C 
ATOM     10  N   UNL     1      -0.806  11.781  21.551  0.00  0.00    +0.000 N 
ATOM     11  C   UNL     1      -0.236  12.135  20.233  0.00  0.00    +0.000 C 
ATOM     12  C   UNL     1      -0.175  10.901  19.285  0.00  0.00    +0.000 C 
BRANCH  10  13
ATOM     13  C   UNL     1      -1.897  12.412  22.106  0.00  0.00    +0.000 A 
ATOM     14  C   UNL     1      -2.424  13.588  21.548  0.00  0.00    +0.000 A 
ATOM     15  C   UNL     1      -3.502  14.259  22.142  0.00  0.00    +0.000 A 
ATOM     16  C   UNL     1      -4.076  13.752  23.297  0.00  0.00    +0.000 A 
ATOM     17  F   UNL     1      -5.097  14.398  23.872  0.00  0.00    +0.000 F 
ATOM     18  C   UNL     1      -3.598  12.584  23.867  0.00  0.00    +0.000 A 
ATOM     19  C   UNL     1      -2.520  11.924  23.270  0.00  0.00    +0.000 A 
ENDBRANCH  10  13
ENDBRANCH   4   7
BRANCH   1  22
ATOM     20  C   UNL     1       5.286   6.300  17.198  0.00  0.00    +0.000 C 
ATOM     21  O   UNL     1       5.953   7.301  17.449  0.00  0.00    +0.000 OA
ATOM     22  N   UNL     1       3.980   6.081  17.616  0.00  0.00    +0.000 N 
ATOM     23  H   UNL     1       3.608   5.144  17.533  0.00  0.00    +0.000 HD
BRANCH  20  25
ATOM     24  C   UNL     1       7.200   4.674  16.994  0.00  0.00    +0.000 C 
ATOM     25  C   UNL     1       5.880   5.146  16.390  0.00  0.00    +0.000 C 
ATOM     26  C   UNL     1       4.888   3.979  16.343  0.00  0.00    +0.000 C 
ENDBRANCH  20  25
ENDBRANCH   1  22
TORSDOF 4
ENDMDL
