MODEL 1
REMARK VINA RESULT:      -7.3      0.000      0.000
REMARK  Name = 
REMARK  8 active torsions:
REMARK  status: ('A' for Active; 'I' for Inactive)
REMARK    1  A    between atoms: C_1  and  C_2
REMARK    2  A    between atoms: C_2  and  C_3
REMARK    3  A    between atoms: C_2  and  C_4
REMARK    4  A    between atoms: C_2  and  C_5
REMARK    5  A    between atoms: C_11  and  N_12
REMARK    6  A    between atoms: C_13  and  C_15
REMARK    7  A    between atoms: C_20  and  C_21
REMARK    8  A    between atoms: N_23  and  C_24
REMARK                            x       y       z     vdW  Elec       q    Type
REMARK                         _______ _______ _______ _____ _____    ______ ____
ROOT
ATOM      1  C   UNL     1      -0.442  11.716  19.438  0.00  0.00    +0.000 C 
ATOM      2  C   UNL     1       0.899  12.008  18.707  0.00  0.00    +0.000 C 
ATOM      3  C   UNL     1       1.651  10.759  18.216  0.00  0.00    +0.000 C 
ATOM      4  C   UNL     1       1.536   9.590  19.162  0.00  0.00    +0.000 A 
ATOM      5  C   UNL     1       0.752   9.691  20.300  0.00  0.00    +0.000 A 
ATOM      6  S   UNL     1       0.828   8.329  21.290  0.00  0.00    +0.000 S 
ATOM      7  C   UNL     1       1.831   7.509  20.203  0.00  0.00    +0.000 A 
ATOM      8  C   UNL     1       2.114   8.257  19.053  0.00  0.00    +0.000 A 
ATOM      9  C   UNL     1      -0.098  10.859  20.682  0.00  0.00    +0.000 C 
ENDROOT
BRANCH   1  11
ATOM     10  C   UNL     1      -1.706   9.657  18.338  0.00  0.00    +0.000 C 
ATOM     11  C   UNL     1      -1.646  11.181  18.551  0.00  0.00    +0.000 C 
ATOM     12  C   UNL     1      -1.593  11.838  17.154  0.00  0.00    +0.000 C 
ATOM     13  C   UNL     1      -2.997  11.583  19.189  0.00  0.00    +0.000 C 
ENDBRANCH   1  11
BRANCH   7  14
ATOM     14  N   UNL     1       2.262   6.215  20.487  0.00  0.00    +0.000 N 
ATOM     15  C   UNL     1       1.527   5.045  20.465  0.00  0.00    +0.000 C 
ATOM     16  O   UNL     1       0.333   4.937  20.197  0.00  0.00    +0.000 OA
ATOM     17  H   UNL     1       3.234   6.133  20.796  0.00  0.00    +0.000 HD
BRANCH  15  18
ATOM     18  C   UNL     1       2.312   3.866  20.809  0.00  0.00    +0.000 A 
ATOM     19  C   UNL     1       2.110   2.899  21.777  0.00  0.00    +0.000 A 
ATOM     20  C   UNL     1       3.168   1.969  21.659  0.00  0.00    +0.000 A 
ATOM     21  C   UNL     1       3.959   2.424  20.630  0.00  0.00    +0.000 A 
ATOM     22  O   UNL     1       3.454   3.572  20.107  0.00  0.00    +0.000 OA
ENDBRANCH  15  18
ENDBRANCH   7  14
BRANCH   8  23
ATOM     23  C   UNL     1       2.919   7.655  17.973  0.00  0.00    +0.000 C 
ATOM     24  O   UNL     1       2.823   8.109  16.832  0.00  0.00    +0.000 OA
ATOM     25  N   UNL     1       3.778   6.626  18.315  0.00  0.00    +0.000 N 
ATOM     26  H   UNL     1       3.751   6.261  19.252  0.00  0.00    +0.000 HD
BRANCH  25  27
ATOM     27  C   UNL     1       4.708   5.980  17.453  0.00  0.00    +0.000 A 
ATOM     28  C   UNL     1       5.977   6.501  17.195  0.00  0.00    +0.000 A 
ATOM     29  C   UNL     1       6.865   5.858  16.330  0.00  0.00    +0.000 A 
ATOM     30  C   UNL     1       6.500   4.667  15.711  0.00  0.00    +0.000 A 
ATOM     31  C   UNL     1       5.249   4.112  15.972  0.00  0.00    +0.000 A 
ATOM     32  C   UNL     1       4.360   4.759  16.842  0.00  0.00    +0.000 A 
ATOM     33 CL   UNL     1       2.811   4.034  17.104  0.00  0.00    +0.000 Cl
ENDBRANCH  25  27
ENDBRANCH   8  23
TORSDOF 5
ENDMDL
MODEL 2
REMARK VINA RESULT:      -7.2      5.050      7.902
REMARK  Name = 
REMARK  8 active torsions:
REMARK  status: ('A' for Active; 'I' for Inactive)
REMARK    1  A    between atoms: C_1  and  C_2
REMARK    2  A    between atoms: C_2  and  C_3
REMARK    3  A    between atoms: C_2  and  C_4
REMARK    4  A    between atoms: C_2  and  C_5
REMARK    5  A    between atoms: C_11  and  N_12
REMARK    6  A    between atoms: C_13  and  C_15
REMARK    7  A    between atoms: C_20  and  C_21
REMARK    8  A    between atoms: N_23  and  C_24
REMARK                            x       y       z     vdW  Elec       q    Type
REMARK                         _______ _______ _______ _____ _____    ______ ____
ROOT
ATOM      1  C   UNL     1      -3.652  14.608  23.802  0.00  0.00    +0.000 C 
ATOM      2  C   UNL     1      -2.622  15.717  23.441  0.00  0.00    +0.000 C 
ATOM      3  C   UNL     1      -1.771  15.423  22.194  0.00  0.00    +0.000 C 
ATOM      4  C   UNL     1      -1.404  13.967  22.057  0.00  0.00    +0.000 A 
ATOM      5  C   UNL     1      -1.887  13.040  22.966  0.00  0.00    +0.000 A 
ATOM      6  S   UNL     1      -1.288  11.483  22.720  0.00  0.00    +0.000 S 
ATOM      7  C   UNL     1      -0.435  11.954  21.339  0.00  0.00    +0.000 A 
ATOM      8  C   UNL     1      -0.606  13.310  21.030  0.00  0.00    +0.000 A 
ATOM      9  C   UNL     1      -2.842  13.317  24.082  0.00  0.00    +0.000 C 
ENDROOT
BRANCH   1  11
ATOM     10  C   UNL     1      -4.926  13.151  21.985  0.00  0.00    +0.000 C 
ATOM     11  C   UNL     1      -4.897  14.437  22.832  0.00  0.00    +0.000 C 
ATOM     12  C   UNL     1      -4.963  15.632  21.855  0.00  0.00    +0.000 C 
ATOM     13  C   UNL     1      -6.212  14.447  23.648  0.00  0.00    +0.000 C 
ENDBRANCH   1  11
BRANCH   7  14
ATOM     14  N   UNL     1       0.312  11.021  20.624  0.00  0.00    +0.000 N 
ATOM     15  C   UNL     1      -0.106  10.196  19.597  0.00  0.00    +0.000 C 
ATOM     16  O   UNL     1      -1.240  10.130  19.130  0.00  0.00    +0.000 OA
ATOM     17  H   UNL     1       1.279  10.901  20.935  0.00  0.00    +0.000 HD
BRANCH  15  18
ATOM     18  C   UNL     1       0.956   9.348  19.072  0.00  0.00    +0.000 A 
ATOM     19  C   UNL     1       1.664   9.421  17.886  0.00  0.00    +0.000 A 
ATOM     20  C   UNL     1       2.596   8.358  17.896  0.00  0.00    +0.000 A 
ATOM     21  C   UNL     1       2.401   7.694  19.084  0.00  0.00    +0.000 A 
ATOM     22  O   UNL     1       1.411   8.281  19.805  0.00  0.00    +0.000 OA
ENDBRANCH  15  18
ENDBRANCH   7  14
BRANCH   8  23
ATOM     23  C   UNL     1       0.017  13.863  19.811  0.00  0.00    +0.000 C 
ATOM     24  O   UNL     1      -0.408  13.511  18.710  0.00  0.00    +0.000 OA
ATOM     25  N   UNL     1       1.032  14.789  19.977  0.00  0.00    +0.000 N 
ATOM     26  H   UNL     1       1.374  14.976  20.905  0.00  0.00    +0.000 HD
BRANCH  25  27
ATOM     27  C   UNL     1       1.692  15.512  18.945  0.00  0.00    +0.000 A 
ATOM     28  C   UNL     1       2.818  15.016  18.285  0.00  0.00    +0.000 A 
ATOM     29  C   UNL     1       3.461  15.754  17.288  0.00  0.00    +0.000 A 
ATOM     30  C   UNL     1       2.976  17.005  16.922  0.00  0.00    +0.000 A 
ATOM     31  C   UNL     1       1.838  17.512  17.547  0.00  0.00    +0.000 A 
ATOM     32  C   UNL     1       1.195  16.769  18.547  0.00  0.00    +0.000 A 
ATOM     33 CL   UNL     1      -0.197  17.464  19.304  0.00  0.00    +0.000 Cl
ENDBRANCH  25  27
ENDBRANCH   8  23
TORSDOF 5
ENDMDL
MODEL 3
REMARK VINA RESULT:      -7.2      4.673      7.704
REMARK  Name = 
REMARK  8 active torsions:
REMARK  status: ('A' for Active; 'I' for Inactive)
REMARK    1  A    between atoms: C_1  and  C_2
REMARK    2  A    between atoms: C_2  and  C_3
REMARK    3  A    between atoms: C_2  and  C_4
REMARK    4  A    between atoms: C_2  and  C_5
REMARK    5  A    between atoms: C_11  and  N_12
REMARK    6  A    between atoms: C_13  and  C_15
REMARK    7  A    between atoms: C_20  and  C_21
REMARK    8  A    between atoms: N_23  and  C_24
REMARK                            x       y       z     vdW  Elec       q    Type
REMARK                         _______ _______ _______ _____ _____    ______ ____
ROOT
ATOM      1  C   UNL     1      -3.860  14.324  23.915  0.00  0.00    +0.000 C 
ATOM      2  C   UNL     1      -2.876  15.482  23.579  0.00  0.00    +0.000 C 
ATOM      3  C   UNL     1      -2.018  15.254  22.323  0.00  0.00    +0.000 C 
ATOM      4  C   UNL     1      -1.594  13.817  22.149  0.00  0.00    +0.000 A 
ATOM      5  C   UNL     1      -2.038  12.849  23.036  0.00  0.00    +0.000 A 
ATOM      6  S   UNL     1      -1.378  11.324  22.750  0.00  0.00    +0.000 S 
ATOM      7  C   UNL     1      -0.549  11.863  21.378  0.00  0.00    +0.000 A 
ATOM      8  C   UNL     1      -0.775  13.219  21.104  0.00  0.00    +0.000 A 
ATOM      9  C   UNL     1      -2.999  13.060  24.161  0.00  0.00    +0.000 C 
ENDROOT
BRANCH   1  11
ATOM     10  C   UNL     1      -4.967  13.016  21.889  0.00  0.00    +0.000 C 
ATOM     11  C   UNL     1      -5.101  14.129  22.945  0.00  0.00    +0.000 C 
ATOM     12  C   UNL     1      -5.383  15.446  22.189  0.00  0.00    +0.000 C 
ATOM     13  C   UNL     1      -6.371  13.797  23.765  0.00  0.00    +0.000 C 
ENDBRANCH   1  11
BRANCH   7  14
ATOM     14  N   UNL     1       0.232  10.978  20.639  0.00  0.00    +0.000 N 
ATOM     15  C   UNL     1      -0.142  10.209  19.553  0.00  0.00    +0.000 C 
ATOM     16  O   UNL     1      -1.259  10.160  19.043  0.00  0.00    +0.000 OA
ATOM     17  H   UNL     1       1.189  10.849  20.976  0.00  0.00    +0.000 HD
BRANCH  15  18
ATOM     18  C   UNL     1       0.947   9.401  19.018  0.00  0.00    +0.000 A 
ATOM     19  C   UNL     1       1.681   9.537  17.854  0.00  0.00    +0.000 A 
ATOM     20  C   UNL     1       2.630   8.489  17.841  0.00  0.00    +0.000 A 
ATOM     21  C   UNL     1       2.418   7.771  18.995  0.00  0.00    +0.000 A 
ATOM     22  O   UNL     1       1.401   8.311  19.716  0.00  0.00    +0.000 OA
ENDBRANCH  15  18
ENDBRANCH   7  14
BRANCH   8  23
ATOM     23  C   UNL     1      -0.178  13.826  19.898  0.00  0.00    +0.000 C 
ATOM     24  O   UNL     1      -0.664  13.567  18.796  0.00  0.00    +0.000 OA
ATOM     25  N   UNL     1       0.884  14.694  20.080  0.00  0.00    +0.000 N 
ATOM     26  H   UNL     1       1.272  14.802  21.001  0.00  0.00    +0.000 HD
BRANCH  25  27
ATOM     27  C   UNL     1       1.533  15.457  19.069  0.00  0.00    +0.000 A 
ATOM     28  C   UNL     1       1.178  16.776  18.782  0.00  0.00    +0.000 A 
ATOM     29  C   UNL     1       1.818  17.498  17.772  0.00  0.00    +0.000 A 
ATOM     30  C   UNL     1       2.840  16.911  17.033  0.00  0.00    +0.000 A 
ATOM     31  C   UNL     1       3.230  15.604  17.316  0.00  0.00    +0.000 A 
ATOM     32  C   UNL     1       2.587  14.882  18.332  0.00  0.00    +0.000 A 
ATOM     33 CL   UNL     1       3.099  13.254  18.618  0.00  0.00    +0.000 Cl
ENDBRANCH  25  27
ENDBRANCH   8  23
TORSDOF 5
ENDMDL
MODEL 4
REMARK VINA RESULT:      -7.2      5.409      8.187
REMARK  Name = 
REMARK  8 active torsions:
REMARK  status: ('A' for Active; 'I' for Inactive)
REMARK    1  A    between atoms: C_1  and  C_2
REMARK    2  A    between atoms: C_2  and  C_3
REMARK    3  A    between atoms: C_2  and  C_4
REMARK    4  A    between atoms: C_2  and  C_5
REMARK    5  A    between atoms: C_11  and  N_12
REMARK    6  A    between atoms: C_13  and  C_15
REMARK    7  A    between atoms: C_20  and  C_21
REMARK    8  A    between atoms: N_23  and  C_24
REMARK                            x       y       z     vdW  Elec       q    Type
REMARK                         _______ _______ _______ _____ _____    ______ ____
ROOT
ATOM      1  C   UNL     1      -3.641  15.259  24.477  0.00  0.00    +0.000 C 
ATOM      2  C   UNL     1      -2.274  15.934  24.786  0.00  0.00    +0.000 C 
ATOM      3  C   UNL     1      -1.167  15.647  23.757  0.00  0.00    +0.000 C 
ATOM      4  C   UNL     1      -1.219  14.243  23.208  0.00  0.00    +0.000 A 
ATOM      5  C   UNL     1      -2.237  13.385  23.589  0.00  0.00    +0.000 A 
ATOM      6  S   UNL     1      -2.074  11.829  22.961  0.00  0.00    +0.000 S 
ATOM      7  C   UNL     1      -0.695  12.254  22.080  0.00  0.00    +0.000 A 
ATOM      8  C   UNL     1      -0.343  13.601  22.237  0.00  0.00    +0.000 A 
ATOM      9  C   UNL     1      -3.395  13.729  24.469  0.00  0.00    +0.000 C 
ENDROOT
BRANCH   1  11
ATOM     10  C   UNL     1      -3.714  16.812  22.326  0.00  0.00    +0.000 C 
ATOM     11  C   UNL     1      -4.463  15.826  23.243  0.00  0.00    +0.000 C 
ATOM     12  C   UNL     1      -5.732  16.545  23.751  0.00  0.00    +0.000 C 
ATOM     13  C   UNL     1      -4.933  14.663  22.337  0.00  0.00    +0.000 C 
ENDBRANCH   1  11
BRANCH   7  14
ATOM     14  N   UNL     1      -0.054  11.309  21.282  0.00  0.00    +0.000 N 
ATOM     15  C   UNL     1      -0.179  11.113  19.919  0.00  0.00    +0.000 C 
ATOM     16  O   UNL     1      -0.903  11.745  19.155  0.00  0.00    +0.000 OA
ATOM     17  H   UNL     1       0.548  10.648  21.780  0.00  0.00    +0.000 HD
BRANCH  15  18
ATOM     18  C   UNL     1       0.657  10.032  19.415  0.00  0.00    +0.000 A 
ATOM     19  C   UNL     1       1.117   9.769  18.137  0.00  0.00    +0.000 A 
ATOM     20  C   UNL     1       1.910   8.601  18.216  0.00  0.00    +0.000 A 
ATOM     21  C   UNL     1       1.885   8.214  19.535  0.00  0.00    +0.000 A 
ATOM     22  O   UNL     1       1.130   9.070  20.273  0.00  0.00    +0.000 OA
ENDBRANCH  15  18
ENDBRANCH   7  14
BRANCH   8  23
ATOM     23  C   UNL     1       0.798  14.149  21.477  0.00  0.00    +0.000 C 
ATOM     24  O   UNL     1       1.899  14.225  22.024  0.00  0.00    +0.000 OA
ATOM     25  N   UNL     1       0.572  14.515  20.162  0.00  0.00    +0.000 N 
ATOM     26  H   UNL     1      -0.368  14.490  19.805  0.00  0.00    +0.000 HD
BRANCH  25  27
ATOM     27  C   UNL     1       1.550  14.967  19.231  0.00  0.00    +0.000 A 
ATOM     28  C   UNL     1       2.412  14.092  18.567  0.00  0.00    +0.000 A 
ATOM     29  C   UNL     1       3.376  14.563  17.672  0.00  0.00    +0.000 A 
ATOM     30  C   UNL     1       3.487  15.925  17.416  0.00  0.00    +0.000 A 
ATOM     31  C   UNL     1       2.621  16.816  18.047  0.00  0.00    +0.000 A 
ATOM     32  C   UNL     1       1.654  16.342  18.943  0.00  0.00    +0.000 A 
ATOM     33 CL   UNL     1       0.626  17.501  19.715  0.00  0.00    +0.000 Cl
ENDBRANCH  25  27
ENDBRANCH   8  23
TORSDOF 5
ENDMDL
MODEL 5
REMARK VINA RESULT:      -7.1      4.550      7.774
REMARK  Name = 
REMARK  8 active torsions:
REMARK  status: ('A' for Active; 'I' for Inactive)
REMARK    1  A    between atoms: C_1  and  C_2
REMARK    2  A    between atoms: C_2  and  C_3
REMARK    3  A    between atoms: C_2  and  C_4
REMARK    4  A    between atoms: C_2  and  C_5
REMARK    5  A    between atoms: C_11  and  N_12
REMARK    6  A    between atoms: C_13  and  C_15
REMARK    7  A    between atoms: C_20  and  C_21
REMARK    8  A    between atoms: N_23  and  C_24
REMARK                            x       y       z     vdW  Elec       q    Type
REMARK                         _______ _______ _______ _____ _____    ______ ____
ROOT
ATOM      1  C   UNL     1      -4.495  13.995  22.415  0.00  0.00    +0.000 C 
ATOM      2  C   UNL     1      -4.777  13.139  21.148  0.00  0.00    +0.000 C 
ATOM      3  C   UNL     1      -3.526  12.538  20.484  0.00  0.00    +0.000 C 
ATOM      4  C   UNL     1      -2.331  13.456  20.535  0.00  0.00    +0.000 A 
ATOM      5  C   UNL     1      -2.415  14.670  21.195  0.00  0.00    +0.000 A 
ATOM      6  S   UNL     1      -1.020  15.608  21.057  0.00  0.00    +0.000 S 
ATOM      7  C   UNL     1      -0.211  14.400  20.193  0.00  0.00    +0.000 A 
ATOM      8  C   UNL     1      -0.988  13.249  20.008  0.00  0.00    +0.000 A 
ATOM      9  C   UNL     1      -3.591  15.172  21.970  0.00  0.00    +0.000 C 
ENDROOT
BRANCH   1  11
ATOM     10  C   UNL     1      -2.990  12.095  23.498  0.00  0.00    +0.000 C 
ATOM     11  C   UNL     1      -4.019  13.220  23.717  0.00  0.00    +0.000 C 
ATOM     12  C   UNL     1      -5.241  12.593  24.424  0.00  0.00    +0.000 C 
ATOM     13  C   UNL     1      -3.374  14.208  24.718  0.00  0.00    +0.000 C 
ENDBRANCH   1  11
BRANCH   7  14
ATOM     14  N   UNL     1       1.102  14.601  19.771  0.00  0.00    +0.000 N 
ATOM     15  C   UNL     1       2.261  14.071  20.305  0.00  0.00    +0.000 C 
ATOM     16  O   UNL     1       2.343  13.321  21.275  0.00  0.00    +0.000 OA
ATOM     17  H   UNL     1       1.220  15.262  19.000  0.00  0.00    +0.000 HD
BRANCH  15  18
ATOM     18  C   UNL     1       3.464  14.491  19.597  0.00  0.00    +0.000 A 
ATOM     19  C   UNL     1       4.711  14.851  20.074  0.00  0.00    +0.000 A 
ATOM     20  C   UNL     1       5.513  15.148  18.948  0.00  0.00    +0.000 A 
ATOM     21  C   UNL     1       4.709  14.959  17.849  0.00  0.00    +0.000 A 
ATOM     22  O   UNL     1       3.466  14.562  18.227  0.00  0.00    +0.000 OA
ENDBRANCH  15  18
ENDBRANCH   7  14
BRANCH   8  23
ATOM     23  C   UNL     1      -0.401  12.075  19.334  0.00  0.00    +0.000 C 
ATOM     24  O   UNL     1      -0.426  12.018  18.104  0.00  0.00    +0.000 OA
ATOM     25  N   UNL     1       0.187  11.109  20.131  0.00  0.00    +0.000 N 
ATOM     26  H   UNL     1       0.107  11.188  21.130  0.00  0.00    +0.000 HD
BRANCH  25  27
ATOM     27  C   UNL     1       0.893   9.958  19.680  0.00  0.00    +0.000 A 
ATOM     28  C   UNL     1       1.333   9.817  18.363  0.00  0.00    +0.000 A 
ATOM     29  C   UNL     1       2.007   8.669  17.941  0.00  0.00    +0.000 A 
ATOM     30  C   UNL     1       2.263   7.638  18.839  0.00  0.00    +0.000 A 
ATOM     31  C   UNL     1       1.856   7.765  20.166  0.00  0.00    +0.000 A 
ATOM     32  C   UNL     1       1.181   8.919  20.588  0.00  0.00    +0.000 A 
ATOM     33 CL   UNL     1       0.678   9.006  22.241  0.00  0.00    +0.000 Cl
ENDBRANCH  25  27
ENDBRANCH   8  23
TORSDOF 5
ENDMDL
MODEL 6
REMARK VINA RESULT:      -7.1      4.240      7.258
REMARK  Name = 
REMARK  8 active torsions:
REMARK  status: ('A' for Active; 'I' for Inactive)
REMARK    1  A    between atoms: C_1  and  C_2
REMARK    2  A    between atoms: C_2  and  C_3
REMARK    3  A    between atoms: C_2  and  C_4
REMARK    4  A    between atoms: C_2  and  C_5
REMARK    5  A    between atoms: C_11  and  N_12
REMARK    6  A    between atoms: C_13  and  C_15
REMARK    7  A    between atoms: C_20  and  C_21
REMARK    8  A    between atoms: N_23  and  C_24
REMARK                            x       y       z     vdW  Elec       q    Type
REMARK                         _______ _______ _______ _____ _____    ______ ____
ROOT
ATOM      1  C   UNL     1       3.035  16.209  20.899  0.00  0.00    +0.000 C 
ATOM      2  C   UNL     1       3.346  14.881  21.647  0.00  0.00    +0.000 C 
ATOM      3  C   UNL     1       3.047  13.604  20.845  0.00  0.00    +0.000 C 
ATOM      4  C   UNL     1       1.817  13.722  19.980  0.00  0.00    +0.000 A 
ATOM      5  C   UNL     1       1.125  14.920  19.917  0.00  0.00    +0.000 A 
ATOM      6  S   UNL     1      -0.280  14.836  18.988  0.00  0.00    +0.000 S 
ATOM      7  C   UNL     1       0.021  13.230  18.553  0.00  0.00    +0.000 A 
ATOM      8  C   UNL     1       1.212  12.733  19.098  0.00  0.00    +0.000 A 
ATOM      9  C   UNL     1       1.518  16.201  20.581  0.00  0.00    +0.000 C 
ENDROOT
BRANCH   1  11
ATOM     10  C   UNL     1       4.899  15.471  19.160  0.00  0.00    +0.000 C 
ATOM     11  C   UNL     1       3.985  16.593  19.687  0.00  0.00    +0.000 C 
ATOM     12  C   UNL     1       4.896  17.773  20.094  0.00  0.00    +0.000 C 
ATOM     13  C   UNL     1       3.143  17.068  18.479  0.00  0.00    +0.000 C 
ENDBRANCH   1  11
BRANCH   7  14
ATOM     14  N   UNL     1      -0.861  12.555  17.712  0.00  0.00    +0.000 N 
ATOM     15  C   UNL     1      -1.774  11.572  18.043  0.00  0.00    +0.000 C 
ATOM     16  O   UNL     1      -1.966  11.100  19.161  0.00  0.00    +0.000 OA
ATOM     17  H   UNL     1      -0.785  12.786  16.719  0.00  0.00    +0.000 HD
BRANCH  15  18
ATOM     18  C   UNL     1      -2.544  11.095  16.901  0.00  0.00    +0.000 A 
ATOM     19  C   UNL     1      -2.275  10.090  15.989  0.00  0.00    +0.000 A 
ATOM     20  C   UNL     1      -3.373  10.037  15.099  0.00  0.00    +0.000 A 
ATOM     21  C   UNL     1      -4.246  11.014  15.515  0.00  0.00    +0.000 A 
ATOM     22  O   UNL     1      -3.757  11.664  16.603  0.00  0.00    +0.000 OA
ENDBRANCH  15  18
ENDBRANCH   7  14
BRANCH   8  23
ATOM     23  C   UNL     1       1.655  11.367  18.756  0.00  0.00    +0.000 C 
ATOM     24  O   UNL     1       2.449  11.211  17.828  0.00  0.00    +0.000 OA
ATOM     25  N   UNL     1       1.175  10.327  19.532  0.00  0.00    +0.000 N 
ATOM     26  H   UNL     1       0.474  10.522  20.227  0.00  0.00    +0.000 HD
BRANCH  25  27
ATOM     27  C   UNL     1       1.550   8.958  19.436  0.00  0.00    +0.000 A 
ATOM     28  C   UNL     1       1.980   8.382  18.239  0.00  0.00    +0.000 A 
ATOM     29  C   UNL     1       2.325   7.030  18.165  0.00  0.00    +0.000 A 
ATOM     30  C   UNL     1       2.257   6.229  19.300  0.00  0.00    +0.000 A 
ATOM     31  C   UNL     1       1.856   6.786  20.513  0.00  0.00    +0.000 A 
ATOM     32  C   UNL     1       1.511   8.143  20.584  0.00  0.00    +0.000 A 
ATOM     33 CL   UNL     1       0.996   8.768  22.112  0.00  0.00    +0.000 Cl
ENDBRANCH  25  27
ENDBRANCH   8  23
TORSDOF 5
ENDMDL
MODEL 7
REMARK VINA RESULT:      -7.0      4.873      7.913
REMARK  Name = 
REMARK  8 active torsions:
REMARK  status: ('A' for Active; 'I' for Inactive)
REMARK    1  A    between atoms: C_1  and  C_2
REMARK    2  A    between atoms: C_2  and  C_3
REMARK    3  A    between atoms: C_2  and  C_4
REMARK    4  A    between atoms: C_2  and  C_5
REMARK    5  A    between atoms: C_11  and  N_12
REMARK    6  A    between atoms: C_13  and  C_15
REMARK    7  A    between atoms: C_20  and  C_21
REMARK    8  A    between atoms: N_23  and  C_24
REMARK                            x       y       z     vdW  Elec       q    Type
REMARK                         _______ _______ _______ _____ _____    ______ ____
ROOT
ATOM      1  C   UNL     1      -5.537  15.171  23.187  0.00  0.00    +0.000 C 
ATOM      2  C   UNL     1      -5.029  15.898  21.910  0.00  0.00    +0.000 C 
ATOM      3  C   UNL     1      -4.343  14.986  20.879  0.00  0.00    +0.000 C 
ATOM      4  C   UNL     1      -3.521  13.891  21.512  0.00  0.00    +0.000 A 
ATOM      5  C   UNL     1      -3.499  13.747  22.890  0.00  0.00    +0.000 A 
ATOM      6  S   UNL     1      -2.446  12.542  23.422  0.00  0.00    +0.000 S 
ATOM      7  C   UNL     1      -2.045  12.097  21.841  0.00  0.00    +0.000 A 
ATOM      8  C   UNL     1      -2.723  12.852  20.874  0.00  0.00    +0.000 A 
ATOM      9  C   UNL     1      -4.296  14.544  23.871  0.00  0.00    +0.000 C 
ENDROOT
BRANCH   1  11
ATOM     10  C   UNL     1      -6.467  12.711  22.832  0.00  0.00    +0.000 C 
ATOM     11  C   UNL     1      -6.786  14.206  23.019  0.00  0.00    +0.000 C 
ATOM     12  C   UNL     1      -7.626  14.651  21.801  0.00  0.00    +0.000 C 
ATOM     13  C   UNL     1      -7.704  14.301  24.261  0.00  0.00    +0.000 C 
ENDBRANCH   1  11
BRANCH   7  14
ATOM     14  N   UNL     1      -1.147  11.057  21.612  0.00  0.00    +0.000 N 
ATOM     15  C   UNL     1       0.207  11.138  21.349  0.00  0.00    +0.000 C 
ATOM     16  O   UNL     1       0.872  12.167  21.257  0.00  0.00    +0.000 OA
ATOM     17  H   UNL     1      -1.557  10.120  21.590  0.00  0.00    +0.000 HD
BRANCH  15  18
ATOM     18  C   UNL     1       0.837   9.836  21.171  0.00  0.00    +0.000 A 
ATOM     19  C   UNL     1       1.146   8.852  22.093  0.00  0.00    +0.000 A 
ATOM     20  C   UNL     1       1.729   7.783  21.374  0.00  0.00    +0.000 A 
ATOM     21  C   UNL     1       1.748   8.177  20.057  0.00  0.00    +0.000 A 
ATOM     22  O   UNL     1       1.213   9.419  19.920  0.00  0.00    +0.000 OA
ENDBRANCH  15  18
ENDBRANCH   7  14
BRANCH   8  23
ATOM     23  C   UNL     1      -2.537  12.539  19.444  0.00  0.00    +0.000 C 
ATOM     24  O   UNL     1      -1.644  13.112  18.818  0.00  0.00    +0.000 OA
ATOM     25  N   UNL     1      -3.362  11.578  18.889  0.00  0.00    +0.000 N 
ATOM     26  H   UNL     1      -4.115  11.204  19.442  0.00  0.00    +0.000 HD
BRANCH  25  27
ATOM     27  C   UNL     1      -3.284  11.060  17.565  0.00  0.00    +0.000 A 
ATOM     28  C   UNL     1      -2.274  10.186  17.161  0.00  0.00    +0.000 A 
ATOM     29  C   UNL     1      -2.208   9.706  15.851  0.00  0.00    +0.000 A 
ATOM     30  C   UNL     1      -3.166  10.088  14.918  0.00  0.00    +0.000 A 
ATOM     31  C   UNL     1      -4.200  10.939  15.302  0.00  0.00    +0.000 A 
ATOM     32  C   UNL     1      -4.265  11.418  16.618  0.00  0.00    +0.000 A 
ATOM     33 CL   UNL     1      -5.557  12.493  17.027  0.00  0.00    +0.000 Cl
ENDBRANCH  25  27
ENDBRANCH   8  23
TORSDOF 5
ENDMDL
MODEL 8
REMARK VINA RESULT:      -7.0      5.087      7.913
REMARK  Name = 
REMARK  8 active torsions:
REMARK  status: ('A' for Active; 'I' for Inactive)
REMARK    1  A    between atoms: C_1  and  C_2
REMARK    2  A    between atoms: C_2  and  C_3
REMARK    3  A    between atoms: C_2  and  C_4
REMARK    4  A    between atoms: C_2  and  C_5
REMARK    5  A    between atoms: C_11  and  N_12
REMARK    6  A    between atoms: C_13  and  C_15
REMARK    7  A    between atoms: C_20  and  C_21
REMARK    8  A    between atoms: N_23  and  C_24
REMARK                            x       y       z     vdW  Elec       q    Type
REMARK                         _______ _______ _______ _____ _____    ______ ____
ROOT
ATOM      1  C   UNL     1      -3.723  14.625  23.981  0.00  0.00    +0.000 C 
ATOM      2  C   UNL     1      -2.634  15.683  23.641  0.00  0.00    +0.000 C 
ATOM      3  C   UNL     1      -1.828  15.389  22.365  0.00  0.00    +0.000 C 
ATOM      4  C   UNL     1      -1.555  13.920  22.162  0.00  0.00    +0.000 A 
ATOM      5  C   UNL     1      -2.076  12.988  23.044  0.00  0.00    +0.000 A 
ATOM      6  S   UNL     1      -1.580  11.409  22.723  0.00  0.00    +0.000 S 
ATOM      7  C   UNL     1      -0.727  11.883  21.342  0.00  0.00    +0.000 A 
ATOM      8  C   UNL     1      -0.820  13.259  21.091  0.00  0.00    +0.000 A 
ATOM      9  C   UNL     1      -2.989  13.276  24.192  0.00  0.00    +0.000 C 
ENDROOT
BRANCH   1  11
ATOM     10  C   UNL     1      -4.914  15.402  21.740  0.00  0.00    +0.000 C 
ATOM     11  C   UNL     1      -4.996  14.571  23.035  0.00  0.00    +0.000 C 
ATOM     12  C   UNL     1      -6.241  15.053  23.811  0.00  0.00    +0.000 C 
ATOM     13  C   UNL     1      -5.273  13.113  22.596  0.00  0.00    +0.000 C 
ENDBRANCH   1  11
BRANCH   7  14
ATOM     14  N   UNL     1      -0.054  10.936  20.574  0.00  0.00    +0.000 N 
ATOM     15  C   UNL     1       0.906  10.029  20.983  0.00  0.00    +0.000 C 
ATOM     16  O   UNL     1       1.355   9.904  22.119  0.00  0.00    +0.000 OA
ATOM     17  H   UNL     1      -0.267  10.949  19.574  0.00  0.00    +0.000 HD
BRANCH  15  18
ATOM     18  C   UNL     1       1.388   9.177  19.903  0.00  0.00    +0.000 A 
ATOM     19  C   UNL     1       1.459   9.404  18.540  0.00  0.00    +0.000 A 
ATOM     20  C   UNL     1       2.030   8.248  17.960  0.00  0.00    +0.000 A 
ATOM     21  C   UNL     1       2.270   7.380  19.000  0.00  0.00    +0.000 A 
ATOM     22  O   UNL     1       1.885   7.929  20.181  0.00  0.00    +0.000 OA
ENDBRANCH  15  18
ENDBRANCH   7  14
BRANCH   8  23
ATOM     23  C   UNL     1      -0.189  13.822  19.882  0.00  0.00    +0.000 C 
ATOM     24  O   UNL     1      -0.678  13.570  18.780  0.00  0.00    +0.000 OA
ATOM     25  N   UNL     1       0.909  14.645  20.060  0.00  0.00    +0.000 N 
ATOM     26  H   UNL     1       1.295  14.749  20.983  0.00  0.00    +0.000 HD
BRANCH  25  27
ATOM     27  C   UNL     1       1.599  15.364  19.043  0.00  0.00    +0.000 A 
ATOM     28  C   UNL     1       2.720  14.848  18.390  0.00  0.00    +0.000 A 
ATOM     29  C   UNL     1       3.391  15.582  17.409  0.00  0.00    +0.000 A 
ATOM     30  C   UNL     1       2.942  16.849  17.054  0.00  0.00    +0.000 A 
ATOM     31  C   UNL     1       1.810  17.376  17.673  0.00  0.00    +0.000 A 
ATOM     32  C   UNL     1       1.137  16.638  18.656  0.00  0.00    +0.000 A 
ATOM     33 CL   UNL     1      -0.246  17.358  19.406  0.00  0.00    +0.000 Cl
ENDBRANCH  25  27
ENDBRANCH   8  23
TORSDOF 5
ENDMDL
MODEL 9
REMARK VINA RESULT:      -7.0      4.410      7.427
REMARK  Name = 
REMARK  8 active torsions:
REMARK  status: ('A' for Active; 'I' for Inactive)
REMARK    1  A    between atoms: C_1  and  C_2
REMARK    2  A    between atoms: C_2  and  C_3
REMARK    3  A    between atoms: C_2  and  C_4
REMARK    4  A    between atoms: C_2  and  C_5
REMARK    5  A    between atoms: C_11  and  N_12
REMARK    6  A    between atoms: C_13  and  C_15
REMARK    7  A    between atoms: C_20  and  C_21
REMARK    8  A    between atoms: N_23  and  C_24
REMARK                            x       y       z     vdW  Elec       q    Type
REMARK                         _______ _______ _______ _____ _____    ______ ____
ROOT
ATOM      1  C   UNL     1      -3.236  13.669  21.461  0.00  0.00    +0.000 C 
ATOM      2  C   UNL     1      -3.342  12.678  20.266  0.00  0.00    +0.000 C 
ATOM      3  C   UNL     1      -2.000  12.091  19.795  0.00  0.00    +0.000 C 
ATOM      4  C   UNL     1      -0.863  13.080  19.870  0.00  0.00    +0.000 A 
ATOM      5  C   UNL     1      -1.076  14.345  20.391  0.00  0.00    +0.000 A 
ATOM      6  S   UNL     1       0.278  15.347  20.296  0.00  0.00    +0.000 S 
ATOM      7  C   UNL     1       1.232  14.112  19.644  0.00  0.00    +0.000 A 
ATOM      8  C   UNL     1       0.536  12.904  19.503  0.00  0.00    +0.000 A 
ATOM      9  C   UNL     1      -2.350  14.849  20.990  0.00  0.00    +0.000 C 
ENDROOT
BRANCH   1  11
ATOM     10  C   UNL     1      -1.983  11.788  22.854  0.00  0.00    +0.000 C 
ATOM     11  C   UNL     1      -2.860  13.054  22.876  0.00  0.00    +0.000 C 
ATOM     12  C   UNL     1      -4.151  12.703  23.649  0.00  0.00    +0.000 C 
ATOM     13  C   UNL     1      -2.094  14.097  23.724  0.00  0.00    +0.000 C 
ENDBRANCH   1  11
BRANCH   7  14
ATOM     14  N   UNL     1       2.570  14.348  19.337  0.00  0.00    +0.000 N 
ATOM     15  C   UNL     1       3.587  14.737  20.188  0.00  0.00    +0.000 C 
ATOM     16  O   UNL     1       3.487  14.960  21.391  0.00  0.00    +0.000 OA
ATOM     17  H   UNL     1       2.814  14.269  18.347  0.00  0.00    +0.000 HD
BRANCH  15  18
ATOM     18  C   UNL     1       4.873  14.880  19.517  0.00  0.00    +0.000 A 
ATOM     19  C   UNL     1       6.126  15.170  20.026  0.00  0.00    +0.000 A 
ATOM     20  C   UNL     1       7.025  15.166  18.934  0.00  0.00    +0.000 A 
ATOM     21  C   UNL     1       6.269  14.880  17.821  0.00  0.00    +0.000 A 
ATOM     22  O   UNL     1       4.964  14.706  18.159  0.00  0.00    +0.000 OA
ENDBRANCH  15  18
ENDBRANCH   7  14
BRANCH   8  23
ATOM     23  C   UNL     1       1.248  11.707  19.013  0.00  0.00    +0.000 C 
ATOM     24  O   UNL     1       2.187  11.849  18.230  0.00  0.00    +0.000 OA
ATOM     25  N   UNL     1       0.838  10.478  19.499  0.00  0.00    +0.000 N 
ATOM     26  H   UNL     1       0.019  10.433  20.081  0.00  0.00    +0.000 HD
BRANCH  25  27
ATOM     27  C   UNL     1       1.449   9.220  19.235  0.00  0.00    +0.000 A 
ATOM     28  C   UNL     1       1.918   8.866  17.969  0.00  0.00    +0.000 A 
ATOM     29  C   UNL     1       2.496   7.617  17.731  0.00  0.00    +0.000 A 
ATOM     30  C   UNL     1       2.627   6.698  18.767  0.00  0.00    +0.000 A 
ATOM     31  C   UNL     1       2.190   7.037  20.046  0.00  0.00    +0.000 A 
ATOM     32  C   UNL     1       1.611   8.291  20.283  0.00  0.00    +0.000 A 
ATOM     33 CL   UNL     1       1.064   8.642  21.886  0.00  0.00    +0.000 Cl
ENDBRANCH  25  27
ENDBRANCH   8  23
TORSDOF 5
ENDMDL
