MODEL 1
REMARK VINA RESULT:      -7.5      0.000      0.000
REMARK  Name = 
REMARK  6 active torsions:
REMARK  status: ('A' for Active; 'I' for Inactive)
REMARK    1  A    between atoms: C_1  and  C_2
REMARK    2  A    between atoms: C_4  and  C_5
REMARK    3  A    between atoms: C_6  and  C_7
REMARK    4  A    between atoms: C_10  and  O_11
REMARK    5  A    between atoms: O_11  and  C_12
REMARK    6  A    between atoms: C_22  and  O_23
REMARK                            x       y       z     vdW  Elec       q    Type
REMARK                         _______ _______ _______ _____ _____    ______ ____
ROOT
ATOM      1  C   UNL     1       0.570   9.957  19.416  0.00  0.00    +0.000 A 
ATOM      2  C   UNL     1       1.186   9.923  18.150  0.00  0.00    +0.000 A 
ATOM      3  C   UNL     1       2.080   8.908  17.787  0.00  0.00    +0.000 A 
ATOM      4  C   UNL     1       2.462   7.947  18.714  0.00  0.00    +0.000 A 
ATOM      5  C   UNL     1       1.882   7.945  19.978  0.00  0.00    +0.000 A 
ATOM      6  C   UNL     1       0.939   8.934  20.313  0.00  0.00    +0.000 A 
ENDROOT
BRANCH   1  12
ATOM      7  C   UNL     1      -3.379  13.962  20.869  0.00  0.00    +0.000 C 
ATOM      8  C   UNL     1      -2.308  12.958  20.560  0.00  0.00    +0.000 A 
ATOM      9  N   UNL     1      -2.593  12.101  19.554  0.00  0.00    +0.000 NA
ATOM     10  C   UNL     1      -1.687  11.146  19.200  0.00  0.00    +0.000 A 
ATOM     11  C   UNL     1      -2.203  10.249  18.109  0.00  0.00    +0.000 C 
ATOM     12  C   UNL     1      -0.414  11.017  19.798  0.00  0.00    +0.000 A 
ATOM     13  C   UNL     1      -0.153  11.951  20.834  0.00  0.00    +0.000 A 
ATOM     14  C   UNL     1      -1.104  12.904  21.240  0.00  0.00    +0.000 A 
ATOM     15 BR   UNL     1      -0.727  14.091  22.682  0.00  0.00    +0.000 Br
BRANCH  13  16
ATOM     16  O   UNL     1       1.059  11.986  21.484  0.00  0.00    +0.000 OA
ATOM     17  H   UNL     1       1.603  11.243  21.159  0.00  0.00    +0.000 HD
ENDBRANCH  13  16
ENDBRANCH   1  12
BRANCH   4  18
ATOM     18  O   UNL     1       3.352   6.997  18.273  0.00  0.00    +0.000 OA
BRANCH  18  19
ATOM     19  C   UNL     1       3.061   5.662  18.451  0.00  0.00    +0.000 A 
ATOM     20  C   UNL     1       1.889   5.211  17.843  0.00  0.00    +0.000 A 
ATOM     21  C   UNL     1       1.506   3.873  17.955  0.00  0.00    +0.000 A 
ATOM     22  C   UNL     1       2.294   2.982  18.689  0.00  0.00    +0.000 A 
ATOM     23 CL   UNL     1       1.743   1.350  18.828  0.00  0.00    +0.000 Cl
ATOM     24  C   UNL     1       3.483   3.426  19.278  0.00  0.00    +0.000 A 
ATOM     25 CL   UNL     1       4.502   2.383  20.207  0.00  0.00    +0.000 Cl
ATOM     26  C   UNL     1       3.878   4.757  19.137  0.00  0.00    +0.000 A 
ENDBRANCH  18  19
ENDBRANCH   4  18
TORSDOF 4
ENDMDL
MODEL 2
REMARK VINA RESULT:      -7.5      5.095      8.533
REMARK  Name = 
REMARK  6 active torsions:
REMARK  status: ('A' for Active; 'I' for Inactive)
REMARK    1  A    between atoms: C_1  and  C_2
REMARK    2  A    between atoms: C_4  and  C_5
REMARK    3  A    between atoms: C_6  and  C_7
REMARK    4  A    between atoms: C_10  and  O_11
REMARK    5  A    between atoms: O_11  and  C_12
REMARK    6  A    between atoms: C_22  and  O_23
REMARK                            x       y       z     vdW  Elec       q    Type
REMARK                         _______ _______ _______ _____ _____    ______ ____
ROOT
ATOM      1  C   UNL     1       2.236   7.332  19.163  0.00  0.00    +0.000 A 
ATOM      2  C   UNL     1       1.700   8.086  20.225  0.00  0.00    +0.000 A 
ATOM      3  C   UNL     1       1.139   9.354  20.026  0.00  0.00    +0.000 A 
ATOM      4  C   UNL     1       1.184   9.950  18.772  0.00  0.00    +0.000 A 
ATOM      5  C   UNL     1       1.709   9.243  17.695  0.00  0.00    +0.000 A 
ATOM      6  C   UNL     1       2.215   7.946  17.894  0.00  0.00    +0.000 A 
ENDROOT
BRANCH   1  12
ATOM      7  C   UNL     1       4.600   2.083  19.939  0.00  0.00    +0.000 C 
ATOM      8  C   UNL     1       3.925   3.415  19.794  0.00  0.00    +0.000 A 
ATOM      9  N   UNL     1       4.565   4.304  19.003  0.00  0.00    +0.000 NA
ATOM     10  C   UNL     1       4.037   5.545  18.813  0.00  0.00    +0.000 A 
ATOM     11  C   UNL     1       4.917   6.414  17.957  0.00  0.00    +0.000 C 
ATOM     12  C   UNL     1       2.804   5.963  19.363  0.00  0.00    +0.000 A 
ATOM     13  C   UNL     1       2.159   4.989  20.168  0.00  0.00    +0.000 A 
ATOM     14  C   UNL     1       2.726   3.725  20.412  0.00  0.00    +0.000 A 
ATOM     15 BR   UNL     1       1.850   2.478  21.556  0.00  0.00    +0.000 Br
BRANCH  13  16
ATOM     16  O   UNL     1       0.930   5.224  20.738  0.00  0.00    +0.000 OA
ATOM     17  H   UNL     1       1.026   5.173  21.708  0.00  0.00    +0.000 HD
ENDBRANCH  13  16
ENDBRANCH   1  12
BRANCH   4  18
ATOM     18  O   UNL     1       0.619  11.199  18.672  0.00  0.00    +0.000 OA
BRANCH  18  19
ATOM     19  C   UNL     1      -0.753  11.322  18.651  0.00  0.00    +0.000 A 
ATOM     20  C   UNL     1      -1.416  10.542  17.704  0.00  0.00    +0.000 A 
ATOM     21  C   UNL     1      -2.808  10.586  17.604  0.00  0.00    +0.000 A 
ATOM     22  C   UNL     1      -3.542  11.422  18.451  0.00  0.00    +0.000 A 
ATOM     23 CL   UNL     1      -5.258  11.465  18.248  0.00  0.00    +0.000 Cl
ATOM     24  C   UNL     1      -2.881  12.184  19.419  0.00  0.00    +0.000 A 
ATOM     25 CL   UNL     1      -3.721  13.247  20.495  0.00  0.00    +0.000 Cl
ATOM     26  C   UNL     1      -1.491  12.114  19.536  0.00  0.00    +0.000 A 
ENDBRANCH  18  19
ENDBRANCH   4  18
TORSDOF 4
ENDMDL
MODEL 3
REMARK VINA RESULT:      -7.4      4.848      8.529
REMARK  Name = 
REMARK  6 active torsions:
REMARK  status: ('A' for Active; 'I' for Inactive)
REMARK    1  A    between atoms: C_1  and  C_2
REMARK    2  A    between atoms: C_4  and  C_5
REMARK    3  A    between atoms: C_6  and  C_7
REMARK    4  A    between atoms: C_10  and  O_11
REMARK    5  A    between atoms: O_11  and  C_12
REMARK    6  A    between atoms: C_22  and  O_23
REMARK                            x       y       z     vdW  Elec       q    Type
REMARK                         _______ _______ _______ _____ _____    ______ ____
ROOT
ATOM      1  C   UNL     1       2.214   7.460  19.156  0.00  0.00    +0.000 A 
ATOM      2  C   UNL     1       1.691   8.192  20.240  0.00  0.00    +0.000 A 
ATOM      3  C   UNL     1       1.160   9.478  20.081  0.00  0.00    +0.000 A 
ATOM      4  C   UNL     1       1.222  10.112  18.847  0.00  0.00    +0.000 A 
ATOM      5  C   UNL     1       1.733   9.429  17.750  0.00  0.00    +0.000 A 
ATOM      6  C   UNL     1       2.210   8.115  17.907  0.00  0.00    +0.000 A 
ENDROOT
BRANCH   1  12
ATOM      7  C   UNL     1       4.456   2.135  19.756  0.00  0.00    +0.000 C 
ATOM      8  C   UNL     1       3.814   3.488  19.659  0.00  0.00    +0.000 A 
ATOM      9  N   UNL     1       4.444   4.369  18.851  0.00  0.00    +0.000 NA
ATOM     10  C   UNL     1       3.943   5.628  18.701  0.00  0.00    +0.000 A 
ATOM     11  C   UNL     1       4.809   6.483  17.817  0.00  0.00    +0.000 C 
ATOM     12  C   UNL     1       2.749   6.073  19.312  0.00  0.00    +0.000 A 
ATOM     13  C   UNL     1       2.114   5.106  20.133  0.00  0.00    +0.000 A 
ATOM     14  C   UNL     1       2.654   3.824  20.335  0.00  0.00    +0.000 A 
ATOM     15 BR   UNL     1       1.794   2.587  21.502  0.00  0.00    +0.000 Br
BRANCH  13  16
ATOM     16  O   UNL     1       0.919   5.369  20.761  0.00  0.00    +0.000 OA
ATOM     17  H   UNL     1       0.355   4.576  20.692  0.00  0.00    +0.000 HD
ENDBRANCH  13  16
ENDBRANCH   1  12
BRANCH   4  18
ATOM     18  O   UNL     1       0.686  11.377  18.787  0.00  0.00    +0.000 OA
BRANCH  18  19
ATOM     19  C   UNL     1      -0.682  11.534  18.827  0.00  0.00    +0.000 A 
ATOM     20  C   UNL     1      -1.174  12.295  19.888  0.00  0.00    +0.000 A 
ATOM     21  C   UNL     1      -2.546  12.522  20.017  0.00  0.00    +0.000 A 
ATOM     22  C   UNL     1      -3.433  11.977  19.085  0.00  0.00    +0.000 A 
ATOM     23 CL   UNL     1      -5.122  12.256  19.325  0.00  0.00    +0.000 Cl
ATOM     24  C   UNL     1      -2.940  11.236  18.005  0.00  0.00    +0.000 A 
ATOM     25 CL   UNL     1      -3.978  10.525  16.819  0.00  0.00    +0.000 Cl
ATOM     26  C   UNL     1      -1.566  11.038  17.863  0.00  0.00    +0.000 A 
ENDBRANCH  18  19
ENDBRANCH   4  18
TORSDOF 4
ENDMDL
MODEL 4
REMARK VINA RESULT:      -7.4      0.797      1.246
REMARK  Name = 
REMARK  6 active torsions:
REMARK  status: ('A' for Active; 'I' for Inactive)
REMARK    1  A    between atoms: C_1  and  C_2
REMARK    2  A    between atoms: C_4  and  C_5
REMARK    3  A    between atoms: C_6  and  C_7
REMARK    4  A    between atoms: C_10  and  O_11
REMARK    5  A    between atoms: O_11  and  C_12
REMARK    6  A    between atoms: C_22  and  O_23
REMARK                            x       y       z     vdW  Elec       q    Type
REMARK                         _______ _______ _______ _____ _____    ______ ____
ROOT
ATOM      1  C   UNL     1       0.398  10.192  19.674  0.00  0.00    +0.000 A 
ATOM      2  C   UNL     1       0.692   9.167  20.594  0.00  0.00    +0.000 A 
ATOM      3  C   UNL     1       1.611   8.151  20.305  0.00  0.00    +0.000 A 
ATOM      4  C   UNL     1       2.196   8.074  19.048  0.00  0.00    +0.000 A 
ATOM      5  C   UNL     1       1.931   9.063  18.107  0.00  0.00    +0.000 A 
ATOM      6  C   UNL     1       1.052  10.112  18.427  0.00  0.00    +0.000 A 
ENDROOT
BRANCH   1  12
ATOM      7  C   UNL     1      -3.438  14.387  20.867  0.00  0.00    +0.000 C 
ATOM      8  C   UNL     1      -2.398  13.334  20.626  0.00  0.00    +0.000 A 
ATOM      9  N   UNL     1      -2.679  12.462  19.633  0.00  0.00    +0.000 NA
ATOM     10  C   UNL     1      -1.800  11.462  19.339  0.00  0.00    +0.000 A 
ATOM     11  C   UNL     1      -2.310  10.556  18.252  0.00  0.00    +0.000 C 
ATOM     12  C   UNL     1      -0.556  11.300  19.989  0.00  0.00    +0.000 A 
ATOM     13  C   UNL     1      -0.297  12.251  21.010  0.00  0.00    +0.000 A 
ATOM     14  C   UNL     1      -1.223  13.251  21.354  0.00  0.00    +0.000 A 
ATOM     15 BR   UNL     1      -0.854  14.463  22.777  0.00  0.00    +0.000 Br
BRANCH  13  16
ATOM     16  O   UNL     1       0.890  12.257  21.705  0.00  0.00    +0.000 OA
ATOM     17  H   UNL     1       1.623  12.209  21.061  0.00  0.00    +0.000 HD
ENDBRANCH  13  16
ENDBRANCH   1  12
BRANCH   4  18
ATOM     18  O   UNL     1       3.078   7.038  18.851  0.00  0.00    +0.000 OA
BRANCH  18  19
ATOM     19  C   UNL     1       2.637   5.740  18.983  0.00  0.00    +0.000 A 
ATOM     20  C   UNL     1       2.073   5.172  17.840  0.00  0.00    +0.000 A 
ATOM     21  C   UNL     1       1.601   3.858  17.864  0.00  0.00    +0.000 A 
ATOM     22  C   UNL     1       1.684   3.110  19.041  0.00  0.00    +0.000 A 
ATOM     23 CL   UNL     1       1.042   1.505  19.020  0.00  0.00    +0.000 Cl
ATOM     24  C   UNL     1       2.273   3.667  20.181  0.00  0.00    +0.000 A 
ATOM     25 CL   UNL     1       2.402   2.805  21.674  0.00  0.00    +0.000 Cl
ATOM     26  C   UNL     1       2.772   4.971  20.143  0.00  0.00    +0.000 A 
ENDBRANCH  18  19
ENDBRANCH   4  18
TORSDOF 4
ENDMDL
MODEL 5
REMARK VINA RESULT:      -7.4      0.810      1.423
REMARK  Name = 
REMARK  6 active torsions:
REMARK  status: ('A' for Active; 'I' for Inactive)
REMARK    1  A    between atoms: C_1  and  C_2
REMARK    2  A    between atoms: C_4  and  C_5
REMARK    3  A    between atoms: C_6  and  C_7
REMARK    4  A    between atoms: C_10  and  O_11
REMARK    5  A    between atoms: O_11  and  C_12
REMARK    6  A    between atoms: C_22  and  O_23
REMARK                            x       y       z     vdW  Elec       q    Type
REMARK                         _______ _______ _______ _____ _____    ______ ____
ROOT
ATOM      1  C   UNL     1       0.649   9.762  19.212  0.00  0.00    +0.000 A 
ATOM      2  C   UNL     1       1.306   9.889  17.973  0.00  0.00    +0.000 A 
ATOM      3  C   UNL     1       2.273   8.969  17.549  0.00  0.00    +0.000 A 
ATOM      4  C   UNL     1       2.684   7.946  18.394  0.00  0.00    +0.000 A 
ATOM      5  C   UNL     1       2.065   7.786  19.629  0.00  0.00    +0.000 A 
ATOM      6  C   UNL     1       1.052   8.680  20.021  0.00  0.00    +0.000 A 
ENDROOT
BRANCH   1  12
ATOM      7  C   UNL     1      -3.586  13.372  20.878  0.00  0.00    +0.000 C 
ATOM      8  C   UNL     1      -2.448  12.461  20.522  0.00  0.00    +0.000 A 
ATOM      9  N   UNL     1      -2.609  11.757  19.380  0.00  0.00    +0.000 NA
ATOM     10  C   UNL     1      -1.635  10.895  18.973  0.00  0.00    +0.000 A 
ATOM     11  C   UNL     1      -2.016  10.155  17.720  0.00  0.00    +0.000 C 
ATOM     12  C   UNL     1      -0.410  10.720  19.656  0.00  0.00    +0.000 A 
ATOM     13  C   UNL     1      -0.279  11.497  20.836  0.00  0.00    +0.000 A 
ATOM     14  C   UNL     1      -1.303  12.346  21.291  0.00  0.00    +0.000 A 
ATOM     15 BR   UNL     1      -1.102  13.316  22.919  0.00  0.00    +0.000 Br
BRANCH  13  16
ATOM     16  O   UNL     1       0.872  11.474  21.589  0.00  0.00    +0.000 OA
ATOM     17  H   UNL     1       1.564  11.965  21.107  0.00  0.00    +0.000 HD
ENDBRANCH  13  16
ENDBRANCH   1  12
BRANCH   4  18
ATOM     18  O   UNL     1       3.646   7.097  17.898  0.00  0.00    +0.000 OA
BRANCH  18  19
ATOM     19  C   UNL     1       3.524   5.741  18.107  0.00  0.00    +0.000 A 
ATOM     20  C   UNL     1       4.722   5.040  18.250  0.00  0.00    +0.000 A 
ATOM     21  C   UNL     1       4.710   3.662  18.473  0.00  0.00    +0.000 A 
ATOM     22  C   UNL     1       3.494   2.977  18.544  0.00  0.00    +0.000 A 
ATOM     23 CL   UNL     1       3.548   1.266  18.778  0.00  0.00    +0.000 Cl
ATOM     24  C   UNL     1       2.291   3.682  18.428  0.00  0.00    +0.000 A 
ATOM     25 CL   UNL     1       0.749   2.901  18.496  0.00  0.00    +0.000 Cl
ATOM     26  C   UNL     1       2.307   5.065  18.235  0.00  0.00    +0.000 A 
ENDBRANCH  18  19
ENDBRANCH   4  18
TORSDOF 4
ENDMDL
MODEL 6
REMARK VINA RESULT:      -7.3      1.215      1.299
REMARK  Name = 
REMARK  6 active torsions:
REMARK  status: ('A' for Active; 'I' for Inactive)
REMARK    1  A    between atoms: C_1  and  C_2
REMARK    2  A    between atoms: C_4  and  C_5
REMARK    3  A    between atoms: C_6  and  C_7
REMARK    4  A    between atoms: C_10  and  O_11
REMARK    5  A    between atoms: O_11  and  C_12
REMARK    6  A    between atoms: C_22  and  O_23
REMARK                            x       y       z     vdW  Elec       q    Type
REMARK                         _______ _______ _______ _____ _____    ______ ____
ROOT
ATOM      1  C   UNL     1      -0.092  10.371  20.039  0.00  0.00    +0.000 A 
ATOM      2  C   UNL     1       0.668  10.264  18.858  0.00  0.00    +0.000 A 
ATOM      3  C   UNL     1       1.578   9.220  18.654  0.00  0.00    +0.000 A 
ATOM      4  C   UNL     1       1.828   8.301  19.666  0.00  0.00    +0.000 A 
ATOM      5  C   UNL     1       1.103   8.371  20.850  0.00  0.00    +0.000 A 
ATOM      6  C   UNL     1       0.147   9.389  21.022  0.00  0.00    +0.000 A 
ENDROOT
BRANCH   1  12
ATOM      7  C   UNL     1      -4.101  14.504  20.807  0.00  0.00    +0.000 C 
ATOM      8  C   UNL     1      -3.025  13.466  20.682  0.00  0.00    +0.000 A 
ATOM      9  N   UNL     1      -3.170  12.606  19.649  0.00  0.00    +0.000 NA
ATOM     10  C   UNL     1      -2.248  11.622  19.453  0.00  0.00    +0.000 A 
ATOM     11  C   UNL     1      -2.608  10.727  18.299  0.00  0.00    +0.000 C 
ATOM     12  C   UNL     1      -1.092  11.463  20.250  0.00  0.00    +0.000 A 
ATOM     13  C   UNL     1      -0.974  12.402  21.307  0.00  0.00    +0.000 A 
ATOM     14  C   UNL     1      -1.949  13.386  21.548  0.00  0.00    +0.000 A 
ATOM     15 BR   UNL     1      -1.773  14.579  23.022  0.00  0.00    +0.000 Br
BRANCH  13  16
ATOM     16  O   UNL     1       0.118  12.410  22.144  0.00  0.00    +0.000 OA
ATOM     17  H   UNL     1       0.882  12.761  21.648  0.00  0.00    +0.000 HD
ENDBRANCH  13  16
ENDBRANCH   1  12
BRANCH   4  18
ATOM     18  O   UNL     1       2.744   7.317  19.380  0.00  0.00    +0.000 OA
BRANCH  18  19
ATOM     19  C   UNL     1       2.329   6.005  19.311  0.00  0.00    +0.000 A 
ATOM     20  C   UNL     1       2.122   5.501  18.027  0.00  0.00    +0.000 A 
ATOM     21  C   UNL     1       1.708   4.180  17.846  0.00  0.00    +0.000 A 
ATOM     22  C   UNL     1       1.490   3.360  18.956  0.00  0.00    +0.000 A 
ATOM     23 CL   UNL     1       0.935   1.749  18.668  0.00  0.00    +0.000 Cl
ATOM     24  C   UNL     1       1.722   3.854  20.244  0.00  0.00    +0.000 A 
ATOM     25 CL   UNL     1       1.465   2.901  21.663  0.00  0.00    +0.000 Cl
ATOM     26  C   UNL     1       2.166   5.166  20.419  0.00  0.00    +0.000 A 
ENDBRANCH  18  19
ENDBRANCH   4  18
TORSDOF 4
ENDMDL
MODEL 7
REMARK VINA RESULT:      -7.1      2.158      2.610
REMARK  Name = 
REMARK  6 active torsions:
REMARK  status: ('A' for Active; 'I' for Inactive)
REMARK    1  A    between atoms: C_1  and  C_2
REMARK    2  A    between atoms: C_4  and  C_5
REMARK    3  A    between atoms: C_6  and  C_7
REMARK    4  A    between atoms: C_10  and  O_11
REMARK    5  A    between atoms: O_11  and  C_12
REMARK    6  A    between atoms: C_22  and  O_23
REMARK                            x       y       z     vdW  Elec       q    Type
REMARK                         _______ _______ _______ _____ _____    ______ ____
ROOT
ATOM      1  C   UNL     1       0.950   9.512  19.749  0.00  0.00    +0.000 A 
ATOM      2  C   UNL     1       0.890   8.608  20.828  0.00  0.00    +0.000 A 
ATOM      3  C   UNL     1       1.528   7.362  20.788  0.00  0.00    +0.000 A 
ATOM      4  C   UNL     1       2.165   6.939  19.628  0.00  0.00    +0.000 A 
ATOM      5  C   UNL     1       2.245   7.798  18.537  0.00  0.00    +0.000 A 
ATOM      6  C   UNL     1       1.653   9.072  18.609  0.00  0.00    +0.000 A 
ENDROOT
BRANCH   1  12
ATOM      7  C   UNL     1      -1.720  14.667  19.932  0.00  0.00    +0.000 C 
ATOM      8  C   UNL     1      -0.973  13.367  19.945  0.00  0.00    +0.000 A 
ATOM      9  N   UNL     1      -1.490  12.397  19.158  0.00  0.00    +0.000 NA
ATOM     10  C   UNL     1      -0.887  11.175  19.105  0.00  0.00    +0.000 A 
ATOM     11  C   UNL     1      -1.637  10.208  18.230  0.00  0.00    +0.000 C 
ATOM     12  C   UNL     1       0.302  10.859  19.799  0.00  0.00    +0.000 A 
ATOM     13  C   UNL     1       0.817  11.915  20.594  0.00  0.00    +0.000 A 
ATOM     14  C   UNL     1       0.171  13.160  20.696  0.00  0.00    +0.000 A 
ATOM     15 BR   UNL     1       0.870  14.521  21.830  0.00  0.00    +0.000 Br
BRANCH  13  16
ATOM     16  O   UNL     1       1.993  11.782  21.295  0.00  0.00    +0.000 OA
ATOM     17  H   UNL     1       2.254  10.841  21.280  0.00  0.00    +0.000 HD
ENDBRANCH  13  16
ENDBRANCH   1  12
BRANCH   4  18
ATOM     18  O   UNL     1       2.754   5.697  19.677  0.00  0.00    +0.000 OA
BRANCH  18  19
ATOM     19  C   UNL     1       3.850   5.437  18.885  0.00  0.00    +0.000 A 
ATOM     20  C   UNL     1       3.576   4.882  17.635  0.00  0.00    +0.000 A 
ATOM     21  C   UNL     1       4.617   4.587  16.751  0.00  0.00    +0.000 A 
ATOM     22  C   UNL     1       5.940   4.837  17.124  0.00  0.00    +0.000 A 
ATOM     23 CL   UNL     1       7.185   4.409  16.004  0.00  0.00    +0.000 Cl
ATOM     24  C   UNL     1       6.215   5.418  18.366  0.00  0.00    +0.000 A 
ATOM     25 CL   UNL     1       7.827   5.749  18.898  0.00  0.00    +0.000 Cl
ATOM     26  C   UNL     1       5.170   5.740  19.234  0.00  0.00    +0.000 A 
ENDBRANCH  18  19
ENDBRANCH   4  18
TORSDOF 4
ENDMDL
MODEL 8
REMARK VINA RESULT:      -7.1      5.135      8.545
REMARK  Name = 
REMARK  6 active torsions:
REMARK  status: ('A' for Active; 'I' for Inactive)
REMARK    1  A    between atoms: C_1  and  C_2
REMARK    2  A    between atoms: C_4  and  C_5
REMARK    3  A    between atoms: C_6  and  C_7
REMARK    4  A    between atoms: C_10  and  O_11
REMARK    5  A    between atoms: O_11  and  C_12
REMARK    6  A    between atoms: C_22  and  O_23
REMARK                            x       y       z     vdW  Elec       q    Type
REMARK                         _______ _______ _______ _____ _____    ______ ____
ROOT
ATOM      1  C   UNL     1       2.241   7.411  19.082  0.00  0.00    +0.000 A 
ATOM      2  C   UNL     1       2.073   8.087  17.857  0.00  0.00    +0.000 A 
ATOM      3  C   UNL     1       1.436   9.332  17.778  0.00  0.00    +0.000 A 
ATOM      4  C   UNL     1       0.862   9.896  18.910  0.00  0.00    +0.000 A 
ATOM      5  C   UNL     1       1.000   9.261  20.139  0.00  0.00    +0.000 A 
ATOM      6  C   UNL     1       1.693   8.040  20.218  0.00  0.00    +0.000 A 
ENDROOT
BRANCH   1  12
ATOM      7  C   UNL     1       4.848   2.233  19.451  0.00  0.00    +0.000 C 
ATOM      8  C   UNL     1       4.240   3.596  19.302  0.00  0.00    +0.000 A 
ATOM      9  N   UNL     1       3.060   3.774  19.936  0.00  0.00    +0.000 NA
ATOM     10  C   UNL     1       2.423   4.977  19.856  0.00  0.00    +0.000 A 
ATOM     11  C   UNL     1       1.098   4.968  20.568  0.00  0.00    +0.000 C 
ATOM     12  C   UNL     1       2.952   6.098  19.178  0.00  0.00    +0.000 A 
ATOM     13  C   UNL     1       4.202   5.868  18.548  0.00  0.00    +0.000 A 
ATOM     14  C   UNL     1       4.838   4.615  18.580  0.00  0.00    +0.000 A 
ATOM     15 BR   UNL     1       6.483   4.342  17.660  0.00  0.00    +0.000 Br
BRANCH  13  16
ATOM     16  O   UNL     1       4.870   6.872  17.885  0.00  0.00    +0.000 OA
ATOM     17  H   UNL     1       4.598   6.856  16.948  0.00  0.00    +0.000 HD
ENDBRANCH  13  16
ENDBRANCH   1  12
BRANCH   4  18
ATOM     18  O   UNL     1       0.249  11.115  18.736  0.00  0.00    +0.000 OA
BRANCH  18  19
ATOM     19  C   UNL     1      -1.120  11.169  18.593  0.00  0.00    +0.000 A 
ATOM     20  C   UNL     1      -1.661  10.325  17.623  0.00  0.00    +0.000 A 
ATOM     21  C   UNL     1      -3.040  10.297  17.402  0.00  0.00    +0.000 A 
ATOM     22  C   UNL     1      -3.882  11.126  18.149  0.00  0.00    +0.000 A 
ATOM     23 CL   UNL     1      -5.574  11.077  17.799  0.00  0.00    +0.000 Cl
ATOM     24  C   UNL     1      -3.344  11.954  19.140  0.00  0.00    +0.000 A 
ATOM     25 CL   UNL     1      -4.323  13.011  20.097  0.00  0.00    +0.000 Cl
ATOM     26  C   UNL     1      -1.969  11.956  19.378  0.00  0.00    +0.000 A 
ENDBRANCH  18  19
ENDBRANCH   4  18
TORSDOF 4
ENDMDL
MODEL 9
REMARK VINA RESULT:      -7.1      4.842      8.484
REMARK  Name = 
REMARK  6 active torsions:
REMARK  status: ('A' for Active; 'I' for Inactive)
REMARK    1  A    between atoms: C_1  and  C_2
REMARK    2  A    between atoms: C_4  and  C_5
REMARK    3  A    between atoms: C_6  and  C_7
REMARK    4  A    between atoms: C_10  and  O_11
REMARK    5  A    between atoms: O_11  and  C_12
REMARK    6  A    between atoms: C_22  and  O_23
REMARK                            x       y       z     vdW  Elec       q    Type
REMARK                         _______ _______ _______ _____ _____    ______ ____
ROOT
ATOM      1  C   UNL     1       2.194   7.404  19.143  0.00  0.00    +0.000 A 
ATOM      2  C   UNL     1       1.999   8.096  17.932  0.00  0.00    +0.000 A 
ATOM      3  C   UNL     1       1.361   9.342  17.883  0.00  0.00    +0.000 A 
ATOM      4  C   UNL     1       0.813   9.892  19.035  0.00  0.00    +0.000 A 
ATOM      5  C   UNL     1       0.978   9.241  20.252  0.00  0.00    +0.000 A 
ATOM      6  C   UNL     1       1.672   8.018  20.300  0.00  0.00    +0.000 A 
ENDROOT
BRANCH   1  12
ATOM      7  C   UNL     1       4.806   2.221  19.380  0.00  0.00    +0.000 C 
ATOM      8  C   UNL     1       4.198   3.587  19.268  0.00  0.00    +0.000 A 
ATOM      9  N   UNL     1       3.008   3.743  19.889  0.00  0.00    +0.000 NA
ATOM     10  C   UNL     1       2.370   4.946  19.840  0.00  0.00    +0.000 A 
ATOM     11  C   UNL     1       1.034   4.911  20.531  0.00  0.00    +0.000 C 
ATOM     12  C   UNL     1       2.906   6.090  19.207  0.00  0.00    +0.000 A 
ATOM     13  C   UNL     1       4.166   5.883  18.588  0.00  0.00    +0.000 A 
ATOM     14  C   UNL     1       4.804   4.630  18.588  0.00  0.00    +0.000 A 
ATOM     15 BR   UNL     1       6.463   4.391  17.684  0.00  0.00    +0.000 Br
BRANCH  13  16
ATOM     16  O   UNL     1       4.841   6.909  17.970  0.00  0.00    +0.000 OA
ATOM     17  H   UNL     1       4.191   7.464  17.498  0.00  0.00    +0.000 HD
ENDBRANCH  13  16
ENDBRANCH   1  12
BRANCH   4  18
ATOM     18  O   UNL     1       0.196  11.113  18.890  0.00  0.00    +0.000 OA
BRANCH  18  19
ATOM     19  C   UNL     1      -1.117  11.163  18.480  0.00  0.00    +0.000 A 
ATOM     20  C   UNL     1      -1.995  11.828  19.336  0.00  0.00    +0.000 A 
ATOM     21  C   UNL     1      -3.348  11.943  19.010  0.00  0.00    +0.000 A 
ATOM     22  C   UNL     1      -3.829  11.380  17.825  0.00  0.00    +0.000 A 
ATOM     23 CL   UNL     1      -5.521  11.518  17.499  0.00  0.00    +0.000 Cl
ATOM     24  C   UNL     1      -2.946  10.736  16.951  0.00  0.00    +0.000 A 
ATOM     25 CL   UNL     1      -3.471  10.009  15.473  0.00  0.00    +0.000 Cl
ATOM     26  C   UNL     1      -1.589  10.651  17.267  0.00  0.00    +0.000 A 
ENDBRANCH  18  19
ENDBRANCH   4  18
TORSDOF 4
ENDMDL
