MODEL 1
REMARK VINA RESULT:      -7.6      0.000      0.000
REMARK  Name = 
REMARK  14 active torsions:
REMARK  status: ('A' for Active; 'I' for Inactive)
REMARK    1  A    between atoms: C_1  and  N_2
REMARK    2  A    between atoms: N_2  and  C_3
REMARK    3  A    between atoms: N_2  and  C_4
REMARK    4  A    between atoms: C_4  and  C_5
REMARK    5  A    between atoms: C_5  and  C_6
REMARK    6  A    between atoms: C_6  and  N_7
REMARK    7  A    between atoms: N_7  and  C_8
REMARK    8  A    between atoms: C_8  and  C_9
REMARK    9  A    between atoms: C_12  and  C_13
REMARK   10  A    between atoms: C_16  and  C_17
REMARK   11  A    between atoms: C_17  and  N_18
REMARK   12  A    between atoms: N_18  and  C_19
REMARK   13  A    between atoms: C_19  and  C_20
REMARK   14  A    between atoms: C_20  and  C_21
REMARK                            x       y       z     vdW  Elec       q    Type
REMARK                         _______ _______ _______ _____ _____    ______ ____
ROOT
ATOM      1  C   UNL     1       2.511   7.609  18.855  0.00  0.00    +0.000 A 
ATOM      2  C   UNL     1       3.344   7.651  17.724  0.00  0.00    +0.000 A 
ATOM      3  C   UNL     1       4.303   6.669  17.500  0.00  0.00    +0.000 A 
ATOM      4  C   UNL     1       4.471   5.625  18.415  0.00  0.00    +0.000 A 
ATOM      5  C   UNL     1       3.656   5.566  19.545  0.00  0.00    +0.000 A 
ATOM      6  C   UNL     1       2.683   6.541  19.754  0.00  0.00    +0.000 A 
ENDROOT
BRANCH   1  10
ATOM      7  C   UNL     1      -0.463  10.648  19.520  0.00  0.00    +0.000 A 
ATOM      8  C   UNL     1       0.057  10.428  18.241  0.00  0.00    +0.000 A 
ATOM      9  C   UNL     1       1.001   9.429  18.027  0.00  0.00    +0.000 A 
ATOM     10  C   UNL     1       1.493   8.650  19.086  0.00  0.00    +0.000 A 
ATOM     11  C   UNL     1       0.990   8.906  20.372  0.00  0.00    +0.000 A 
ATOM     12  C   UNL     1       0.018   9.885  20.589  0.00  0.00    +0.000 A 
BRANCH   7  13
ATOM     13  C   UNL     1      -1.544  11.679  19.705  0.00  0.00    +0.000 C 
BRANCH  13  14
ATOM     14  N   UNL     1      -2.270  11.854  18.448  0.00  0.00    +0.000 NA
ATOM     15  H   UNL     1      -2.070  12.775  18.065  0.00  0.00    +0.000 HD
BRANCH  14  16
ATOM     16  C   UNL     1      -3.712  11.728  18.649  0.00  0.00    +0.000 C 
BRANCH  16  17
ATOM     17  C   UNL     1      -4.300  10.992  17.446  0.00  0.00    +0.000 C 
BRANCH  17  18
ATOM     18  C   UNL     1      -3.733  11.498  16.117  0.00  0.00    +0.000 C 
BRANCH  18  20
ATOM     19  C   UNL     1      -2.690   9.294  16.162  0.00  0.00    +0.000 C 
ATOM     20  N   UNL     1      -2.946  10.500  15.372  0.00  0.00    +0.000 NA
ATOM     21  C   UNL     1      -3.635  10.146  14.128  0.00  0.00    +0.000 C 
ENDBRANCH  18  20
ENDBRANCH  17  18
ENDBRANCH  16  17
ENDBRANCH  14  16
ENDBRANCH  13  14
ENDBRANCH   7  13
ENDBRANCH   1  10
BRANCH   4  22
ATOM     22  C   UNL     1       5.486   4.553  18.150  0.00  0.00    +0.000 C 
BRANCH  22  23
ATOM     23  N   UNL     1       5.108   3.755  16.986  0.00  0.00    +0.000 NA
ATOM     24  H   UNL     1       5.687   2.915  16.970  0.00  0.00    +0.000 HD
BRANCH  23  25
ATOM     25  C   UNL     1       3.697   3.375  17.024  0.00  0.00    +0.000 C 
BRANCH  25  26
ATOM     26  C   UNL     1       3.451   2.112  17.857  0.00  0.00    +0.000 C 
BRANCH  26  27
ATOM     27  C   UNL     1       2.694   2.423  19.117  0.00  0.00    +0.000 A 
ATOM     28  C   UNL     1       1.366   2.862  19.048  0.00  0.00    +0.000 A 
ATOM     29  C   UNL     1       0.669   3.164  20.217  0.00  0.00    +0.000 A 
ATOM     30  C   UNL     1       1.296   3.034  21.452  0.00  0.00    +0.000 A 
ATOM     31  C   UNL     1       2.619   2.604  21.524  0.00  0.00    +0.000 A 
ATOM     32  C   UNL     1       3.321   2.301  20.358  0.00  0.00    +0.000 A 
ENDBRANCH  26  27
ENDBRANCH  25  26
ENDBRANCH  23  25
ENDBRANCH  22  23
ENDBRANCH   4  22
TORSDOF 12
ENDMDL
MODEL 2
REMARK VINA RESULT:      -7.4      2.533      3.788
REMARK  Name = 
REMARK  14 active torsions:
REMARK  status: ('A' for Active; 'I' for Inactive)
REMARK    1  A    between atoms: C_1  and  N_2
REMARK    2  A    between atoms: N_2  and  C_3
REMARK    3  A    between atoms: N_2  and  C_4
REMARK    4  A    between atoms: C_4  and  C_5
REMARK    5  A    between atoms: C_5  and  C_6
REMARK    6  A    between atoms: C_6  and  N_7
REMARK    7  A    between atoms: N_7  and  C_8
REMARK    8  A    between atoms: C_8  and  C_9
REMARK    9  A    between atoms: C_12  and  C_13
REMARK   10  A    between atoms: C_16  and  C_17
REMARK   11  A    between atoms: C_17  and  N_18
REMARK   12  A    between atoms: N_18  and  C_19
REMARK   13  A    between atoms: C_19  and  C_20
REMARK   14  A    between atoms: C_20  and  C_21
REMARK                            x       y       z     vdW  Elec       q    Type
REMARK                         _______ _______ _______ _____ _____    ______ ____
ROOT
ATOM      1  C   UNL     1       1.177   8.903  20.029  0.00  0.00    +0.000 A 
ATOM      2  C   UNL     1       1.460   9.283  18.706  0.00  0.00    +0.000 A 
ATOM      3  C   UNL     1       2.236   8.480  17.878  0.00  0.00    +0.000 A 
ATOM      4  C   UNL     1       2.772   7.280  18.358  0.00  0.00    +0.000 A 
ATOM      5  C   UNL     1       2.504   6.886  19.668  0.00  0.00    +0.000 A 
ATOM      6  C   UNL     1       1.708   7.684  20.487  0.00  0.00    +0.000 A 
ENDROOT
BRANCH   1  10
ATOM      7  C   UNL     1      -1.235  11.387  22.585  0.00  0.00    +0.000 A 
ATOM      8  C   UNL     1      -0.693  10.190  23.061  0.00  0.00    +0.000 A 
ATOM      9  C   UNL     1       0.105   9.402  22.239  0.00  0.00    +0.000 A 
ATOM     10  C   UNL     1       0.349   9.755  20.902  0.00  0.00    +0.000 A 
ATOM     11  C   UNL     1      -0.232  10.941  20.425  0.00  0.00    +0.000 A 
ATOM     12  C   UNL     1      -1.007  11.755  21.255  0.00  0.00    +0.000 A 
BRANCH   7  13
ATOM     13  C   UNL     1      -2.025  12.259  23.524  0.00  0.00    +0.000 C 
BRANCH  13  14
ATOM     14  N   UNL     1      -3.438  11.888  23.461  0.00  0.00    +0.000 NA
ATOM     15  H   UNL     1      -3.781  12.016  22.511  0.00  0.00    +0.000 HD
BRANCH  14  16
ATOM     16  C   UNL     1      -4.240  12.703  24.369  0.00  0.00    +0.000 C 
BRANCH  16  17
ATOM     17  C   UNL     1      -5.025  13.716  23.536  0.00  0.00    +0.000 C 
BRANCH  17  18
ATOM     18  C   UNL     1      -5.520  13.126  22.213  0.00  0.00    +0.000 C 
BRANCH  18  20
ATOM     19  C   UNL     1      -3.933  14.762  21.345  0.00  0.00    +0.000 C 
ATOM     20  N   UNL     1      -4.948  13.761  21.012  0.00  0.00    +0.000 NA
ATOM     21  C   UNL     1      -4.375  12.741  20.131  0.00  0.00    +0.000 C 
ENDBRANCH  18  20
ENDBRANCH  17  18
ENDBRANCH  16  17
ENDBRANCH  14  16
ENDBRANCH  13  14
ENDBRANCH   7  13
ENDBRANCH   1  10
BRANCH   4  22
ATOM     22  C   UNL     1       3.582   6.405  17.448  0.00  0.00    +0.000 C 
BRANCH  22  23
ATOM     23  N   UNL     1       4.420   5.489  18.218  0.00  0.00    +0.000 NA
ATOM     24  H   UNL     1       3.980   5.337  19.127  0.00  0.00    +0.000 HD
BRANCH  23  25
ATOM     25  C   UNL     1       4.588   4.205  17.537  0.00  0.00    +0.000 C 
BRANCH  25  26
ATOM     26  C   UNL     1       3.277   3.415  17.444  0.00  0.00    +0.000 C 
BRANCH  26  27
ATOM     27  C   UNL     1       2.644   3.239  18.795  0.00  0.00    +0.000 A 
ATOM     28  C   UNL     1       1.272   3.467  18.964  0.00  0.00    +0.000 A 
ATOM     29  C   UNL     1       0.689   3.319  20.221  0.00  0.00    +0.000 A 
ATOM     30  C   UNL     1       1.472   2.948  21.309  0.00  0.00    +0.000 A 
ATOM     31  C   UNL     1       2.838   2.727  21.148  0.00  0.00    +0.000 A 
ATOM     32  C   UNL     1       3.426   2.875  19.893  0.00  0.00    +0.000 A 
ENDBRANCH  26  27
ENDBRANCH  25  26
ENDBRANCH  23  25
ENDBRANCH  22  23
ENDBRANCH   4  22
TORSDOF 12
ENDMDL
MODEL 3
REMARK VINA RESULT:      -7.4      2.738      3.761
REMARK  Name = 
REMARK  14 active torsions:
REMARK  status: ('A' for Active; 'I' for Inactive)
REMARK    1  A    between atoms: C_1  and  N_2
REMARK    2  A    between atoms: N_2  and  C_3
REMARK    3  A    between atoms: N_2  and  C_4
REMARK    4  A    between atoms: C_4  and  C_5
REMARK    5  A    between atoms: C_5  and  C_6
REMARK    6  A    between atoms: C_6  and  N_7
REMARK    7  A    between atoms: N_7  and  C_8
REMARK    8  A    between atoms: C_8  and  C_9
REMARK    9  A    between atoms: C_12  and  C_13
REMARK   10  A    between atoms: C_16  and  C_17
REMARK   11  A    between atoms: C_17  and  N_18
REMARK   12  A    between atoms: N_18  and  C_19
REMARK   13  A    between atoms: C_19  and  C_20
REMARK   14  A    between atoms: C_20  and  C_21
REMARK                            x       y       z     vdW  Elec       q    Type
REMARK                         _______ _______ _______ _____ _____    ______ ____
ROOT
ATOM      1  C   UNL     1       1.292   8.775  19.938  0.00  0.00    +0.000 A 
ATOM      2  C   UNL     1       1.659   9.149  18.634  0.00  0.00    +0.000 A 
ATOM      3  C   UNL     1       2.463   8.329  17.851  0.00  0.00    +0.000 A 
ATOM      4  C   UNL     1       2.944   7.117  18.360  0.00  0.00    +0.000 A 
ATOM      5  C   UNL     1       2.593   6.730  19.652  0.00  0.00    +0.000 A 
ATOM      6  C   UNL     1       1.769   7.546  20.425  0.00  0.00    +0.000 A 
ENDROOT
BRANCH   1  10
ATOM      7  C   UNL     1      -1.208  11.314  22.352  0.00  0.00    +0.000 A 
ATOM      8  C   UNL     1      -0.563  10.209  22.913  0.00  0.00    +0.000 A 
ATOM      9  C   UNL     1       0.263   9.405  22.134  0.00  0.00    +0.000 A 
ATOM     10  C   UNL     1       0.434   9.646  20.762  0.00  0.00    +0.000 A 
ATOM     11  C   UNL     1      -0.250  10.738  20.203  0.00  0.00    +0.000 A 
ATOM     12  C   UNL     1      -1.054  11.570  20.985  0.00  0.00    +0.000 A 
BRANCH   7  13
ATOM     13  C   UNL     1      -2.028  12.213  23.239  0.00  0.00    +0.000 C 
BRANCH  13  14
ATOM     14  N   UNL     1      -2.832  13.112  22.411  0.00  0.00    +0.000 NA
ATOM     15  H   UNL     1      -2.260  13.896  22.106  0.00  0.00    +0.000 HD
BRANCH  14  16
ATOM     16  C   UNL     1      -3.982  13.624  23.152  0.00  0.00    +0.000 C 
BRANCH  16  17
ATOM     17  C   UNL     1      -5.160  13.740  22.186  0.00  0.00    +0.000 C 
BRANCH  17  18
ATOM     18  C   UNL     1      -5.311  12.501  21.298  0.00  0.00    +0.000 C 
BRANCH  18  20
ATOM     19  C   UNL     1      -7.395  12.338  22.554  0.00  0.00    +0.000 C 
ATOM     20  N   UNL     1      -6.593  11.792  21.458  0.00  0.00    +0.000 NA
ATOM     21  C   UNL     1      -7.353  11.842  20.207  0.00  0.00    +0.000 C 
ENDBRANCH  18  20
ENDBRANCH  17  18
ENDBRANCH  16  17
ENDBRANCH  14  16
ENDBRANCH  13  14
ENDBRANCH   7  13
ENDBRANCH   1  10
BRANCH   4  22
ATOM     22  C   UNL     1       3.786   6.225  17.498  0.00  0.00    +0.000 C 
BRANCH  22  23
ATOM     23  N   UNL     1       4.907   5.674  18.257  0.00  0.00    +0.000 NA
ATOM     24  H   UNL     1       4.757   5.879  19.246  0.00  0.00    +0.000 HD
BRANCH  23  25
ATOM     25  C   UNL     1       5.030   4.229  18.071  0.00  0.00    +0.000 C 
BRANCH  25  26
ATOM     26  C   UNL     1       3.696   3.568  17.706  0.00  0.00    +0.000 C 
BRANCH  26  27
ATOM     27  C   UNL     1       2.859   3.310  18.925  0.00  0.00    +0.000 A 
ATOM     28  C   UNL     1       3.470   2.961  20.137  0.00  0.00    +0.000 A 
ATOM     29  C   UNL     1       2.691   2.706  21.264  0.00  0.00    +0.000 A 
ATOM     30  C   UNL     1       1.305   2.795  21.184  0.00  0.00    +0.000 A 
ATOM     31  C   UNL     1       0.692   3.135  19.980  0.00  0.00    +0.000 A 
ATOM     32  C   UNL     1       1.467   3.390  18.850  0.00  0.00    +0.000 A 
ENDBRANCH  26  27
ENDBRANCH  25  26
ENDBRANCH  23  25
ENDBRANCH  22  23
ENDBRANCH   4  22
TORSDOF 12
ENDMDL
MODEL 4
REMARK VINA RESULT:      -7.4      5.209      8.577
REMARK  Name = 
REMARK  14 active torsions:
REMARK  status: ('A' for Active; 'I' for Inactive)
REMARK    1  A    between atoms: C_1  and  N_2
REMARK    2  A    between atoms: N_2  and  C_3
REMARK    3  A    between atoms: N_2  and  C_4
REMARK    4  A    between atoms: C_4  and  C_5
REMARK    5  A    between atoms: C_5  and  C_6
REMARK    6  A    between atoms: C_6  and  N_7
REMARK    7  A    between atoms: N_7  and  C_8
REMARK    8  A    between atoms: C_8  and  C_9
REMARK    9  A    between atoms: C_12  and  C_13
REMARK   10  A    between atoms: C_16  and  C_17
REMARK   11  A    between atoms: C_17  and  N_18
REMARK   12  A    between atoms: N_18  and  C_19
REMARK   13  A    between atoms: C_19  and  C_20
REMARK   14  A    between atoms: C_20  and  C_21
REMARK                            x       y       z     vdW  Elec       q    Type
REMARK                         _______ _______ _______ _____ _____    ______ ____
ROOT
ATOM      1  C   UNL     1       5.837   5.106  17.988  0.00  0.00    +0.000 A 
ATOM      2  C   UNL     1       5.522   4.397  19.159  0.00  0.00    +0.000 A 
ATOM      3  C   UNL     1       4.774   3.225  19.112  0.00  0.00    +0.000 A 
ATOM      4  C   UNL     1       4.298   2.741  17.888  0.00  0.00    +0.000 A 
ATOM      5  C   UNL     1       4.598   3.432  16.715  0.00  0.00    +0.000 A 
ATOM      6  C   UNL     1       5.366   4.594  16.767  0.00  0.00    +0.000 A 
ENDROOT
BRANCH   1  10
ATOM      7  C   UNL     1       8.175   8.716  18.154  0.00  0.00    +0.000 A 
ATOM      8  C   UNL     1       8.538   7.597  18.908  0.00  0.00    +0.000 A 
ATOM      9  C   UNL     1       7.793   6.425  18.834  0.00  0.00    +0.000 A 
ATOM     10  C   UNL     1       6.636   6.344  18.044  0.00  0.00    +0.000 A 
ATOM     11  C   UNL     1       6.260   7.488  17.320  0.00  0.00    +0.000 A 
ATOM     12  C   UNL     1       7.022   8.658  17.364  0.00  0.00    +0.000 A 
BRANCH   7  13
ATOM     13  C   UNL     1       9.048   9.941  18.192  0.00  0.00    +0.000 C 
BRANCH  13  14
ATOM     14  N   UNL     1       9.529  10.155  19.556  0.00  0.00    +0.000 NA
ATOM     15  H   UNL     1       8.762  10.023  20.211  0.00  0.00    +0.000 HD
BRANCH  14  16
ATOM     16  C   UNL     1      10.068  11.502  19.722  0.00  0.00    +0.000 C 
BRANCH  16  17
ATOM     17  C   UNL     1      11.186  11.700  18.700  0.00  0.00    +0.000 C 
BRANCH  17  18
ATOM     18  C   UNL     1      11.744  13.126  18.713  0.00  0.00    +0.000 C 
BRANCH  18  20
ATOM     19  C   UNL     1      10.051  14.692  17.921  0.00  0.00    +0.000 C 
ATOM     20  N   UNL     1      11.281  13.969  17.596  0.00  0.00    +0.000 NA
ATOM     21  C   UNL     1      12.333  14.915  17.215  0.00  0.00    +0.000 C 
ENDBRANCH  18  20
ENDBRANCH  17  18
ENDBRANCH  16  17
ENDBRANCH  14  16
ENDBRANCH  13  14
ENDBRANCH   7  13
ENDBRANCH   1  10
BRANCH   4  22
ATOM     22  C   UNL     1       3.517   1.462  17.842  0.00  0.00    +0.000 C 
BRANCH  22  23
ATOM     23  N   UNL     1       2.083   1.730  17.766  0.00  0.00    +0.000 NA
ATOM     24  H   UNL     1       1.639   0.965  17.257  0.00  0.00    +0.000 HD
BRANCH  23  25
ATOM     25  C   UNL     1       1.482   1.846  19.094  0.00  0.00    +0.000 C 
BRANCH  25  26
ATOM     26  C   UNL     1       0.528   3.042  19.203  0.00  0.00    +0.000 C 
BRANCH  26  27
ATOM     27  C   UNL     1       1.279   4.343  19.220  0.00  0.00    +0.000 A 
ATOM     28  C   UNL     1       1.599   4.986  18.017  0.00  0.00    +0.000 A 
ATOM     29  C   UNL     1       2.308   6.186  18.033  0.00  0.00    +0.000 A 
ATOM     30  C   UNL     1       2.703   6.742  19.246  0.00  0.00    +0.000 A 
ATOM     31  C   UNL     1       2.393   6.103  20.444  0.00  0.00    +0.000 A 
ATOM     32  C   UNL     1       1.685   4.902  20.433  0.00  0.00    +0.000 A 
ENDBRANCH  26  27
ENDBRANCH  25  26
ENDBRANCH  23  25
ENDBRANCH  22  23
ENDBRANCH   4  22
TORSDOF 12
ENDMDL
MODEL 5
REMARK VINA RESULT:      -7.2      2.353      3.247
REMARK  Name = 
REMARK  14 active torsions:
REMARK  status: ('A' for Active; 'I' for Inactive)
REMARK    1  A    between atoms: C_1  and  N_2
REMARK    2  A    between atoms: N_2  and  C_3
REMARK    3  A    between atoms: N_2  and  C_4
REMARK    4  A    between atoms: C_4  and  C_5
REMARK    5  A    between atoms: C_5  and  C_6
REMARK    6  A    between atoms: C_6  and  N_7
REMARK    7  A    between atoms: N_7  and  C_8
REMARK    8  A    between atoms: C_8  and  C_9
REMARK    9  A    between atoms: C_12  and  C_13
REMARK   10  A    between atoms: C_16  and  C_17
REMARK   11  A    between atoms: C_17  and  N_18
REMARK   12  A    between atoms: N_18  and  C_19
REMARK   13  A    between atoms: C_19  and  C_20
REMARK   14  A    between atoms: C_20  and  C_21
REMARK                            x       y       z     vdW  Elec       q    Type
REMARK                         _______ _______ _______ _____ _____    ______ ____
ROOT
ATOM      1  C   UNL     1       1.387   8.571  19.960  0.00  0.00    +0.000 A 
ATOM      2  C   UNL     1       1.870   7.331  20.411  0.00  0.00    +0.000 A 
ATOM      3  C   UNL     1       2.663   6.529  19.599  0.00  0.00    +0.000 A 
ATOM      4  C   UNL     1       2.979   6.936  18.298  0.00  0.00    +0.000 A 
ATOM      5  C   UNL     1       2.508   8.162  17.831  0.00  0.00    +0.000 A 
ATOM      6  C   UNL     1       1.731   8.971  18.657  0.00  0.00    +0.000 A 
ENDROOT
BRANCH   1  10
ATOM      7  C   UNL     1      -1.061  11.051  22.486  0.00  0.00    +0.000 A 
ATOM      8  C   UNL     1      -0.952  11.316  21.118  0.00  0.00    +0.000 A 
ATOM      9  C   UNL     1      -0.179  10.497  20.301  0.00  0.00    +0.000 A 
ATOM     10  C   UNL     1       0.550   9.419  20.828  0.00  0.00    +0.000 A 
ATOM     11  C   UNL     1       0.463   9.187  22.211  0.00  0.00    +0.000 A 
ATOM     12  C   UNL     1      -0.338   9.985  23.031  0.00  0.00    +0.000 A 
BRANCH   7  13
ATOM     13  C   UNL     1      -1.971  11.905  23.328  0.00  0.00    +0.000 C 
BRANCH  13  14
ATOM     14  N   UNL     1      -3.146  12.283  22.545  0.00  0.00    +0.000 NA
ATOM     15  H   UNL     1      -3.046  11.937  21.594  0.00  0.00    +0.000 HD
BRANCH  14  16
ATOM     16  C   UNL     1      -3.311  13.734  22.507  0.00  0.00    +0.000 C 
BRANCH  16  17
ATOM     17  C   UNL     1      -3.606  14.145  21.066  0.00  0.00    +0.000 C 
BRANCH  17  18
ATOM     18  C   UNL     1      -4.257  13.019  20.258  0.00  0.00    +0.000 C 
BRANCH  18  20
ATOM     19  C   UNL     1      -6.131  13.037  18.697  0.00  0.00    +0.000 C 
ATOM     20  N   UNL     1      -5.716  13.153  20.096  0.00  0.00    +0.000 NA
ATOM     21  C   UNL     1      -6.405  12.147  20.908  0.00  0.00    +0.000 C 
ENDBRANCH  18  20
ENDBRANCH  17  18
ENDBRANCH  16  17
ENDBRANCH  14  16
ENDBRANCH  13  14
ENDBRANCH   7  13
ENDBRANCH   1  10
BRANCH   4  22
ATOM     22  C   UNL     1       3.861   6.080  17.438  0.00  0.00    +0.000 C 
BRANCH  22  23
ATOM     23  N   UNL     1       4.373   4.939  18.193  0.00  0.00    +0.000 NA
ATOM     24  H   UNL     1       3.733   4.749  18.965  0.00  0.00    +0.000 HD
BRANCH  23  25
ATOM     25  C   UNL     1       4.497   3.746  17.356  0.00  0.00    +0.000 C 
BRANCH  25  26
ATOM     26  C   UNL     1       3.266   2.836  17.446  0.00  0.00    +0.000 C 
BRANCH  26  27
ATOM     27  C   UNL     1       2.626   2.911  18.802  0.00  0.00    +0.000 A 
ATOM     28  C   UNL     1       1.284   3.296  18.927  0.00  0.00    +0.000 A 
ATOM     29  C   UNL     1       0.695   3.379  20.188  0.00  0.00    +0.000 A 
ATOM     30  C   UNL     1       1.443   3.083  21.323  0.00  0.00    +0.000 A 
ATOM     31  C   UNL     1       2.779   2.706  21.205  0.00  0.00    +0.000 A 
ATOM     32  C   UNL     1       3.372   2.622  19.946  0.00  0.00    +0.000 A 
ENDBRANCH  26  27
ENDBRANCH  25  26
ENDBRANCH  23  25
ENDBRANCH  22  23
ENDBRANCH   4  22
TORSDOF 12
ENDMDL
MODEL 6
REMARK VINA RESULT:      -7.2      2.264      3.571
REMARK  Name = 
REMARK  14 active torsions:
REMARK  status: ('A' for Active; 'I' for Inactive)
REMARK    1  A    between atoms: C_1  and  N_2
REMARK    2  A    between atoms: N_2  and  C_3
REMARK    3  A    between atoms: N_2  and  C_4
REMARK    4  A    between atoms: C_4  and  C_5
REMARK    5  A    between atoms: C_5  and  C_6
REMARK    6  A    between atoms: C_6  and  N_7
REMARK    7  A    between atoms: N_7  and  C_8
REMARK    8  A    between atoms: C_8  and  C_9
REMARK    9  A    between atoms: C_12  and  C_13
REMARK   10  A    between atoms: C_16  and  C_17
REMARK   11  A    between atoms: C_17  and  N_18
REMARK   12  A    between atoms: N_18  and  C_19
REMARK   13  A    between atoms: C_19  and  C_20
REMARK   14  A    between atoms: C_20  and  C_21
REMARK                            x       y       z     vdW  Elec       q    Type
REMARK                         _______ _______ _______ _____ _____    ______ ____
ROOT
ATOM      1  C   UNL     1       1.750   8.411  19.160  0.00  0.00    +0.000 A 
ATOM      2  C   UNL     1       2.447   8.533  17.946  0.00  0.00    +0.000 A 
ATOM      3  C   UNL     1       3.349   7.558  17.533  0.00  0.00    +0.000 A 
ATOM      4  C   UNL     1       3.598   6.441  18.337  0.00  0.00    +0.000 A 
ATOM      5  C   UNL     1       2.918   6.302  19.547  0.00  0.00    +0.000 A 
ATOM      6  C   UNL     1       2.000   7.272  19.945  0.00  0.00    +0.000 A 
ENDROOT
BRANCH   1  10
ATOM      7  C   UNL     1      -1.046  11.428  20.425  0.00  0.00    +0.000 A 
ATOM      8  C   UNL     1      -0.324  10.687  21.365  0.00  0.00    +0.000 A 
ATOM      9  C   UNL     1       0.596   9.730  20.951  0.00  0.00    +0.000 A 
ATOM     10  C   UNL     1       0.791   9.444  19.590  0.00  0.00    +0.000 A 
ATOM     11  C   UNL     1       0.031  10.169  18.657  0.00  0.00    +0.000 A 
ATOM     12  C   UNL     1      -0.870  11.155  19.064  0.00  0.00    +0.000 A 
BRANCH   7  13
ATOM     13  C   UNL     1      -1.973  12.514  20.902  0.00  0.00    +0.000 C 
BRANCH  13  14
ATOM     14  N   UNL     1      -2.804  12.969  19.789  0.00  0.00    +0.000 NA
ATOM     15  H   UNL     1      -2.754  13.982  19.718  0.00  0.00    +0.000 HD
BRANCH  14  16
ATOM     16  C   UNL     1      -4.199  12.576  19.975  0.00  0.00    +0.000 C 
BRANCH  16  17
ATOM     17  C   UNL     1      -4.842  13.547  20.964  0.00  0.00    +0.000 C 
BRANCH  17  18
ATOM     18  C   UNL     1      -5.991  12.907  21.748  0.00  0.00    +0.000 C 
BRANCH  18  20
ATOM     19  C   UNL     1      -7.129  12.616  23.886  0.00  0.00    +0.000 C 
ATOM     20  N   UNL     1      -6.025  13.265  23.177  0.00  0.00    +0.000 NA
ATOM     21  C   UNL     1      -4.750  12.918  23.810  0.00  0.00    +0.000 C 
ENDBRANCH  18  20
ENDBRANCH  17  18
ENDBRANCH  16  17
ENDBRANCH  14  16
ENDBRANCH  13  14
ENDBRANCH   7  13
ENDBRANCH   1  10
BRANCH   4  22
ATOM     22  C   UNL     1       4.550   5.380  17.871  0.00  0.00    +0.000 C 
BRANCH  22  23
ATOM     23  N   UNL     1       3.870   4.413  17.012  0.00  0.00    +0.000 NA
ATOM     24  H   UNL     1       4.063   4.654  16.040  0.00  0.00    +0.000 HD
BRANCH  23  25
ATOM     25  C   UNL     1       4.319   3.046  17.274  0.00  0.00    +0.000 C 
BRANCH  25  26
ATOM     26  C   UNL     1       3.166   2.115  17.670  0.00  0.00    +0.000 C 
BRANCH  26  27
ATOM     27  C   UNL     1       2.536   2.542  18.964  0.00  0.00    +0.000 A 
ATOM     28  C   UNL     1       1.212   3.002  18.984  0.00  0.00    +0.000 A 
ATOM     29  C   UNL     1       0.633   3.412  20.184  0.00  0.00    +0.000 A 
ATOM     30  C   UNL     1       1.372   3.367  21.361  0.00  0.00    +0.000 A 
ATOM     31  C   UNL     1       2.690   2.916  21.346  0.00  0.00    +0.000 A 
ATOM     32  C   UNL     1       3.274   2.506  20.148  0.00  0.00    +0.000 A 
ENDBRANCH  26  27
ENDBRANCH  25  26
ENDBRANCH  23  25
ENDBRANCH  22  23
ENDBRANCH   4  22
TORSDOF 12
ENDMDL
MODEL 7
REMARK VINA RESULT:      -7.2      3.114      4.522
REMARK  Name = 
REMARK  14 active torsions:
REMARK  status: ('A' for Active; 'I' for Inactive)
REMARK    1  A    between atoms: C_1  and  N_2
REMARK    2  A    between atoms: N_2  and  C_3
REMARK    3  A    between atoms: N_2  and  C_4
REMARK    4  A    between atoms: C_4  and  C_5
REMARK    5  A    between atoms: C_5  and  C_6
REMARK    6  A    between atoms: C_6  and  N_7
REMARK    7  A    between atoms: N_7  and  C_8
REMARK    8  A    between atoms: C_8  and  C_9
REMARK    9  A    between atoms: C_12  and  C_13
REMARK   10  A    between atoms: C_16  and  C_17
REMARK   11  A    between atoms: C_17  and  N_18
REMARK   12  A    between atoms: N_18  and  C_19
REMARK   13  A    between atoms: C_19  and  C_20
REMARK   14  A    between atoms: C_20  and  C_21
REMARK                            x       y       z     vdW  Elec       q    Type
REMARK                         _______ _______ _______ _____ _____    ______ ____
ROOT
ATOM      1  C   UNL     1       1.204   9.027  19.692  0.00  0.00    +0.000 A 
ATOM      2  C   UNL     1       1.627   9.295  18.379  0.00  0.00    +0.000 A 
ATOM      3  C   UNL     1       2.438   8.401  17.689  0.00  0.00    +0.000 A 
ATOM      4  C   UNL     1       2.870   7.220  18.303  0.00  0.00    +0.000 A 
ATOM      5  C   UNL     1       2.462   6.937  19.606  0.00  0.00    +0.000 A 
ATOM      6  C   UNL     1       1.632   7.826  20.285  0.00  0.00    +0.000 A 
ENDROOT
BRANCH   1  10
ATOM      7  C   UNL     1      -1.316  11.794  21.818  0.00  0.00    +0.000 A 
ATOM      8  C   UNL     1      -0.633  10.783  22.501  0.00  0.00    +0.000 A 
ATOM      9  C   UNL     1       0.198   9.906  21.813  0.00  0.00    +0.000 A 
ATOM     10  C   UNL     1       0.339   9.975  20.418  0.00  0.00    +0.000 A 
ATOM     11  C   UNL     1      -0.382  10.972  19.739  0.00  0.00    +0.000 A 
ATOM     12  C   UNL     1      -1.193  11.877  20.427  0.00  0.00    +0.000 A 
BRANCH   7  13
ATOM     13  C   UNL     1      -2.142  12.779  22.601  0.00  0.00    +0.000 C 
BRANCH  13  14
ATOM     14  N   UNL     1      -3.430  12.175  22.938  0.00  0.00    +0.000 NA
ATOM     15  H   UNL     1      -4.166  12.614  22.390  0.00  0.00    +0.000 HD
BRANCH  14  16
ATOM     16  C   UNL     1      -3.735  12.337  24.357  0.00  0.00    +0.000 C 
BRANCH  16  17
ATOM     17  C   UNL     1      -5.223  12.660  24.493  0.00  0.00    +0.000 C 
BRANCH  17  18
ATOM     18  C   UNL     1      -5.725  13.581  23.379  0.00  0.00    +0.000 C 
BRANCH  18  20
ATOM     19  C   UNL     1      -7.667  12.107  23.322  0.00  0.00    +0.000 C 
ATOM     20  N   UNL     1      -7.167  13.464  23.097  0.00  0.00    +0.000 NA
ATOM     21  C   UNL     1      -7.916  14.417  23.920  0.00  0.00    +0.000 C 
ENDBRANCH  18  20
ENDBRANCH  17  18
ENDBRANCH  16  17
ENDBRANCH  14  16
ENDBRANCH  13  14
ENDBRANCH   7  13
ENDBRANCH   1  10
BRANCH   4  22
ATOM     22  C   UNL     1       3.719   6.247  17.541  0.00  0.00    +0.000 C 
BRANCH  22  23
ATOM     23  N   UNL     1       4.892   5.858  18.322  0.00  0.00    +0.000 NA
ATOM     24  H   UNL     1       4.775   6.207  19.274  0.00  0.00    +0.000 HD
BRANCH  23  25
ATOM     25  C   UNL     1       5.068   4.407  18.351  0.00  0.00    +0.000 C 
BRANCH  25  26
ATOM     26  C   UNL     1       3.806   3.654  17.911  0.00  0.00    +0.000 C 
BRANCH  26  27
ATOM     27  C   UNL     1       2.896   3.381  19.074  0.00  0.00    +0.000 A 
ATOM     28  C   UNL     1       3.430   2.978  20.305  0.00  0.00    +0.000 A 
ATOM     29  C   UNL     1       2.583   2.711  21.380  0.00  0.00    +0.000 A 
ATOM     30  C   UNL     1       1.206   2.840  21.227  0.00  0.00    +0.000 A 
ATOM     31  C   UNL     1       0.671   3.234  20.003  0.00  0.00    +0.000 A 
ATOM     32  C   UNL     1       1.513   3.502  18.925  0.00  0.00    +0.000 A 
ENDBRANCH  26  27
ENDBRANCH  25  26
ENDBRANCH  23  25
ENDBRANCH  22  23
ENDBRANCH   4  22
TORSDOF 12
ENDMDL
MODEL 8
REMARK VINA RESULT:      -7.2      3.048      4.547
REMARK  Name = 
REMARK  14 active torsions:
REMARK  status: ('A' for Active; 'I' for Inactive)
REMARK    1  A    between atoms: C_1  and  N_2
REMARK    2  A    between atoms: N_2  and  C_3
REMARK    3  A    between atoms: N_2  and  C_4
REMARK    4  A    between atoms: C_4  and  C_5
REMARK    5  A    between atoms: C_5  and  C_6
REMARK    6  A    between atoms: C_6  and  N_7
REMARK    7  A    between atoms: N_7  and  C_8
REMARK    8  A    between atoms: C_8  and  C_9
REMARK    9  A    between atoms: C_12  and  C_13
REMARK   10  A    between atoms: C_16  and  C_17
REMARK   11  A    between atoms: C_17  and  N_18
REMARK   12  A    between atoms: N_18  and  C_19
REMARK   13  A    between atoms: C_19  and  C_20
REMARK   14  A    between atoms: C_20  and  C_21
REMARK                            x       y       z     vdW  Elec       q    Type
REMARK                         _______ _______ _______ _____ _____    ______ ____
ROOT
ATOM      1  C   UNL     1       1.497   8.512  19.790  0.00  0.00    +0.000 A 
ATOM      2  C   UNL     1       2.053   7.312  20.265  0.00  0.00    +0.000 A 
ATOM      3  C   UNL     1       2.880   6.535  19.461  0.00  0.00    +0.000 A 
ATOM      4  C   UNL     1       3.156   6.926  18.147  0.00  0.00    +0.000 A 
ATOM      5  C   UNL     1       2.613   8.112  17.656  0.00  0.00    +0.000 A 
ATOM      6  C   UNL     1       1.802   8.898  18.473  0.00  0.00    +0.000 A 
ENDROOT
BRANCH   1  10
ATOM      7  C   UNL     1      -1.052  10.919  22.287  0.00  0.00    +0.000 A 
ATOM      8  C   UNL     1      -0.818  11.274  20.956  0.00  0.00    +0.000 A 
ATOM      9  C   UNL     1      -0.012  10.481  20.146  0.00  0.00    +0.000 A 
ATOM     10  C   UNL     1       0.625   9.335  20.648  0.00  0.00    +0.000 A 
ATOM     11  C   UNL     1       0.412   9.010  21.998  0.00  0.00    +0.000 A 
ATOM     12  C   UNL     1      -0.422   9.783  22.808  0.00  0.00    +0.000 A 
BRANCH   7  13
ATOM     13  C   UNL     1      -1.994  11.752  23.114  0.00  0.00    +0.000 C 
BRANCH  13  14
ATOM     14  N   UNL     1      -2.985  12.378  22.241  0.00  0.00    +0.000 NA
ATOM     15  H   UNL     1      -2.546  13.127  21.711  0.00  0.00    +0.000 HD
BRANCH  14  16
ATOM     16  C   UNL     1      -4.095  12.931  23.012  0.00  0.00    +0.000 C 
BRANCH  16  17
ATOM     17  C   UNL     1      -3.637  13.099  24.460  0.00  0.00    +0.000 C 
BRANCH  17  18
ATOM     18  C   UNL     1      -3.492  14.570  24.860  0.00  0.00    +0.000 C 
BRANCH  18  20
ATOM     19  C   UNL     1      -5.077  16.336  24.297  0.00  0.00    +0.000 C 
ATOM     20  N   UNL     1      -3.949  15.526  23.836  0.00  0.00    +0.000 NA
ATOM     21  C   UNL     1      -2.840  16.395  23.432  0.00  0.00    +0.000 C 
ENDBRANCH  18  20
ENDBRANCH  17  18
ENDBRANCH  16  17
ENDBRANCH  14  16
ENDBRANCH  13  14
ENDBRANCH   7  13
ENDBRANCH   1  10
BRANCH   4  22
ATOM     22  C   UNL     1       4.073   6.098  17.297  0.00  0.00    +0.000 C 
BRANCH  22  23
ATOM     23  N   UNL     1       4.583   4.951  18.045  0.00  0.00    +0.000 NA
ATOM     24  H   UNL     1       4.049   4.870  18.912  0.00  0.00    +0.000 HD
BRANCH  23  25
ATOM     25  C   UNL     1       4.466   3.710  17.282  0.00  0.00    +0.000 C 
BRANCH  25  26
ATOM     26  C   UNL     1       3.049   3.124  17.326  0.00  0.00    +0.000 C 
BRANCH  26  27
ATOM     27  C   UNL     1       2.511   3.095  18.728  0.00  0.00    +0.000 A 
ATOM     28  C   UNL     1       1.208   3.537  18.992  0.00  0.00    +0.000 A 
ATOM     29  C   UNL     1       0.715   3.523  20.295  0.00  0.00    +0.000 A 
ATOM     30  C   UNL     1       1.521   3.073  21.336  0.00  0.00    +0.000 A 
ATOM     31  C   UNL     1       2.819   2.639  21.081  0.00  0.00    +0.000 A 
ATOM     32  C   UNL     1       3.317   2.652  19.779  0.00  0.00    +0.000 A 
ENDBRANCH  26  27
ENDBRANCH  25  26
ENDBRANCH  23  25
ENDBRANCH  22  23
ENDBRANCH   4  22
TORSDOF 12
ENDMDL
MODEL 9
REMARK VINA RESULT:      -7.2      2.195      3.890
REMARK  Name = 
REMARK  14 active torsions:
REMARK  status: ('A' for Active; 'I' for Inactive)
REMARK    1  A    between atoms: C_1  and  N_2
REMARK    2  A    between atoms: N_2  and  C_3
REMARK    3  A    between atoms: N_2  and  C_4
REMARK    4  A    between atoms: C_4  and  C_5
REMARK    5  A    between atoms: C_5  and  C_6
REMARK    6  A    between atoms: C_6  and  N_7
REMARK    7  A    between atoms: N_7  and  C_8
REMARK    8  A    between atoms: C_8  and  C_9
REMARK    9  A    between atoms: C_12  and  C_13
REMARK   10  A    between atoms: C_16  and  C_17
REMARK   11  A    between atoms: C_17  and  N_18
REMARK   12  A    between atoms: N_18  and  C_19
REMARK   13  A    between atoms: C_19  and  C_20
REMARK   14  A    between atoms: C_20  and  C_21
REMARK                            x       y       z     vdW  Elec       q    Type
REMARK                         _______ _______ _______ _____ _____    ______ ____
ROOT
ATOM      1  C   UNL     1       2.462   7.783  18.755  0.00  0.00    +0.000 A 
ATOM      2  C   UNL     1       2.726   6.727  19.643  0.00  0.00    +0.000 A 
ATOM      3  C   UNL     1       3.711   5.785  19.366  0.00  0.00    +0.000 A 
ATOM      4  C   UNL     1       4.446   5.860  18.178  0.00  0.00    +0.000 A 
ATOM      5  C   UNL     1       4.197   6.900  17.284  0.00  0.00    +0.000 A 
ATOM      6  C   UNL     1       3.223   7.853  17.576  0.00  0.00    +0.000 A 
ENDROOT
BRANCH   1  10
ATOM      7  C   UNL     1      -0.581  10.700  19.624  0.00  0.00    +0.000 A 
ATOM      8  C   UNL     1      -0.115  10.525  18.318  0.00  0.00    +0.000 A 
ATOM      9  C   UNL     1       0.851   9.564  18.038  0.00  0.00    +0.000 A 
ATOM     10  C   UNL     1       1.420   8.783  19.056  0.00  0.00    +0.000 A 
ATOM     11  C   UNL     1       0.971   8.995  20.370  0.00  0.00    +0.000 A 
ATOM     12  C   UNL     1      -0.024   9.935  20.653  0.00  0.00    +0.000 A 
BRANCH   7  13
ATOM     13  C   UNL     1      -1.687  11.689  19.881  0.00  0.00    +0.000 C 
BRANCH  13  14
ATOM     14  N   UNL     1      -1.501  12.295  21.199  0.00  0.00    +0.000 NA
ATOM     15  H   UNL     1      -2.409  12.506  21.607  0.00  0.00    +0.000 HD
BRANCH  14  16
ATOM     16  C   UNL     1      -0.724  13.529  21.108  0.00  0.00    +0.000 C 
BRANCH  16  17
ATOM     17  C   UNL     1      -0.881  14.291  22.424  0.00  0.00    +0.000 C 
BRANCH  17  18
ATOM     18  C   UNL     1      -1.527  13.438  23.519  0.00  0.00    +0.000 C 
BRANCH  18  20
ATOM     19  C   UNL     1      -3.729  12.519  24.023  0.00  0.00    +0.000 C 
ATOM     20  N   UNL     1      -2.953  13.730  23.754  0.00  0.00    +0.000 NA
ATOM     21  C   UNL     1      -3.094  14.673  24.866  0.00  0.00    +0.000 C 
ENDBRANCH  18  20
ENDBRANCH  17  18
ENDBRANCH  16  17
ENDBRANCH  14  16
ENDBRANCH  13  14
ENDBRANCH   7  13
ENDBRANCH   1  10
BRANCH   4  22
ATOM     22  C   UNL     1       5.527   4.858  17.902  0.00  0.00    +0.000 C 
BRANCH  22  23
ATOM     23  N   UNL     1       5.080   3.506  18.233  0.00  0.00    +0.000 NA
ATOM     24  H   UNL     1       4.604   3.537  19.135  0.00  0.00    +0.000 HD
BRANCH  23  25
ATOM     25  C   UNL     1       4.173   2.971  17.219  0.00  0.00    +0.000 C 
BRANCH  25  26
ATOM     26  C   UNL     1       3.193   1.941  17.793  0.00  0.00    +0.000 C 
BRANCH  26  27
ATOM     27  C   UNL     1       2.533   2.449  19.043  0.00  0.00    +0.000 A 
ATOM     28  C   UNL     1       1.305   3.120  18.967  0.00  0.00    +0.000 A 
ATOM     29  C   UNL     1       0.701   3.604  20.126  0.00  0.00    +0.000 A 
ATOM     30  C   UNL     1       1.320   3.423  21.359  0.00  0.00    +0.000 A 
ATOM     31  C   UNL     1       2.544   2.763  21.439  0.00  0.00    +0.000 A 
ATOM     32  C   UNL     1       3.153   2.278  20.282  0.00  0.00    +0.000 A 
ENDBRANCH  26  27
ENDBRANCH  25  26
ENDBRANCH  23  25
ENDBRANCH  22  23
ENDBRANCH   4  22
TORSDOF 12
ENDMDL
