MODEL 1
REMARK VINA RESULT:      -8.2      0.000      0.000
REMARK  Name = 
REMARK  5 active torsions:
REMARK  status: ('A' for Active; 'I' for Inactive)
REMARK    1  A    between atoms: C_2  and  O_3
REMARK    2  A    between atoms: C_2  and  C_4
REMARK    3  A    between atoms: C_9  and  C_10
REMARK    4  A    between atoms: C_10  and  S_11
REMARK    5  A    between atoms: S_11  and  C_12
REMARK                            x       y       z     vdW  Elec       q    Type
REMARK                         _______ _______ _______ _____ _____    ______ ____
ROOT
ATOM      1  C   UNL     1       5.573   5.009  17.913  0.00  0.00    +0.000 A 
ATOM      2  N   UNL     1       5.171   3.778  17.720  0.00  0.00    +0.000 NA
ATOM      3  N   UNL     1       5.436   3.158  16.501  0.00  0.00    +0.000 N 
ATOM      4  C   UNL     1       5.892   3.927  15.468  0.00  0.00    +0.000 A 
ATOM      5  C   UNL     1       5.873   3.997  14.145  0.00  0.00    +0.000 A 
ATOM      6  C   UNL     1       5.158   3.430  13.048  0.00  0.00    +0.000 A 
ATOM      7  C   UNL     1       5.697   3.560  11.824  0.00  0.00    +0.000 A 
ATOM      8  C   UNL     1       7.086   3.971  11.661  0.00  0.00    +0.000 A 
ATOM      9  C   UNL     1       7.750   4.620  12.633  0.00  0.00    +0.000 A 
ATOM     10  C   UNL     1       7.046   4.849  13.914  0.00  0.00    +0.000 A 
ATOM     11  N   UNL     1       7.381   5.599  14.913  0.00  0.00    +0.000 NA
ATOM     12  C   UNL     1       6.548   5.173  15.911  0.00  0.00    +0.000 A 
ATOM     13  N   UNL     1       6.405   5.716  17.066  0.00  0.00    +0.000 NA
ATOM     14  H   UNL     1       6.184   2.465  16.648  0.00  0.00    +0.000 HD
ENDROOT
BRANCH   1  15
ATOM     15  S   UNL     1       5.031   5.836  19.378  0.00  0.00    +0.000 S 
BRANCH  15  16
ATOM     16  C   UNL     1       3.246   5.831  19.057  0.00  0.00    +0.000 C 
BRANCH  16  22
ATOM     17  C   UNL     1       1.724   3.738  19.035  0.00  0.00    +0.000 A 
ATOM     18  C   UNL     1       1.150   2.653  19.730  0.00  0.00    +0.000 A 
ATOM     19  C   UNL     1       1.287   2.557  21.113  0.00  0.00    +0.000 A 
ATOM     20  C   UNL     1       1.993   3.512  21.815  0.00  0.00    +0.000 A 
ATOM     21  C   UNL     1       2.593   4.580  21.130  0.00  0.00    +0.000 A 
ATOM     22  C   UNL     1       2.501   4.711  19.726  0.00  0.00    +0.000 A 
BRANCH  17  24
ATOM     23  O   UNL     1       0.763   4.451  16.991  0.00  0.00    +0.000 OA
ATOM     24  C   UNL     1       1.570   3.751  17.554  0.00  0.00    +0.000 C 
BRANCH  24  25
ATOM     25  O   UNL     1       2.416   2.927  16.906  0.00  0.00    +0.000 OA
ATOM     26  H   UNL     1       3.247   2.761  17.378  0.00  0.00    +0.000 HD
ENDBRANCH  24  25
ENDBRANCH  17  24
ENDBRANCH  16  22
ENDBRANCH  15  16
ENDBRANCH   1  15
TORSDOF 5
ENDMDL
MODEL 2
REMARK VINA RESULT:      -7.9      3.167      4.423
REMARK  Name = 
REMARK  5 active torsions:
REMARK  status: ('A' for Active; 'I' for Inactive)
REMARK    1  A    between atoms: C_2  and  O_3
REMARK    2  A    between atoms: C_2  and  C_4
REMARK    3  A    between atoms: C_9  and  C_10
REMARK    4  A    between atoms: C_10  and  S_11
REMARK    5  A    between atoms: S_11  and  C_12
REMARK                            x       y       z     vdW  Elec       q    Type
REMARK                         _______ _______ _______ _____ _____    ______ ____
ROOT
ATOM      1  C   UNL     1       4.235   2.823  18.089  0.00  0.00    +0.000 A 
ATOM      2  N   UNL     1       4.424   3.104  16.824  0.00  0.00    +0.000 NA
ATOM      3  N   UNL     1       5.351   4.084  16.476  0.00  0.00    +0.000 N 
ATOM      4  C   UNL     1       5.855   4.880  17.465  0.00  0.00    +0.000 A 
ATOM      5  C   UNL     1       6.329   6.101  17.668  0.00  0.00    +0.000 A 
ATOM      6  C   UNL     1       6.362   7.366  17.009  0.00  0.00    +0.000 A 
ATOM      7  C   UNL     1       7.247   8.274  17.455  0.00  0.00    +0.000 A 
ATOM      8  C   UNL     1       8.330   7.883  18.347  0.00  0.00    +0.000 A 
ATOM      9  C   UNL     1       8.273   6.757  19.079  0.00  0.00    +0.000 A 
ATOM     10  C   UNL     1       7.095   5.880  18.901  0.00  0.00    +0.000 A 
ATOM     11  N   UNL     1       6.712   4.866  19.607  0.00  0.00    +0.000 NA
ATOM     12  C   UNL     1       5.777   4.269  18.806  0.00  0.00    +0.000 A 
ATOM     13  N   UNL     1       5.006   3.295  19.133  0.00  0.00    +0.000 NA
ATOM     14  H   UNL     1       6.181   3.617  16.082  0.00  0.00    +0.000 HD
ENDROOT
BRANCH   1  15
ATOM     15  S   UNL     1       2.902   1.738  18.504  0.00  0.00    +0.000 S 
BRANCH  15  16
ATOM     16  C   UNL     1       1.520   2.881  18.237  0.00  0.00    +0.000 C 
BRANCH  16  22
ATOM     17  C   UNL     1       1.775   4.582  20.171  0.00  0.00    +0.000 A 
ATOM     18  C   UNL     1       2.107   5.884  20.600  0.00  0.00    +0.000 A 
ATOM     19  C   UNL     1       2.349   6.889  19.666  0.00  0.00    +0.000 A 
ATOM     20  C   UNL     1       2.278   6.619  18.314  0.00  0.00    +0.000 A 
ATOM     21  C   UNL     1       1.978   5.320  17.876  0.00  0.00    +0.000 A 
ATOM     22  C   UNL     1       1.746   4.263  18.784  0.00  0.00    +0.000 A 
BRANCH  17  24
ATOM     23  O   UNL     1       2.331   3.415  22.155  0.00  0.00    +0.000 OA
ATOM     24  C   UNL     1       1.571   3.552  21.227  0.00  0.00    +0.000 C 
BRANCH  24  25
ATOM     25  O   UNL     1       0.465   2.803  21.059  0.00  0.00    +0.000 OA
ATOM     26  H   UNL     1      -0.350   3.318  20.946  0.00  0.00    +0.000 HD
ENDBRANCH  24  25
ENDBRANCH  17  24
ENDBRANCH  16  22
ENDBRANCH  15  16
ENDBRANCH   1  15
TORSDOF 5
ENDMDL
MODEL 3
REMARK VINA RESULT:      -7.4      4.881      8.232
REMARK  Name = 
REMARK  5 active torsions:
REMARK  status: ('A' for Active; 'I' for Inactive)
REMARK    1  A    between atoms: C_2  and  O_3
REMARK    2  A    between atoms: C_2  and  C_4
REMARK    3  A    between atoms: C_9  and  C_10
REMARK    4  A    between atoms: C_10  and  S_11
REMARK    5  A    between atoms: S_11  and  C_12
REMARK                            x       y       z     vdW  Elec       q    Type
REMARK                         _______ _______ _______ _____ _____    ______ ____
ROOT
ATOM      1  C   UNL     1       2.351   6.959  19.151  0.00  0.00    +0.000 A 
ATOM      2  N   UNL     1       2.437   7.580  18.001  0.00  0.00    +0.000 NA
ATOM      3  N   UNL     1       1.920   8.869  17.884  0.00  0.00    +0.000 N 
ATOM      4  C   UNL     1       1.135   9.347  18.894  0.00  0.00    +0.000 A 
ATOM      5  C   UNL     1       0.126  10.177  19.114  0.00  0.00    +0.000 A 
ATOM      6  C   UNL     1      -0.878  10.871  18.374  0.00  0.00    +0.000 A 
ATOM      7  C   UNL     1      -1.519  11.876  18.992  0.00  0.00    +0.000 A 
ATOM      8  C   UNL     1      -1.003  12.438  20.233  0.00  0.00    +0.000 A 
ATOM      9  C   UNL     1      -0.151  11.756  21.019  0.00  0.00    +0.000 A 
ATOM     10  C   UNL     1       0.306  10.430  20.549  0.00  0.00    +0.000 A 
ATOM     11  N   UNL     1       0.953   9.510  21.188  0.00  0.00    +0.000 NA
ATOM     12  C   UNL     1       1.372   8.677  20.187  0.00  0.00    +0.000 A 
ATOM     13  N   UNL     1       1.939   7.534  20.337  0.00  0.00    +0.000 NA
ATOM     14  H   UNL     1       2.710   9.530  17.844  0.00  0.00    +0.000 HD
ENDROOT
BRANCH   1  15
ATOM     15  S   UNL     1       2.815   5.254  19.205  0.00  0.00    +0.000 S 
BRANCH  15  16
ATOM     16  C   UNL     1       4.606   5.459  19.402  0.00  0.00    +0.000 C 
BRANCH  16  22
ATOM     17  C   UNL     1       6.820   5.245  18.078  0.00  0.00    +0.000 A 
ATOM     18  C   UNL     1       7.506   4.778  16.937  0.00  0.00    +0.000 A 
ATOM     19  C   UNL     1       6.798   4.228  15.871  0.00  0.00    +0.000 A 
ATOM     20  C   UNL     1       5.423   4.123  15.924  0.00  0.00    +0.000 A 
ATOM     21  C   UNL     1       4.733   4.556  17.066  0.00  0.00    +0.000 A 
ATOM     22  C   UNL     1       5.407   5.101  18.181  0.00  0.00    +0.000 A 
BRANCH  17  24
ATOM     23  O   UNL     1       7.728   5.231  20.265  0.00  0.00    +0.000 OA
ATOM     24  C   UNL     1       7.647   5.782  19.193  0.00  0.00    +0.000 C 
BRANCH  24  25
ATOM     25  O   UNL     1       8.300   6.921  18.896  0.00  0.00    +0.000 OA
ATOM     26  H   UNL     1       7.747   7.595  18.469  0.00  0.00    +0.000 HD
ENDBRANCH  24  25
ENDBRANCH  17  24
ENDBRANCH  16  22
ENDBRANCH  15  16
ENDBRANCH   1  15
TORSDOF 5
ENDMDL
MODEL 4
REMARK VINA RESULT:      -7.4      5.288      8.735
REMARK  Name = 
REMARK  5 active torsions:
REMARK  status: ('A' for Active; 'I' for Inactive)
REMARK    1  A    between atoms: C_2  and  O_3
REMARK    2  A    between atoms: C_2  and  C_4
REMARK    3  A    between atoms: C_9  and  C_10
REMARK    4  A    between atoms: C_10  and  S_11
REMARK    5  A    between atoms: S_11  and  C_12
REMARK                            x       y       z     vdW  Elec       q    Type
REMARK                         _______ _______ _______ _____ _____    ______ ____
ROOT
ATOM      1  C   UNL     1       2.310   8.093  18.505  0.00  0.00    +0.000 A 
ATOM      2  N   UNL     1       2.258   8.950  17.517  0.00  0.00    +0.000 NA
ATOM      3  N   UNL     1       1.470  10.092  17.646  0.00  0.00    +0.000 N 
ATOM      4  C   UNL     1       0.597  10.162  18.694  0.00  0.00    +0.000 A 
ATOM      5  C   UNL     1      -0.571  10.688  19.033  0.00  0.00    +0.000 A 
ATOM      6  C   UNL     1      -1.701  11.292  18.405  0.00  0.00    +0.000 A 
ATOM      7  C   UNL     1      -2.550  11.980  19.188  0.00  0.00    +0.000 A 
ATOM      8  C   UNL     1      -2.173  12.359  20.543  0.00  0.00    +0.000 A 
ATOM      9  C   UNL     1      -1.193  11.724  21.210  0.00  0.00    +0.000 A 
ATOM     10  C   UNL     1      -0.454  10.660  20.496  0.00  0.00    +0.000 A 
ATOM     11  N   UNL     1       0.379   9.786  20.960  0.00  0.00    +0.000 NA
ATOM     12  C   UNL     1       0.973   9.296  19.829  0.00  0.00    +0.000 A 
ATOM     13  N   UNL     1       1.778   8.297  19.764  0.00  0.00    +0.000 NA
ATOM     14  H   UNL     1       2.095  10.900  17.785  0.00  0.00    +0.000 HD
ENDROOT
BRANCH   1  15
ATOM     15  S   UNL     1       3.138   6.557  18.225  0.00  0.00    +0.000 S 
BRANCH  15  16
ATOM     16  C   UNL     1       4.738   7.202  17.663  0.00  0.00    +0.000 C 
BRANCH  16  22
ATOM     17  C   UNL     1       6.710   5.539  17.447  0.00  0.00    +0.000 A 
ATOM     18  C   UNL     1       7.369   4.535  16.707  0.00  0.00    +0.000 A 
ATOM     19  C   UNL     1       6.953   4.232  15.412  0.00  0.00    +0.000 A 
ATOM     20  C   UNL     1       5.886   4.900  14.846  0.00  0.00    +0.000 A 
ATOM     21  C   UNL     1       5.204   5.879  15.584  0.00  0.00    +0.000 A 
ATOM     22  C   UNL     1       5.574   6.207  16.907  0.00  0.00    +0.000 A 
BRANCH  17  24
ATOM     23  O   UNL     1       6.727   5.192  19.789  0.00  0.00    +0.000 OA
ATOM     24  C   UNL     1       7.185   5.777  18.838  0.00  0.00    +0.000 C 
BRANCH  24  25
ATOM     25  O   UNL     1       8.171   6.689  18.933  0.00  0.00    +0.000 OA
ATOM     26  H   UNL     1       8.261   7.259  18.153  0.00  0.00    +0.000 HD
ENDBRANCH  24  25
ENDBRANCH  17  24
ENDBRANCH  16  22
ENDBRANCH  15  16
ENDBRANCH   1  15
TORSDOF 5
ENDMDL
MODEL 5
REMARK VINA RESULT:      -7.4      5.766      7.347
REMARK  Name = 
REMARK  5 active torsions:
REMARK  status: ('A' for Active; 'I' for Inactive)
REMARK    1  A    between atoms: C_2  and  O_3
REMARK    2  A    between atoms: C_2  and  C_4
REMARK    3  A    between atoms: C_9  and  C_10
REMARK    4  A    between atoms: C_10  and  S_11
REMARK    5  A    between atoms: S_11  and  C_12
REMARK                            x       y       z     vdW  Elec       q    Type
REMARK                         _______ _______ _______ _____ _____    ______ ____
ROOT
ATOM      1  C   UNL     1       1.610   8.870  19.272  0.00  0.00    +0.000 A 
ATOM      2  N   UNL     1       1.474   8.219  20.400  0.00  0.00    +0.000 NA
ATOM      3  N   UNL     1       1.973   6.922  20.502  0.00  0.00    +0.000 N 
ATOM      4  C   UNL     1       2.370   6.289  19.358  0.00  0.00    +0.000 A 
ATOM      5  C   UNL     1       2.469   5.078  18.828  0.00  0.00    +0.000 A 
ATOM      6  C   UNL     1       1.988   3.756  19.067  0.00  0.00    +0.000 A 
ATOM      7  C   UNL     1       2.610   2.747  18.434  0.00  0.00    +0.000 A 
ATOM      8  C   UNL     1       3.902   2.953  17.792  0.00  0.00    +0.000 A 
ATOM      9  C   UNL     1       4.329   4.178  17.440  0.00  0.00    +0.000 A 
ATOM     10  C   UNL     1       3.471   5.333  17.786  0.00  0.00    +0.000 A 
ATOM     11  N   UNL     1       3.555   6.563  17.398  0.00  0.00    +0.000 NA
ATOM     12  C   UNL     1       2.726   7.217  18.268  0.00  0.00    +0.000 A 
ATOM     13  N   UNL     1       2.368   8.449  18.197  0.00  0.00    +0.000 NA
ATOM     14  H   UNL     1       2.823   6.948  21.083  0.00  0.00    +0.000 HD
ENDROOT
BRANCH   1  15
ATOM     15  S   UNL     1       0.777  10.420  19.108  0.00  0.00    +0.000 S 
BRANCH  15  16
ATOM     16  C   UNL     1       1.038  11.056  20.786  0.00  0.00    +0.000 C 
BRANCH  16  22
ATOM     17  C   UNL     1      -0.837  10.887  22.563  0.00  0.00    +0.000 A 
ATOM     18  C   UNL     1      -1.943  11.474  23.213  0.00  0.00    +0.000 A 
ATOM     19  C   UNL     1      -2.475  12.673  22.744  0.00  0.00    +0.000 A 
ATOM     20  C   UNL     1      -1.920  13.305  21.650  0.00  0.00    +0.000 A 
ATOM     21  C   UNL     1      -0.801  12.746  21.014  0.00  0.00    +0.000 A 
ATOM     22  C   UNL     1      -0.212  11.543  21.464  0.00  0.00    +0.000 A 
BRANCH  17  24
ATOM     23  O   UNL     1       0.525   9.620  24.028  0.00  0.00    +0.000 OA
ATOM     24  C   UNL     1      -0.299   9.627  23.145  0.00  0.00    +0.000 C 
BRANCH  24  25
ATOM     25  O   UNL     1      -0.821   8.507  22.610  0.00  0.00    +0.000 OA
ATOM     26  H   UNL     1      -0.215   7.749  22.608  0.00  0.00    +0.000 HD
ENDBRANCH  24  25
ENDBRANCH  17  24
ENDBRANCH  16  22
ENDBRANCH  15  16
ENDBRANCH   1  15
TORSDOF 5
ENDMDL
MODEL 6
REMARK VINA RESULT:      -7.4      5.137      8.040
REMARK  Name = 
REMARK  5 active torsions:
REMARK  status: ('A' for Active; 'I' for Inactive)
REMARK    1  A    between atoms: C_2  and  O_3
REMARK    2  A    between atoms: C_2  and  C_4
REMARK    3  A    between atoms: C_9  and  C_10
REMARK    4  A    between atoms: C_10  and  S_11
REMARK    5  A    between atoms: S_11  and  C_12
REMARK                            x       y       z     vdW  Elec       q    Type
REMARK                         _______ _______ _______ _____ _____    ______ ____
ROOT
ATOM      1  C   UNL     1       2.201   8.421  18.349  0.00  0.00    +0.000 A 
ATOM      2  N   UNL     1       2.150   9.428  17.513  0.00  0.00    +0.000 NA
ATOM      3  N   UNL     1       1.394  10.551  17.845  0.00  0.00    +0.000 N 
ATOM      4  C   UNL     1       0.546  10.469  18.912  0.00  0.00    +0.000 A 
ATOM      5  C   UNL     1      -0.601  10.958  19.361  0.00  0.00    +0.000 A 
ATOM      6  C   UNL     1      -1.729  11.680  18.868  0.00  0.00    +0.000 A 
ATOM      7  C   UNL     1      -2.543  12.250  19.773  0.00  0.00    +0.000 A 
ATOM      8  C   UNL     1      -2.127  12.397  21.162  0.00  0.00    +0.000 A 
ATOM      9  C   UNL     1      -1.149  11.642  21.692  0.00  0.00    +0.000 A 
ATOM     10  C   UNL     1      -0.452  10.691  20.797  0.00  0.00    +0.000 A 
ATOM     11  N   UNL     1       0.368   9.736  21.092  0.00  0.00    +0.000 NA
ATOM     12  C   UNL     1       0.925   9.423  19.882  0.00  0.00    +0.000 A 
ATOM     13  N   UNL     1       1.703   8.431  19.637  0.00  0.00    +0.000 NA
ATOM     14  H   UNL     1       2.042  11.312  18.096  0.00  0.00    +0.000 HD
ENDROOT
BRANCH   1  15
ATOM     15  S   UNL     1       2.984   6.933  17.803  0.00  0.00    +0.000 S 
BRANCH  15  16
ATOM     16  C   UNL     1       3.298   6.174  19.420  0.00  0.00    +0.000 C 
BRANCH  16  22
ATOM     17  C   UNL     1       3.255   3.614  19.043  0.00  0.00    +0.000 A 
ATOM     18  C   UNL     1       2.690   2.357  19.345  0.00  0.00    +0.000 A 
ATOM     19  C   UNL     1       1.541   2.276  20.128  0.00  0.00    +0.000 A 
ATOM     20  C   UNL     1       0.951   3.419  20.626  0.00  0.00    +0.000 A 
ATOM     21  C   UNL     1       1.522   4.673  20.358  0.00  0.00    +0.000 A 
ATOM     22  C   UNL     1       2.698   4.806  19.587  0.00  0.00    +0.000 A 
BRANCH  17  24
ATOM     23  O   UNL     1       4.500   3.700  17.031  0.00  0.00    +0.000 OA
ATOM     24  C   UNL     1       4.506   3.618  18.236  0.00  0.00    +0.000 C 
BRANCH  24  25
ATOM     25  O   UNL     1       5.634   3.535  18.967  0.00  0.00    +0.000 OA
ATOM     26  H   UNL     1       5.677   2.755  19.542  0.00  0.00    +0.000 HD
ENDBRANCH  24  25
ENDBRANCH  17  24
ENDBRANCH  16  22
ENDBRANCH  15  16
ENDBRANCH   1  15
TORSDOF 5
ENDMDL
MODEL 7
REMARK VINA RESULT:      -7.2      5.903      8.025
REMARK  Name = 
REMARK  5 active torsions:
REMARK  status: ('A' for Active; 'I' for Inactive)
REMARK    1  A    between atoms: C_2  and  O_3
REMARK    2  A    between atoms: C_2  and  C_4
REMARK    3  A    between atoms: C_9  and  C_10
REMARK    4  A    between atoms: C_10  and  S_11
REMARK    5  A    between atoms: S_11  and  C_12
REMARK                            x       y       z     vdW  Elec       q    Type
REMARK                         _______ _______ _______ _____ _____    ______ ____
ROOT
ATOM      1  C   UNL     1       1.798   8.704  18.970  0.00  0.00    +0.000 A 
ATOM      2  N   UNL     1       1.581   8.545  20.251  0.00  0.00    +0.000 NA
ATOM      3  N   UNL     1       1.828   7.305  20.835  0.00  0.00    +0.000 N 
ATOM      4  C   UNL     1       2.057   6.236  20.015  0.00  0.00    +0.000 A 
ATOM      5  C   UNL     1       1.904   4.921  19.965  0.00  0.00    +0.000 A 
ATOM      6  C   UNL     1       1.190   3.893  20.651  0.00  0.00    +0.000 A 
ATOM      7  C   UNL     1       1.586   2.625  20.451  0.00  0.00    +0.000 A 
ATOM      8  C   UNL     1       2.869   2.334  19.825  0.00  0.00    +0.000 A 
ATOM      9  C   UNL     1       3.509   3.242  19.067  0.00  0.00    +0.000 A 
ATOM     10  C   UNL     1       2.899   4.584  18.939  0.00  0.00    +0.000 A 
ATOM     11  N   UNL     1       3.201   5.550  18.133  0.00  0.00    +0.000 NA
ATOM     12  C   UNL     1       2.543   6.620  18.676  0.00  0.00    +0.000 A 
ATOM     13  N   UNL     1       2.423   7.785  18.149  0.00  0.00    +0.000 NA
ATOM     14  H   UNL     1       2.688   7.379  21.398  0.00  0.00    +0.000 HD
ENDROOT
BRANCH   1  15
ATOM     15  S   UNL     1       1.269  10.216  18.223  0.00  0.00    +0.000 S 
BRANCH  15  16
ATOM     16  C   UNL     1      -0.241  10.491  19.189  0.00  0.00    +0.000 C 
BRANCH  16  22
ATOM     17  C   UNL     1      -2.527  11.560  18.614  0.00  0.00    +0.000 A 
ATOM     18  C   UNL     1      -3.611  11.689  17.720  0.00  0.00    +0.000 A 
ATOM     19  C   UNL     1      -3.709  10.849  16.613  0.00  0.00    +0.000 A 
ATOM     20  C   UNL     1      -2.743   9.894  16.372  0.00  0.00    +0.000 A 
ATOM     21  C   UNL     1      -1.645   9.777  17.238  0.00  0.00    +0.000 A 
ATOM     22  C   UNL     1      -1.490  10.618  18.362  0.00  0.00    +0.000 A 
BRANCH  17  24
ATOM     23  O   UNL     1      -3.055  12.330  20.790  0.00  0.00    +0.000 OA
ATOM     24  C   UNL     1      -2.469  12.519  19.751  0.00  0.00    +0.000 C 
BRANCH  24  25
ATOM     25  O   UNL     1      -1.702  13.602  19.520  0.00  0.00    +0.000 OA
ATOM     26  H   UNL     1      -0.872  13.407  19.056  0.00  0.00    +0.000 HD
ENDBRANCH  24  25
ENDBRANCH  17  24
ENDBRANCH  16  22
ENDBRANCH  15  16
ENDBRANCH   1  15
TORSDOF 5
ENDMDL
MODEL 8
REMARK VINA RESULT:      -7.2      5.354      7.234
REMARK  Name = 
REMARK  5 active torsions:
REMARK  status: ('A' for Active; 'I' for Inactive)
REMARK    1  A    between atoms: C_2  and  O_3
REMARK    2  A    between atoms: C_2  and  C_4
REMARK    3  A    between atoms: C_9  and  C_10
REMARK    4  A    between atoms: C_10  and  S_11
REMARK    5  A    between atoms: S_11  and  C_12
REMARK                            x       y       z     vdW  Elec       q    Type
REMARK                         _______ _______ _______ _____ _____    ______ ____
ROOT
ATOM      1  C   UNL     1       2.204   8.325  18.798  0.00  0.00    +0.000 A 
ATOM      2  N   UNL     1       1.864   7.972  20.012  0.00  0.00    +0.000 NA
ATOM      3  N   UNL     1       1.989   6.638  20.394  0.00  0.00    +0.000 N 
ATOM      4  C   UNL     1       2.235   5.707  19.425  0.00  0.00    +0.000 A 
ATOM      5  C   UNL     1       2.019   4.432  19.139  0.00  0.00    +0.000 A 
ATOM      6  C   UNL     1       1.191   3.356  19.579  0.00  0.00    +0.000 A 
ATOM      7  C   UNL     1       1.536   2.114  19.198  0.00  0.00    +0.000 A 
ATOM      8  C   UNL     1       2.854   1.844  18.639  0.00  0.00    +0.000 A 
ATOM      9  C   UNL     1       3.607   2.819  18.101  0.00  0.00    +0.000 A 
ATOM     10  C   UNL     1       3.083   4.202  18.154  0.00  0.00    +0.000 A 
ATOM     11  N   UNL     1       3.508   5.265  17.553  0.00  0.00    +0.000 NA
ATOM     12  C   UNL     1       2.861   6.273  18.214  0.00  0.00    +0.000 A 
ATOM     13  N   UNL     1       2.852   7.515  17.886  0.00  0.00    +0.000 NA
ATOM     14  H   UNL     1       2.797   6.560  21.029  0.00  0.00    +0.000 HD
ENDROOT
BRANCH   1  15
ATOM     15  S   UNL     1       1.827   9.973  18.280  0.00  0.00    +0.000 S 
BRANCH  15  16
ATOM     16  C   UNL     1       0.041   9.784  18.029  0.00  0.00    +0.000 C 
BRANCH  16  22
ATOM     17  C   UNL     1      -2.070  11.237  18.391  0.00  0.00    +0.000 A 
ATOM     18  C   UNL     1      -2.844  12.055  19.241  0.00  0.00    +0.000 A 
ATOM     19  C   UNL     1      -2.343  12.448  20.480  0.00  0.00    +0.000 A 
ATOM     20  C   UNL     1      -1.093  12.033  20.894  0.00  0.00    +0.000 A 
ATOM     21  C   UNL     1      -0.328  11.195  20.068  0.00  0.00    +0.000 A 
ATOM     22  C   UNL     1      -0.800  10.752  18.813  0.00  0.00    +0.000 A 
BRANCH  17  24
ATOM     23  O   UNL     1      -3.455   9.896  17.017  0.00  0.00    +0.000 OA
ATOM     24  C   UNL     1      -2.689  10.825  17.101  0.00  0.00    +0.000 C 
BRANCH  24  25
ATOM     25  O   UNL     1      -2.327  11.584  16.049  0.00  0.00    +0.000 OA
ATOM     26  H   UNL     1      -1.877  11.094  15.343  0.00  0.00    +0.000 HD
ENDBRANCH  24  25
ENDBRANCH  17  24
ENDBRANCH  16  22
ENDBRANCH  15  16
ENDBRANCH   1  15
TORSDOF 5
ENDMDL
MODEL 9
REMARK VINA RESULT:      -7.2      3.529      7.301
REMARK  Name = 
REMARK  5 active torsions:
REMARK  status: ('A' for Active; 'I' for Inactive)
REMARK    1  A    between atoms: C_2  and  O_3
REMARK    2  A    between atoms: C_2  and  C_4
REMARK    3  A    between atoms: C_9  and  C_10
REMARK    4  A    between atoms: C_10  and  S_11
REMARK    5  A    between atoms: S_11  and  C_12
REMARK                            x       y       z     vdW  Elec       q    Type
REMARK                         _______ _______ _______ _____ _____    ______ ____
ROOT
ATOM      1  C   UNL     1       3.290   4.691  19.653  0.00  0.00    +0.000 A 
ATOM      2  N   UNL     1       2.401   4.461  20.587  0.00  0.00    +0.000 NA
ATOM      3  N   UNL     1       1.489   5.459  20.920  0.00  0.00    +0.000 N 
ATOM      4  C   UNL     1       1.701   6.719  20.436  0.00  0.00    +0.000 A 
ATOM      5  C   UNL     1       1.489   7.992  20.738  0.00  0.00    +0.000 A 
ATOM      6  C   UNL     1       1.125   8.783  21.868  0.00  0.00    +0.000 A 
ATOM      7  C   UNL     1       0.714  10.041  21.636  0.00  0.00    +0.000 A 
ATOM      8  C   UNL     1       0.353  10.472  20.292  0.00  0.00    +0.000 A 
ATOM      9  C   UNL     1       0.785   9.819  19.199  0.00  0.00    +0.000 A 
ATOM     10  C   UNL     1       1.592   8.595  19.404  0.00  0.00    +0.000 A 
ATOM     11  N   UNL     1       2.277   7.911  18.546  0.00  0.00    +0.000 NA
ATOM     12  C   UNL     1       2.531   6.745  19.216  0.00  0.00    +0.000 A 
ATOM     13  N   UNL     1       3.306   5.797  18.826  0.00  0.00    +0.000 NA
ATOM     14  H   UNL     1       0.568   5.195  20.540  0.00  0.00    +0.000 HD
ENDROOT
BRANCH   1  15
ATOM     15  S   UNL     1       4.564   3.490  19.411  0.00  0.00    +0.000 S 
BRANCH  15  16
ATOM     16  C   UNL     1       5.215   4.091  17.828  0.00  0.00    +0.000 C 
BRANCH  16  22
ATOM     17  C   UNL     1       6.329   6.310  17.097  0.00  0.00    +0.000 A 
ATOM     18  C   UNL     1       7.256   7.342  17.358  0.00  0.00    +0.000 A 
ATOM     19  C   UNL     1       8.142   7.232  18.427  0.00  0.00    +0.000 A 
ATOM     20  C   UNL     1       8.116   6.122  19.247  0.00  0.00    +0.000 A 
ATOM     21  C   UNL     1       7.179   5.104  19.014  0.00  0.00    +0.000 A 
ATOM     22  C   UNL     1       6.245   5.178  17.957  0.00  0.00    +0.000 A 
BRANCH  17  24
ATOM     23  O   UNL     1       5.605   6.094  14.853  0.00  0.00    +0.000 OA
ATOM     24  C   UNL     1       5.387   6.517  15.963  0.00  0.00    +0.000 C 
BRANCH  24  25
ATOM     25  O   UNL     1       4.275   7.203  16.289  0.00  0.00    +0.000 OA
ATOM     26  H   UNL     1       4.446   8.094  16.635  0.00  0.00    +0.000 HD
ENDBRANCH  24  25
ENDBRANCH  17  24
ENDBRANCH  16  22
ENDBRANCH  15  16
ENDBRANCH   1  15
TORSDOF 5
ENDMDL
