MODEL 1
REMARK VINA RESULT:      -7.8      0.000      0.000
REMARK  Name = 
REMARK  5 active torsions:
REMARK  status: ('A' for Active; 'I' for Inactive)
REMARK    1  A    between atoms: C_1  and  C_2
REMARK    2  A    between atoms: C_2  and  C_3
REMARK    3  A    between atoms: C_2  and  N_21
REMARK    4  A    between atoms: N_8  and  C_9
REMARK    5  A    between atoms: C_9  and  C_10
REMARK                            x       y       z     vdW  Elec       q    Type
REMARK                         _______ _______ _______ _____ _____    ______ ____
ROOT
ATOM      1  C   UNL     1       0.818   8.956  20.645  0.00  0.00    +0.000 C 
ATOM      2  O   UNL     1       0.032   8.761  21.578  0.00  0.00    +0.000 OA
ATOM      3  N   UNL     1       1.722   7.966  20.277  0.00  0.00    +0.000 N 
ATOM      4  C   UNL     1       1.538   6.598  20.792  0.00  0.00    +0.000 C 
ATOM      5  C   UNL     1       1.408   5.562  19.640  0.00  0.00    +0.000 C 
ATOM      6  N   UNL     1       2.422   5.680  18.556  0.00  0.00    +0.000 NA
ATOM      7  C   UNL     1       2.454   7.092  18.105  0.00  0.00    +0.000 C 
ATOM      8  C   UNL     1       2.751   8.079  19.245  0.00  0.00    +0.000 C 
ENDROOT
BRANCH   1  10
ATOM      9  C   UNL     1       1.204  11.485  20.776  0.00  0.00    +0.000 C 
ATOM     10  C   UNL     1       0.839  10.306  19.879  0.00  0.00    +0.000 C 
BRANCH  10  11
ATOM     11  N   UNL     1      -0.415  10.509  19.163  0.00  0.00    +0.000 N 
ATOM     12  S   UNL     1      -1.709  11.428  19.809  0.00  0.00    +0.000 S 
ATOM     13  C   UNL     1      -2.667  11.130  18.359  0.00  0.00    +0.000 A 
ATOM     14  C   UNL     1      -3.922  11.631  18.065  0.00  0.00    +0.000 A 
ATOM     15  C   UNL     1      -4.486  11.320  16.825  0.00  0.00    +0.000 A 
ATOM     16  C   UNL     1      -3.798  10.515  15.901  0.00  0.00    +0.000 A 
ATOM     17  C   UNL     1      -2.537  10.003  16.210  0.00  0.00    +0.000 A 
ATOM     18  C   UNL     1      -1.990  10.323  17.445  0.00  0.00    +0.000 A 
ATOM     19  C   UNL     1      -0.661   9.917  17.932  0.00  0.00    +0.000 A 
ATOM     20  O   UNL     1       0.087   9.193  17.298  0.00  0.00    +0.000 OA
ENDBRANCH  10  11
ENDBRANCH   1  10
BRANCH   6  21
ATOM     21  C   UNL     1       3.730   5.186  19.025  0.00  0.00    +0.000 C 
BRANCH  21  22
ATOM     22  C   UNL     1       4.829   5.202  17.980  0.00  0.00    +0.000 A 
ATOM     23  C   UNL     1       6.058   5.851  18.242  0.00  0.00    +0.000 A 
ATOM     24  C   UNL     1       7.058   5.921  17.265  0.00  0.00    +0.000 A 
ATOM     25  C   UNL     1       6.809   5.329  16.045  0.00  0.00    +0.000 A 
ATOM     26  C   UNL     1       5.629   4.674  15.789  0.00  0.00    +0.000 A 
ATOM     27  C   UNL     1       4.624   4.591  16.730  0.00  0.00    +0.000 A 
ATOM     28  O   UNL     1       5.583   4.153  14.533  0.00  0.00    +0.000 OA
ATOM     29  C   UNL     1       6.861   4.583  14.018  0.00  0.00    +0.000 C 
ATOM     30  O   UNL     1       7.651   5.315  14.977  0.00  0.00    +0.000 OA
ENDBRANCH  21  22
ENDBRANCH   6  21
TORSDOF 4
ENDMDL
MODEL 2
REMARK VINA RESULT:      -7.7      0.843      1.092
REMARK  Name = 
REMARK  5 active torsions:
REMARK  status: ('A' for Active; 'I' for Inactive)
REMARK    1  A    between atoms: C_1  and  C_2
REMARK    2  A    between atoms: C_2  and  C_3
REMARK    3  A    between atoms: C_2  and  N_21
REMARK    4  A    between atoms: N_8  and  C_9
REMARK    5  A    between atoms: C_9  and  C_10
REMARK                            x       y       z     vdW  Elec       q    Type
REMARK                         _______ _______ _______ _____ _____    ______ ____
ROOT
ATOM      1  C   UNL     1       0.752   9.336  19.915  0.00  0.00    +0.000 C 
ATOM      2  O   UNL     1       0.090   9.377  20.956  0.00  0.00    +0.000 OA
ATOM      3  N   UNL     1       1.739   8.371  19.753  0.00  0.00    +0.000 N 
ATOM      4  C   UNL     1       1.789   7.230  20.683  0.00  0.00    +0.000 C 
ATOM      5  C   UNL     1       1.689   5.873  19.934  0.00  0.00    +0.000 C 
ATOM      6  N   UNL     1       2.571   5.733  18.742  0.00  0.00    +0.000 NA
ATOM      7  C   UNL     1       2.372   6.921  17.879  0.00  0.00    +0.000 C 
ATOM      8  C   UNL     1       2.643   8.247  18.610  0.00  0.00    +0.000 C 
ENDROOT
BRANCH   1  10
ATOM      9  C   UNL     1       1.499  11.533  18.829  0.00  0.00    +0.000 C 
ATOM     10  C   UNL     1       0.520  10.364  18.775  0.00  0.00    +0.000 C 
BRANCH  10  11
ATOM     11  N   UNL     1      -0.873  10.796  18.747  0.00  0.00    +0.000 N 
ATOM     12  S   UNL     1      -1.536  11.850  19.923  0.00  0.00    +0.000 S 
ATOM     13  C   UNL     1      -3.103  11.791  19.117  0.00  0.00    +0.000 A 
ATOM     14  C   UNL     1      -4.248  12.489  19.456  0.00  0.00    +0.000 A 
ATOM     15  C   UNL     1      -5.376  12.345  18.645  0.00  0.00    +0.000 A 
ATOM     16  C   UNL     1      -5.351  11.510  17.515  0.00  0.00    +0.000 A 
ATOM     17  C   UNL     1      -4.196  10.799  17.187  0.00  0.00    +0.000 A 
ATOM     18  C   UNL     1      -3.083  10.954  18.002  0.00  0.00    +0.000 A 
ATOM     19  C   UNL     1      -1.767  10.327  17.795  0.00  0.00    +0.000 A 
ATOM     20  O   UNL     1      -1.539   9.544  16.889  0.00  0.00    +0.000 OA
ENDBRANCH  10  11
ENDBRANCH   1  10
BRANCH   6  21
ATOM     21  C   UNL     1       3.971   5.544  19.164  0.00  0.00    +0.000 C 
BRANCH  21  22
ATOM     22  C   UNL     1       4.976   5.482  18.029  0.00  0.00    +0.000 A 
ATOM     23  C   UNL     1       6.163   6.250  18.079  0.00  0.00    +0.000 A 
ATOM     24  C   UNL     1       7.070   6.245  17.013  0.00  0.00    +0.000 A 
ATOM     25  C   UNL     1       6.772   5.460  15.919  0.00  0.00    +0.000 A 
ATOM     26  C   UNL     1       5.635   4.691  15.871  0.00  0.00    +0.000 A 
ATOM     27  C   UNL     1       4.722   4.678  16.904  0.00  0.00    +0.000 A 
ATOM     28  O   UNL     1       5.531   3.985  14.712  0.00  0.00    +0.000 OA
ATOM     29  C   UNL     1       6.721   4.424  14.023  0.00  0.00    +0.000 C 
ATOM     30  O   UNL     1       7.522   5.347  14.789  0.00  0.00    +0.000 OA
ENDBRANCH  21  22
ENDBRANCH   6  21
TORSDOF 4
ENDMDL
MODEL 3
REMARK VINA RESULT:      -7.6      3.108      4.400
REMARK  Name = 
REMARK  5 active torsions:
REMARK  status: ('A' for Active; 'I' for Inactive)
REMARK    1  A    between atoms: C_1  and  C_2
REMARK    2  A    between atoms: C_2  and  C_3
REMARK    3  A    between atoms: C_2  and  N_21
REMARK    4  A    between atoms: N_8  and  C_9
REMARK    5  A    between atoms: C_9  and  C_10
REMARK                            x       y       z     vdW  Elec       q    Type
REMARK                         _______ _______ _______ _____ _____    ______ ____
ROOT
ATOM      1  C   UNL     1      -1.278  12.262  22.390  0.00  0.00    +0.000 C 
ATOM      2  O   UNL     1      -1.658  12.400  23.557  0.00  0.00    +0.000 OA
ATOM      3  N   UNL     1      -0.418  11.223  22.054  0.00  0.00    +0.000 N 
ATOM      4  C   UNL     1      -0.205  10.127  23.016  0.00  0.00    +0.000 C 
ATOM      5  C   UNL     1      -0.565   8.745  22.403  0.00  0.00    +0.000 C 
ATOM      6  N   UNL     1      -0.016   8.485  21.043  0.00  0.00    +0.000 NA
ATOM      7  C   UNL     1      -0.354   9.642  20.180  0.00  0.00    +0.000 C 
ATOM      8  C   UNL     1       0.164  10.978  20.736  0.00  0.00    +0.000 C 
ENDROOT
BRANCH   1  10
ATOM      9  C   UNL     1      -1.642  14.706  21.715  0.00  0.00    +0.000 C 
ATOM     10  C   UNL     1      -1.726  13.248  21.277  0.00  0.00    +0.000 C 
BRANCH  10  11
ATOM     11  N   UNL     1      -3.045  12.886  20.771  0.00  0.00    +0.000 N 
ATOM     12  S   UNL     1      -4.467  13.020  21.719  0.00  0.00    +0.000 S 
ATOM     13  C   UNL     1      -5.439  12.421  20.376  0.00  0.00    +0.000 A 
ATOM     14  C   UNL     1      -6.815  12.285  20.331  0.00  0.00    +0.000 A 
ATOM     15  C   UNL     1      -7.398  11.845  19.140  0.00  0.00    +0.000 A 
ATOM     16  C   UNL     1      -6.609  11.545  18.017  0.00  0.00    +0.000 A 
ATOM     17  C   UNL     1      -5.221  11.673  18.074  0.00  0.00    +0.000 A 
ATOM     18  C   UNL     1      -4.656  12.112  19.264  0.00  0.00    +0.000 A 
ATOM     19  C   UNL     1      -3.223  12.351  19.503  0.00  0.00    +0.000 A 
ATOM     20  O   UNL     1      -2.363  12.127  18.668  0.00  0.00    +0.000 OA
ENDBRANCH  10  11
ENDBRANCH   1  10
BRANCH   6  21
ATOM     21  C   UNL     1       1.432   8.218  21.121  0.00  0.00    +0.000 C 
BRANCH  21  22
ATOM     22  C   UNL     1       1.938   7.160  20.158  0.00  0.00    +0.000 A 
ATOM     23  C   UNL     1       2.445   7.528  18.891  0.00  0.00    +0.000 A 
ATOM     24  C   UNL     1       2.861   6.558  17.972  0.00  0.00    +0.000 A 
ATOM     25  C   UNL     1       2.768   5.234  18.347  0.00  0.00    +0.000 A 
ATOM     26  C   UNL     1       2.301   4.867  19.586  0.00  0.00    +0.000 A 
ATOM     27  C   UNL     1       1.881   5.800  20.510  0.00  0.00    +0.000 A 
ATOM     28  O   UNL     1       2.296   3.518  19.762  0.00  0.00    +0.000 OA
ATOM     29  C   UNL     1       2.788   3.078  18.479  0.00  0.00    +0.000 C 
ATOM     30  O   UNL     1       3.105   4.162  17.582  0.00  0.00    +0.000 OA
ENDBRANCH  21  22
ENDBRANCH   6  21
TORSDOF 4
ENDMDL
MODEL 4
REMARK VINA RESULT:      -7.4      1.256      1.735
REMARK  Name = 
REMARK  5 active torsions:
REMARK  status: ('A' for Active; 'I' for Inactive)
REMARK    1  A    between atoms: C_1  and  C_2
REMARK    2  A    between atoms: C_2  and  C_3
REMARK    3  A    between atoms: C_2  and  N_21
REMARK    4  A    between atoms: N_8  and  C_9
REMARK    5  A    between atoms: C_9  and  C_10
REMARK                            x       y       z     vdW  Elec       q    Type
REMARK                         _______ _______ _______ _____ _____    ______ ____
ROOT
ATOM      1  C   UNL     1       0.975   9.182  19.757  0.00  0.00    +0.000 C 
ATOM      2  O   UNL     1       0.343   9.302  20.811  0.00  0.00    +0.000 OA
ATOM      3  N   UNL     1       1.932   8.182  19.628  0.00  0.00    +0.000 N 
ATOM      4  C   UNL     1       1.977   7.097  20.623  0.00  0.00    +0.000 C 
ATOM      5  C   UNL     1       1.821   5.701  19.959  0.00  0.00    +0.000 C 
ATOM      6  N   UNL     1       2.666   5.467  18.755  0.00  0.00    +0.000 NA
ATOM      7  C   UNL     1       2.475   6.607  17.828  0.00  0.00    +0.000 C 
ATOM      8  C   UNL     1       2.800   7.965  18.472  0.00  0.00    +0.000 C 
ENDROOT
BRANCH   1  10
ATOM      9  C   UNL     1       1.706  11.327  18.562  0.00  0.00    +0.000 C 
ATOM     10  C   UNL     1       0.739  10.147  18.564  0.00  0.00    +0.000 C 
BRANCH  10  11
ATOM     11  N   UNL     1      -0.658  10.563  18.508  0.00  0.00    +0.000 N 
ATOM     12  S   UNL     1      -1.759   9.946  17.349  0.00  0.00    +0.000 S 
ATOM     13  C   UNL     1      -3.050  10.937  18.023  0.00  0.00    +0.000 A 
ATOM     14  C   UNL     1      -4.379  10.961  17.638  0.00  0.00    +0.000 A 
ATOM     15  C   UNL     1      -5.260  11.780  18.347  0.00  0.00    +0.000 A 
ATOM     16  C   UNL     1      -4.810  12.564  19.423  0.00  0.00    +0.000 A 
ATOM     17  C   UNL     1      -3.465  12.545  19.798  0.00  0.00    +0.000 A 
ATOM     18  C   UNL     1      -2.603  11.724  19.084  0.00  0.00    +0.000 A 
ATOM     19  C   UNL     1      -1.168  11.535  19.356  0.00  0.00    +0.000 A 
ATOM     20  O   UNL     1      -0.572  12.142  20.228  0.00  0.00    +0.000 OA
ENDBRANCH  10  11
ENDBRANCH   1  10
BRANCH   6  21
ATOM     21  C   UNL     1       4.072   5.264  19.152  0.00  0.00    +0.000 C 
BRANCH  21  22
ATOM     22  C   UNL     1       5.065   5.265  18.004  0.00  0.00    +0.000 A 
ATOM     23  C   UNL     1       6.238   6.050  18.072  0.00  0.00    +0.000 A 
ATOM     24  C   UNL     1       7.133   6.104  16.997  0.00  0.00    +0.000 A 
ATOM     25  C   UNL     1       6.835   5.360  15.875  0.00  0.00    +0.000 A 
ATOM     26  C   UNL     1       5.711   4.573  15.808  0.00  0.00    +0.000 A 
ATOM     27  C   UNL     1       4.810   4.503  16.850  0.00  0.00    +0.000 A 
ATOM     28  O   UNL     1       5.605   3.914  14.623  0.00  0.00    +0.000 OA
ATOM     29  C   UNL     1       6.779   4.401  13.939  0.00  0.00    +0.000 C 
ATOM     30  O   UNL     1       7.573   5.305  14.734  0.00  0.00    +0.000 OA
ENDBRANCH  21  22
ENDBRANCH   6  21
TORSDOF 4
ENDMDL
MODEL 5
REMARK VINA RESULT:      -7.2      1.079      1.411
REMARK  Name = 
REMARK  5 active torsions:
REMARK  status: ('A' for Active; 'I' for Inactive)
REMARK    1  A    between atoms: C_1  and  C_2
REMARK    2  A    between atoms: C_2  and  C_3
REMARK    3  A    between atoms: C_2  and  N_21
REMARK    4  A    between atoms: N_8  and  C_9
REMARK    5  A    between atoms: C_9  and  C_10
REMARK                            x       y       z     vdW  Elec       q    Type
REMARK                         _______ _______ _______ _____ _____    ______ ____
ROOT
ATOM      1  C   UNL     1       0.959   8.551  20.669  0.00  0.00    +0.000 C 
ATOM      2  O   UNL     1       0.184   8.371  21.613  0.00  0.00    +0.000 OA
ATOM      3  N   UNL     1       1.803   7.526  20.254  0.00  0.00    +0.000 N 
ATOM      4  C   UNL     1       1.559   6.156  20.738  0.00  0.00    +0.000 C 
ATOM      5  C   UNL     1       1.353   5.160  19.563  0.00  0.00    +0.000 C 
ATOM      6  N   UNL     1       2.348   5.255  18.460  0.00  0.00    +0.000 NA
ATOM      7  C   UNL     1       2.443   6.675  18.045  0.00  0.00    +0.000 C 
ATOM      8  C   UNL     1       2.815   7.615  19.204  0.00  0.00    +0.000 C 
ENDROOT
BRANCH   1  10
ATOM      9  C   UNL     1       1.213  11.090  20.898  0.00  0.00    +0.000 C 
ATOM     10  C   UNL     1       1.033   9.918  19.938  0.00  0.00    +0.000 C 
BRANCH  10  11
ATOM     11  N   UNL     1      -0.110  10.088  19.049  0.00  0.00    +0.000 N 
ATOM     12  S   UNL     1      -0.175   9.393  17.484  0.00  0.00    +0.000 S 
ATOM     13  C   UNL     1      -1.777  10.082  17.226  0.00  0.00    +0.000 A 
ATOM     14  C   UNL     1      -2.599   9.908  16.126  0.00  0.00    +0.000 A 
ATOM     15  C   UNL     1      -3.865  10.497  16.145  0.00  0.00    +0.000 A 
ATOM     16  C   UNL     1      -4.294  11.251  17.251  0.00  0.00    +0.000 A 
ATOM     17  C   UNL     1      -3.455  11.432  18.351  0.00  0.00    +0.000 A 
ATOM     18  C   UNL     1      -2.200  10.840  18.317  0.00  0.00    +0.000 A 
ATOM     19  C   UNL     1      -1.197  10.879  19.395  0.00  0.00    +0.000 A 
ATOM     20  O   UNL     1      -1.357  11.503  20.430  0.00  0.00    +0.000 OA
ENDBRANCH  10  11
ENDBRANCH   1  10
BRANCH   6  21
ATOM     21  C   UNL     1       3.638   4.683  18.887  0.00  0.00    +0.000 C 
BRANCH  21  22
ATOM     22  C   UNL     1       4.773   4.859  17.895  0.00  0.00    +0.000 A 
ATOM     23  C   UNL     1       5.935   5.580  18.256  0.00  0.00    +0.000 A 
ATOM     24  C   UNL     1       6.964   5.798  17.332  0.00  0.00    +0.000 A 
ATOM     25  C   UNL     1       6.810   5.278  16.064  0.00  0.00    +0.000 A 
ATOM     26  C   UNL     1       5.697   4.554  15.711  0.00  0.00    +0.000 A 
ATOM     27  C   UNL     1       4.666   4.326  16.598  0.00  0.00    +0.000 A 
ATOM     28  O   UNL     1       5.742   4.123  14.421  0.00  0.00    +0.000 OA
ATOM     29  C   UNL     1       7.001   4.686  13.994  0.00  0.00    +0.000 C 
ATOM     30  O   UNL     1       7.691   5.406  15.036  0.00  0.00    +0.000 OA
ENDBRANCH  21  22
ENDBRANCH   6  21
TORSDOF 4
ENDMDL
MODEL 6
REMARK VINA RESULT:      -7.2      1.240      1.808
REMARK  Name = 
REMARK  5 active torsions:
REMARK  status: ('A' for Active; 'I' for Inactive)
REMARK    1  A    between atoms: C_1  and  C_2
REMARK    2  A    between atoms: C_2  and  C_3
REMARK    3  A    between atoms: C_2  and  N_21
REMARK    4  A    between atoms: N_8  and  C_9
REMARK    5  A    between atoms: C_9  and  C_10
REMARK                            x       y       z     vdW  Elec       q    Type
REMARK                         _______ _______ _______ _____ _____    ______ ____
ROOT
ATOM      1  C   UNL     1       0.657  10.222  20.096  0.00  0.00    +0.000 C 
ATOM      2  O   UNL     1       0.204  10.411  21.229  0.00  0.00    +0.000 OA
ATOM      3  N   UNL     1       1.550   9.182  19.866  0.00  0.00    +0.000 N 
ATOM      4  C   UNL     1       1.718   8.140  20.893  0.00  0.00    +0.000 C 
ATOM      5  C   UNL     1       1.417   6.723  20.329  0.00  0.00    +0.000 C 
ATOM      6  N   UNL     1       2.053   6.406  19.021  0.00  0.00    +0.000 NA
ATOM      7  C   UNL     1       1.753   7.513  18.081  0.00  0.00    +0.000 C 
ATOM      8  C   UNL     1       2.218   8.884  18.600  0.00  0.00    +0.000 C 
ENDROOT
BRANCH   1  10
ATOM      9  C   UNL     1       1.063  12.444  18.888  0.00  0.00    +0.000 C 
ATOM     10  C   UNL     1       0.265  11.144  18.910  0.00  0.00    +0.000 C 
BRANCH  10  11
ATOM     11  N   UNL     1      -1.176  11.366  18.885  0.00  0.00    +0.000 N 
ATOM     12  S   UNL     1      -1.967  12.416  19.984  0.00  0.00    +0.000 S 
ATOM     13  C   UNL     1      -3.521  12.059  19.232  0.00  0.00    +0.000 A 
ATOM     14  C   UNL     1      -4.751  12.612  19.542  0.00  0.00    +0.000 A 
ATOM     15  C   UNL     1      -5.858  12.234  18.779  0.00  0.00    +0.000 A 
ATOM     16  C   UNL     1      -5.729  11.313  17.726  0.00  0.00    +0.000 A 
ATOM     17  C   UNL     1      -4.488  10.749  17.428  0.00  0.00    +0.000 A 
ATOM     18  C   UNL     1      -3.397  11.136  18.194  0.00  0.00    +0.000 A 
ATOM     19  C   UNL     1      -2.007  10.689  18.004  0.00  0.00    +0.000 A 
ATOM     20  O   UNL     1      -1.682   9.869  17.163  0.00  0.00    +0.000 OA
ENDBRANCH  10  11
ENDBRANCH   1  10
BRANCH   6  21
ATOM     21  C   UNL     1       3.497   6.167  19.201  0.00  0.00    +0.000 C 
BRANCH  21  22
ATOM     22  C   UNL     1       4.180   5.478  18.034  0.00  0.00    +0.000 A 
ATOM     23  C   UNL     1       3.868   4.137  17.712  0.00  0.00    +0.000 A 
ATOM     24  C   UNL     1       4.532   3.473  16.674  0.00  0.00    +0.000 A 
ATOM     25  C   UNL     1       5.492   4.172  15.973  0.00  0.00    +0.000 A 
ATOM     26  C   UNL     1       5.784   5.482  16.262  0.00  0.00    +0.000 A 
ATOM     27  C   UNL     1       5.149   6.162  17.280  0.00  0.00    +0.000 A 
ATOM     28  O   UNL     1       6.752   5.992  15.452  0.00  0.00    +0.000 OA
ATOM     29  C   UNL     1       7.056   4.839  14.639  0.00  0.00    +0.000 C 
ATOM     30  O   UNL     1       6.249   3.685  14.953  0.00  0.00    +0.000 OA
ENDBRANCH  21  22
ENDBRANCH   6  21
TORSDOF 4
ENDMDL
MODEL 7
REMARK VINA RESULT:      -7.2      1.711      2.366
REMARK  Name = 
REMARK  5 active torsions:
REMARK  status: ('A' for Active; 'I' for Inactive)
REMARK    1  A    between atoms: C_1  and  C_2
REMARK    2  A    between atoms: C_2  and  C_3
REMARK    3  A    between atoms: C_2  and  N_21
REMARK    4  A    between atoms: N_8  and  C_9
REMARK    5  A    between atoms: C_9  and  C_10
REMARK                            x       y       z     vdW  Elec       q    Type
REMARK                         _______ _______ _______ _____ _____    ______ ____
ROOT
ATOM      1  C   UNL     1       0.201  11.020  20.217  0.00  0.00    +0.000 C 
ATOM      2  O   UNL     1      -0.230  10.844  21.361  0.00  0.00    +0.000 OA
ATOM      3  N   UNL     1       1.179  10.177  19.702  0.00  0.00    +0.000 N 
ATOM      4  C   UNL     1       1.477   8.913  20.398  0.00  0.00    +0.000 C 
ATOM      5  C   UNL     1       1.290   7.685  19.465  0.00  0.00    +0.000 C 
ATOM      6  N   UNL     1       1.909   7.805  18.116  0.00  0.00    +0.000 NA
ATOM      7  C   UNL     1       1.476   9.092  17.523  0.00  0.00    +0.000 C 
ATOM      8  C   UNL     1       1.828  10.306  18.399  0.00  0.00    +0.000 C 
ENDROOT
BRANCH   1  10
ATOM      9  C   UNL     1       0.217  13.546  19.790  0.00  0.00    +0.000 C 
ATOM     10  C   UNL     1      -0.314  12.190  19.336  0.00  0.00    +0.000 C 
BRANCH  10  11
ATOM     11  N   UNL     1      -1.769  12.158  19.238  0.00  0.00    +0.000 N 
ATOM     12  S   UNL     1      -2.786  13.001  20.329  0.00  0.00    +0.000 S 
ATOM     13  C   UNL     1      -4.214  12.414  19.477  0.00  0.00    +0.000 A 
ATOM     14  C   UNL     1      -5.536  12.730  19.737  0.00  0.00    +0.000 A 
ATOM     15  C   UNL     1      -6.520  12.201  18.900  0.00  0.00    +0.000 A 
ATOM     16  C   UNL     1      -6.179  11.366  17.822  0.00  0.00    +0.000 A 
ATOM     17  C   UNL     1      -4.844  11.043  17.573  0.00  0.00    +0.000 A 
ATOM     18  C   UNL     1      -3.878  11.577  18.414  0.00  0.00    +0.000 A 
ATOM     19  C   UNL     1      -2.423  11.389  18.286  0.00  0.00    +0.000 A 
ATOM     20  O   UNL     1      -1.917  10.678  17.435  0.00  0.00    +0.000 OA
ENDBRANCH  10  11
ENDBRANCH   1  10
BRANCH   6  21
ATOM     21  C   UNL     1       3.374   7.669  18.214  0.00  0.00    +0.000 C 
BRANCH  21  22
ATOM     22  C   UNL     1       3.960   6.506  17.435  0.00  0.00    +0.000 A 
ATOM     23  C   UNL     1       3.542   5.182  17.700  0.00  0.00    +0.000 A 
ATOM     24  C   UNL     1       4.116   4.096  17.029  0.00  0.00    +0.000 A 
ATOM     25  C   UNL     1       5.095   4.363  16.095  0.00  0.00    +0.000 A 
ATOM     26  C   UNL     1       5.490   5.648  15.810  0.00  0.00    +0.000 A 
ATOM     27  C   UNL     1       4.945   6.736  16.458  0.00  0.00    +0.000 A 
ATOM     28  O   UNL     1       6.458   5.696  14.856  0.00  0.00    +0.000 OA
ATOM     29  C   UNL     1       6.647   4.290  14.593  0.00  0.00    +0.000 C 
ATOM     30  O   UNL     1       5.774   3.439  15.364  0.00  0.00    +0.000 OA
ENDBRANCH  21  22
ENDBRANCH   6  21
TORSDOF 4
ENDMDL
MODEL 8
REMARK VINA RESULT:      -7.1      3.777      9.042
REMARK  Name = 
REMARK  5 active torsions:
REMARK  status: ('A' for Active; 'I' for Inactive)
REMARK    1  A    between atoms: C_1  and  C_2
REMARK    2  A    between atoms: C_2  and  C_3
REMARK    3  A    between atoms: C_2  and  N_21
REMARK    4  A    between atoms: N_8  and  C_9
REMARK    5  A    between atoms: C_9  and  C_10
REMARK                            x       y       z     vdW  Elec       q    Type
REMARK                         _______ _______ _______ _____ _____    ______ ____
ROOT
ATOM      1  C   UNL     1       2.452   3.263  19.032  0.00  0.00    +0.000 C 
ATOM      2  O   UNL     1       2.216   2.375  19.857  0.00  0.00    +0.000 OA
ATOM      3  N   UNL     1       1.881   4.522  19.179  0.00  0.00    +0.000 N 
ATOM      4  C   UNL     1       1.247   4.878  20.461  0.00  0.00    +0.000 C 
ATOM      5  C   UNL     1       1.882   6.152  21.082  0.00  0.00    +0.000 C 
ATOM      6  N   UNL     1       2.065   7.297  20.148  0.00  0.00    +0.000 NA
ATOM      7  C   UNL     1       2.759   6.799  18.937  0.00  0.00    +0.000 C 
ATOM      8  C   UNL     1       2.014   5.643  18.250  0.00  0.00    +0.000 C 
ENDROOT
BRANCH   1  10
ATOM      9  C   UNL     1       3.856   1.556  17.738  0.00  0.00    +0.000 C 
ATOM     10  C   UNL     1       3.366   2.999  17.806  0.00  0.00    +0.000 C 
BRANCH  10  11
ATOM     11  N   UNL     1       4.456   3.967  17.759  0.00  0.00    +0.000 N 
ATOM     12  S   UNL     1       4.759   4.950  16.388  0.00  0.00    +0.000 S 
ATOM     13  C   UNL     1       6.122   5.706  17.212  0.00  0.00    +0.000 A 
ATOM     14  C   UNL     1       6.918   6.737  16.744  0.00  0.00    +0.000 A 
ATOM     15  C   UNL     1       7.916   7.236  17.584  0.00  0.00    +0.000 A 
ATOM     16  C   UNL     1       8.110   6.704  18.870  0.00  0.00    +0.000 A 
ATOM     17  C   UNL     1       7.311   5.656  19.330  0.00  0.00    +0.000 A 
ATOM     18  C   UNL     1       6.324   5.172  18.484  0.00  0.00    +0.000 A 
ATOM     19  C   UNL     1       5.357   4.108  18.804  0.00  0.00    +0.000 A 
ATOM     20  O   UNL     1       5.370   3.494  19.857  0.00  0.00    +0.000 OA
ENDBRANCH  10  11
ENDBRANCH   1  10
BRANCH   6  21
ATOM     21  C   UNL     1       0.766   7.931  19.857  0.00  0.00    +0.000 C 
BRANCH  21  22
ATOM     22  C   UNL     1       0.391   9.072  20.784  0.00  0.00    +0.000 A 
ATOM     23  C   UNL     1      -0.243   8.812  22.021  0.00  0.00    +0.000 A 
ATOM     24  C   UNL     1      -0.645   9.859  22.859  0.00  0.00    +0.000 A 
ATOM     25  C   UNL     1      -0.394  11.149  22.442  0.00  0.00    +0.000 A 
ATOM     26  C   UNL     1       0.245  11.412  21.254  0.00  0.00    +0.000 A 
ATOM     27  C   UNL     1       0.649  10.402  20.407  0.00  0.00    +0.000 A 
ATOM     28  O   UNL     1       0.405  12.745  21.032  0.00  0.00    +0.000 OA
ATOM     29  C   UNL     1      -0.235  13.291  22.204  0.00  0.00    +0.000 C 
ATOM     30  O   UNL     1      -0.729  12.285  23.111  0.00  0.00    +0.000 OA
ENDBRANCH  21  22
ENDBRANCH   6  21
TORSDOF 4
ENDMDL
MODEL 9
REMARK VINA RESULT:      -7.1      2.671      3.925
REMARK  Name = 
REMARK  5 active torsions:
REMARK  status: ('A' for Active; 'I' for Inactive)
REMARK    1  A    between atoms: C_1  and  C_2
REMARK    2  A    between atoms: C_2  and  C_3
REMARK    3  A    between atoms: C_2  and  N_21
REMARK    4  A    between atoms: N_8  and  C_9
REMARK    5  A    between atoms: C_9  and  C_10
REMARK                            x       y       z     vdW  Elec       q    Type
REMARK                         _______ _______ _______ _____ _____    ______ ____
ROOT
ATOM      1  C   UNL     1      -0.253  12.327  21.029  0.00  0.00    +0.000 C 
ATOM      2  O   UNL     1      -0.255  12.308  22.264  0.00  0.00    +0.000 OA
ATOM      3  N   UNL     1       0.561  11.452  20.319  0.00  0.00    +0.000 N 
ATOM      4  C   UNL     1       1.183  10.318  21.023  0.00  0.00    +0.000 C 
ATOM      5  C   UNL     1       0.796   8.958  20.378  0.00  0.00    +0.000 C 
ATOM      6  N   UNL     1       0.909   8.898  18.894  0.00  0.00    +0.000 NA
ATOM      7  C   UNL     1       0.194  10.067  18.329  0.00  0.00    +0.000 C 
ATOM      8  C   UNL     1       0.717  11.409  18.866  0.00  0.00    +0.000 C 
ENDROOT
BRANCH   1  10
ATOM      9  C   UNL     1      -0.839  14.785  20.606  0.00  0.00    +0.000 C 
ATOM     10  C   UNL     1      -1.134  13.333  20.240  0.00  0.00    +0.000 C 
BRANCH  10  11
ATOM     11  N   UNL     1      -2.546  12.994  20.372  0.00  0.00    +0.000 N 
ATOM     12  S   UNL     1      -3.462  13.380  21.767  0.00  0.00    +0.000 S 
ATOM     13  C   UNL     1      -4.896  12.649  21.048  0.00  0.00    +0.000 A 
ATOM     14  C   UNL     1      -6.174  12.609  21.578  0.00  0.00    +0.000 A 
ATOM     15  C   UNL     1      -7.190  12.030  20.814  0.00  0.00    +0.000 A 
ATOM     16  C   UNL     1      -6.922  11.498  19.541  0.00  0.00    +0.000 A 
ATOM     17  C   UNL     1      -5.629  11.531  19.019  0.00  0.00    +0.000 A 
ATOM     18  C   UNL     1      -4.631  12.111  19.789  0.00  0.00    +0.000 A 
ATOM     19  C   UNL     1      -3.222  12.279  19.393  0.00  0.00    +0.000 A 
ATOM     20  O   UNL     1      -2.774  11.862  18.339  0.00  0.00    +0.000 OA
ENDBRANCH  10  11
ENDBRANCH   1  10
BRANCH   6  21
ATOM     21  C   UNL     1       2.327   8.831  18.493  0.00  0.00    +0.000 C 
BRANCH  21  22
ATOM     22  C   UNL     1       2.819   7.445  18.119  0.00  0.00    +0.000 A 
ATOM     23  C   UNL     1       4.064   7.278  17.470  0.00  0.00    +0.000 A 
ATOM     24  C   UNL     1       4.502   6.011  17.068  0.00  0.00    +0.000 A 
ATOM     25  C   UNL     1       3.684   4.933  17.334  0.00  0.00    +0.000 A 
ATOM     26  C   UNL     1       2.485   5.082  17.986  0.00  0.00    +0.000 A 
ATOM     27  C   UNL     1       2.025   6.317  18.391  0.00  0.00    +0.000 A 
ATOM     28  O   UNL     1       1.835   3.898  18.159  0.00  0.00    +0.000 OA
ATOM     29  C   UNL     1       2.752   2.992  17.512  0.00  0.00    +0.000 C 
ATOM     30  O   UNL     1       3.936   3.639  17.001  0.00  0.00    +0.000 OA
ENDBRANCH  21  22
ENDBRANCH   6  21
TORSDOF 4
ENDMDL
