MODEL 1
REMARK VINA RESULT:      -7.8      0.000      0.000
REMARK  Name = 
REMARK  7 active torsions:
REMARK  status: ('A' for Active; 'I' for Inactive)
REMARK    1  A    between atoms: C_1  and  O_2
REMARK    2  A    between atoms: O_2  and  C_3
REMARK    3  A    between atoms: C_6  and  N_7
REMARK    4  A    between atoms: C_11  and  N_12
REMARK    5  A    between atoms: C_13  and  C_15
REMARK    6  A    between atoms: C_15  and  C_16
REMARK    7  A    between atoms: C_16  and  C_17
REMARK                            x       y       z     vdW  Elec       q    Type
REMARK                         _______ _______ _______ _____ _____    ______ ____
ROOT
ATOM      1  N   UNL     1       6.735   7.545  16.886  0.00  0.00    +0.000 N 
ATOM      2  C   UNL     1       7.741   7.797  17.808  0.00  0.00    +0.000 C 
ATOM      3  O   UNL     1       8.155   6.991  18.639  0.00  0.00    +0.000 OA
ATOM      4  H   UNL     1       6.640   8.156  16.083  0.00  0.00    +0.000 HD
ENDROOT
BRANCH   1  10
ATOM      5  C   UNL     1       6.293   5.313  15.977  0.00  0.00    +0.000 A 
ATOM      6  C   UNL     1       5.492   4.163  15.914  0.00  0.00    +0.000 A 
ATOM      7  C   UNL     1       4.375   4.025  16.739  0.00  0.00    +0.000 A 
ATOM      8  C   UNL     1       4.040   5.060  17.615  0.00  0.00    +0.000 A 
ATOM      9  C   UNL     1       4.801   6.231  17.654  0.00  0.00    +0.000 A 
ATOM     10  C   UNL     1       5.939   6.365  16.850  0.00  0.00    +0.000 A 
BRANCH   8  11
ATOM     11  N   UNL     1       2.877   4.917  18.500  0.00  0.00    +0.000 N 
ATOM     12  O   UNL     1       2.633   5.847  19.281  0.00  0.00    +0.000 OA
ATOM     13  O   UNL     1       2.205   3.879  18.414  0.00  0.00    +0.000 OA
ENDBRANCH   8  11
BRANCH   5  15
ATOM     14  C   UNL     1       7.359   4.979  13.887  0.00  0.00    +0.000 C 
ATOM     15  O   UNL     1       7.438   5.473  15.228  0.00  0.00    +0.000 OA
ENDBRANCH   5  15
ENDBRANCH   1  10
BRANCH   2  16
ATOM     16  C   UNL     1       8.316   9.196  17.749  0.00  0.00    +0.000 C 
BRANCH  16  17
ATOM     17  C   UNL     1       8.923   9.567  19.108  0.00  0.00    +0.000 C 
BRANCH  17  18
ATOM     18  C   UNL     1       9.652  10.884  19.049  0.00  0.00    +0.000 A 
ATOM     19  C   UNL     1       9.601  11.674  17.894  0.00  0.00    +0.000 A 
ATOM     20  C   UNL     1      10.334  12.858  17.816  0.00  0.00    +0.000 A 
ATOM     21  C   UNL     1      11.122  13.263  18.893  0.00  0.00    +0.000 A 
ATOM     22  C   UNL     1      11.161  12.494  20.054  0.00  0.00    +0.000 A 
ATOM     23  C   UNL     1      10.428  11.311  20.135  0.00  0.00    +0.000 A 
ENDBRANCH  17  18
ENDBRANCH  16  17
ENDBRANCH   2  16
TORSDOF 6
ENDMDL
MODEL 2
REMARK VINA RESULT:      -7.8      0.117      1.223
REMARK  Name = 
REMARK  7 active torsions:
REMARK  status: ('A' for Active; 'I' for Inactive)
REMARK    1  A    between atoms: C_1  and  O_2
REMARK    2  A    between atoms: O_2  and  C_3
REMARK    3  A    between atoms: C_6  and  N_7
REMARK    4  A    between atoms: C_11  and  N_12
REMARK    5  A    between atoms: C_13  and  C_15
REMARK    6  A    between atoms: C_15  and  C_16
REMARK    7  A    between atoms: C_16  and  C_17
REMARK                            x       y       z     vdW  Elec       q    Type
REMARK                         _______ _______ _______ _____ _____    ______ ____
ROOT
ATOM      1  N   UNL     1       6.727   7.593  16.914  0.00  0.00    +0.000 N 
ATOM      2  C   UNL     1       7.741   7.849  17.826  0.00  0.00    +0.000 C 
ATOM      3  O   UNL     1       8.167   7.044  18.653  0.00  0.00    +0.000 OA
ATOM      4  H   UNL     1       6.621   8.204  16.113  0.00  0.00    +0.000 HD
ENDROOT
BRANCH   1  10
ATOM      5  C   UNL     1       6.271   5.372  15.987  0.00  0.00    +0.000 A 
ATOM      6  C   UNL     1       5.474   4.218  15.930  0.00  0.00    +0.000 A 
ATOM      7  C   UNL     1       4.383   4.062  16.786  0.00  0.00    +0.000 A 
ATOM      8  C   UNL     1       4.068   5.082  17.686  0.00  0.00    +0.000 A 
ATOM      9  C   UNL     1       4.823   6.257  17.719  0.00  0.00    +0.000 A 
ATOM     10  C   UNL     1       5.937   6.409  16.884  0.00  0.00    +0.000 A 
BRANCH   8  11
ATOM     11  N   UNL     1       2.932   4.920  18.602  0.00  0.00    +0.000 N 
ATOM     12  O   UNL     1       2.437   3.789  18.706  0.00  0.00    +0.000 OA
ATOM     13  O   UNL     1       2.536   5.919  19.220  0.00  0.00    +0.000 OA
ENDBRANCH   8  11
BRANCH   5  15
ATOM     14  C   UNL     1       7.339   4.928  13.918  0.00  0.00    +0.000 C 
ATOM     15  O   UNL     1       7.392   5.549  15.207  0.00  0.00    +0.000 OA
ENDBRANCH   5  15
ENDBRANCH   1  10
BRANCH   2  16
ATOM     16  C   UNL     1       8.308   9.251  17.764  0.00  0.00    +0.000 C 
BRANCH  16  17
ATOM     17  C   UNL     1       8.952   9.613  19.108  0.00  0.00    +0.000 C 
BRANCH  17  18
ATOM     18  C   UNL     1       9.739  10.893  19.020  0.00  0.00    +0.000 A 
ATOM     19  C   UNL     1      10.578  11.286  20.072  0.00  0.00    +0.000 A 
ATOM     20  C   UNL     1      11.250  12.508  20.019  0.00  0.00    +0.000 A 
ATOM     21  C   UNL     1      11.092  13.344  18.915  0.00  0.00    +0.000 A 
ATOM     22  C   UNL     1      10.278  12.950  17.854  0.00  0.00    +0.000 A 
ATOM     23  C   UNL     1       9.605  11.730  17.904  0.00  0.00    +0.000 A 
ENDBRANCH  17  18
ENDBRANCH  16  17
ENDBRANCH   2  16
TORSDOF 6
ENDMDL
MODEL 3
REMARK VINA RESULT:      -7.7      4.878      6.674
REMARK  Name = 
REMARK  7 active torsions:
REMARK  status: ('A' for Active; 'I' for Inactive)
REMARK    1  A    between atoms: C_1  and  O_2
REMARK    2  A    between atoms: O_2  and  C_3
REMARK    3  A    between atoms: C_6  and  N_7
REMARK    4  A    between atoms: C_11  and  N_12
REMARK    5  A    between atoms: C_13  and  C_15
REMARK    6  A    between atoms: C_15  and  C_16
REMARK    7  A    between atoms: C_16  and  C_17
REMARK                            x       y       z     vdW  Elec       q    Type
REMARK                         _______ _______ _______ _____ _____    ______ ____
ROOT
ATOM      1  N   UNL     1       5.049   4.332  17.903  0.00  0.00    +0.000 N 
ATOM      2  C   UNL     1       6.371   4.672  18.148  0.00  0.00    +0.000 C 
ATOM      3  O   UNL     1       6.809   5.077  19.224  0.00  0.00    +0.000 OA
ATOM      4  H   UNL     1       4.829   3.769  17.090  0.00  0.00    +0.000 HD
ENDROOT
BRANCH   1  10
ATOM      5  C   UNL     1       3.196   5.702  18.735  0.00  0.00    +0.000 A 
ATOM      6  C   UNL     1       2.158   5.913  19.655  0.00  0.00    +0.000 A 
ATOM      7  C   UNL     1       1.853   4.952  20.620  0.00  0.00    +0.000 A 
ATOM      8  C   UNL     1       2.613   3.782  20.684  0.00  0.00    +0.000 A 
ATOM      9  C   UNL     1       3.680   3.580  19.805  0.00  0.00    +0.000 A 
ATOM     10  C   UNL     1       3.974   4.527  18.816  0.00  0.00    +0.000 A 
BRANCH   8  11
ATOM     11  N   UNL     1       2.289   2.757  21.684  0.00  0.00    +0.000 N 
ATOM     12  O   UNL     1       1.119   2.700  22.089  0.00  0.00    +0.000 OA
ATOM     13  O   UNL     1       3.199   2.006  22.063  0.00  0.00    +0.000 OA
ENDBRANCH   8  11
BRANCH   5  15
ATOM     14  C   UNL     1       2.986   7.915  17.912  0.00  0.00    +0.000 C 
ATOM     15  O   UNL     1       3.499   6.591  17.728  0.00  0.00    +0.000 OA
ENDBRANCH   5  15
ENDBRANCH   1  10
BRANCH   2  16
ATOM     16  C   UNL     1       7.292   4.533  16.954  0.00  0.00    +0.000 C 
BRANCH  16  17
ATOM     17  C   UNL     1       6.929   5.578  15.892  0.00  0.00    +0.000 C 
BRANCH  17  18
ATOM     18  C   UNL     1       6.749   4.950  14.535  0.00  0.00    +0.000 A 
ATOM     19  C   UNL     1       5.711   4.037  14.306  0.00  0.00    +0.000 A 
ATOM     20  C   UNL     1       5.590   3.402  13.069  0.00  0.00    +0.000 A 
ATOM     21  C   UNL     1       6.502   3.678  12.052  0.00  0.00    +0.000 A 
ATOM     22  C   UNL     1       7.524   4.602  12.264  0.00  0.00    +0.000 A 
ATOM     23  C   UNL     1       7.646   5.238  13.499  0.00  0.00    +0.000 A 
ENDBRANCH  17  18
ENDBRANCH  16  17
ENDBRANCH   2  16
TORSDOF 6
ENDMDL
MODEL 4
REMARK VINA RESULT:      -7.6      4.881      6.601
REMARK  Name = 
REMARK  7 active torsions:
REMARK  status: ('A' for Active; 'I' for Inactive)
REMARK    1  A    between atoms: C_1  and  O_2
REMARK    2  A    between atoms: O_2  and  C_3
REMARK    3  A    between atoms: C_6  and  N_7
REMARK    4  A    between atoms: C_11  and  N_12
REMARK    5  A    between atoms: C_13  and  C_15
REMARK    6  A    between atoms: C_15  and  C_16
REMARK    7  A    between atoms: C_16  and  C_17
REMARK                            x       y       z     vdW  Elec       q    Type
REMARK                         _______ _______ _______ _____ _____    ______ ____
ROOT
ATOM      1  N   UNL     1       5.012   4.654  17.868  0.00  0.00    +0.000 N 
ATOM      2  C   UNL     1       6.357   4.705  18.200  0.00  0.00    +0.000 C 
ATOM      3  O   UNL     1       6.799   4.853  19.338  0.00  0.00    +0.000 OA
ATOM      4  H   UNL     1       4.741   4.274  16.969  0.00  0.00    +0.000 HD
ENDROOT
BRANCH   1  10
ATOM      5  C   UNL     1       3.335   6.175  18.807  0.00  0.00    +0.000 A 
ATOM      6  C   UNL     1       2.301   6.429  19.720  0.00  0.00    +0.000 A 
ATOM      7  C   UNL     1       1.828   5.422  20.563  0.00  0.00    +0.000 A 
ATOM      8  C   UNL     1       2.416   4.156  20.511  0.00  0.00    +0.000 A 
ATOM      9  C   UNL     1       3.478   3.902  19.640  0.00  0.00    +0.000 A 
ATOM     10  C   UNL     1       3.939   4.899  18.772  0.00  0.00    +0.000 A 
BRANCH   8  11
ATOM     11  N   UNL     1       1.914   3.084  21.380  0.00  0.00    +0.000 N 
ATOM     12  O   UNL     1       2.689   2.626  22.231  0.00  0.00    +0.000 OA
ATOM     13  O   UNL     1       0.746   2.702  21.217  0.00  0.00    +0.000 OA
ENDBRANCH   8  11
BRANCH   5  15
ATOM     14  C   UNL     1       2.898   8.200  17.655  0.00  0.00    +0.000 C 
ATOM     15  O   UNL     1       3.797   7.116  17.914  0.00  0.00    +0.000 OA
ENDBRANCH   5  15
ENDBRANCH   1  10
BRANCH   2  16
ATOM     16  C   UNL     1       7.304   4.586  17.024  0.00  0.00    +0.000 C 
BRANCH  16  17
ATOM     17  C   UNL     1       6.905   5.585  15.931  0.00  0.00    +0.000 C 
BRANCH  17  18
ATOM     18  C   UNL     1       6.795   4.920  14.584  0.00  0.00    +0.000 A 
ATOM     19  C   UNL     1       7.675   5.261  13.549  0.00  0.00    +0.000 A 
ATOM     20  C   UNL     1       7.527   4.697  12.282  0.00  0.00    +0.000 A 
ATOM     21  C   UNL     1       6.499   3.786  12.041  0.00  0.00    +0.000 A 
ATOM     22  C   UNL     1       5.632   3.425  13.071  0.00  0.00    +0.000 A 
ATOM     23  C   UNL     1       5.780   3.987  14.338  0.00  0.00    +0.000 A 
ENDBRANCH  17  18
ENDBRANCH  16  17
ENDBRANCH   2  16
TORSDOF 6
ENDMDL
MODEL 5
REMARK VINA RESULT:      -7.6      4.866      6.642
REMARK  Name = 
REMARK  7 active torsions:
REMARK  status: ('A' for Active; 'I' for Inactive)
REMARK    1  A    between atoms: C_1  and  O_2
REMARK    2  A    between atoms: O_2  and  C_3
REMARK    3  A    between atoms: C_6  and  N_7
REMARK    4  A    between atoms: C_11  and  N_12
REMARK    5  A    between atoms: C_13  and  C_15
REMARK    6  A    between atoms: C_15  and  C_16
REMARK    7  A    between atoms: C_16  and  C_17
REMARK                            x       y       z     vdW  Elec       q    Type
REMARK                         _______ _______ _______ _____ _____    ______ ____
ROOT
ATOM      1  N   UNL     1       5.016   4.650  17.911  0.00  0.00    +0.000 N 
ATOM      2  C   UNL     1       6.361   4.696  18.245  0.00  0.00    +0.000 C 
ATOM      3  O   UNL     1       6.802   4.822  19.386  0.00  0.00    +0.000 OA
ATOM      4  H   UNL     1       4.746   4.287  17.004  0.00  0.00    +0.000 HD
ENDROOT
BRANCH   1  10
ATOM      5  C   UNL     1       3.414   3.790  19.554  0.00  0.00    +0.000 A 
ATOM      6  C   UNL     1       2.334   4.001  20.423  0.00  0.00    +0.000 A 
ATOM      7  C   UNL     1       1.805   5.279  20.608  0.00  0.00    +0.000 A 
ATOM      8  C   UNL     1       2.343   6.352  19.894  0.00  0.00    +0.000 A 
ATOM      9  C   UNL     1       3.387   6.149  18.988  0.00  0.00    +0.000 A 
ATOM     10  C   UNL     1       3.942   4.874  18.818  0.00  0.00    +0.000 A 
BRANCH   8  11
ATOM     11  N   UNL     1       1.806   7.703  20.094  0.00  0.00    +0.000 N 
ATOM     12  O   UNL     1       1.343   7.976  21.211  0.00  0.00    +0.000 OA
ATOM     13  O   UNL     1       1.848   8.493  19.141  0.00  0.00    +0.000 OA
ENDBRANCH   8  11
BRANCH   5  15
ATOM     14  C   UNL     1       3.290   1.650  18.543  0.00  0.00    +0.000 C 
ATOM     15  O   UNL     1       4.010   2.560  19.380  0.00  0.00    +0.000 OA
ENDBRANCH   5  15
ENDBRANCH   1  10
BRANCH   2  16
ATOM     16  C   UNL     1       7.309   4.603  17.068  0.00  0.00    +0.000 C 
BRANCH  16  17
ATOM     17  C   UNL     1       6.882   5.592  15.976  0.00  0.00    +0.000 C 
BRANCH  17  18
ATOM     18  C   UNL     1       6.801   4.928  14.627  0.00  0.00    +0.000 A 
ATOM     19  C   UNL     1       7.709   5.263  13.614  0.00  0.00    +0.000 A 
ATOM     20  C   UNL     1       7.587   4.700  12.343  0.00  0.00    +0.000 A 
ATOM     21  C   UNL     1       6.560   3.797  12.076  0.00  0.00    +0.000 A 
ATOM     22  C   UNL     1       5.665   3.441  13.084  0.00  0.00    +0.000 A 
ATOM     23  C   UNL     1       5.786   4.001  14.355  0.00  0.00    +0.000 A 
ENDBRANCH  17  18
ENDBRANCH  16  17
ENDBRANCH   2  16
TORSDOF 6
ENDMDL
MODEL 6
REMARK VINA RESULT:      -7.4      2.001      3.446
REMARK  Name = 
REMARK  7 active torsions:
REMARK  status: ('A' for Active; 'I' for Inactive)
REMARK    1  A    between atoms: C_1  and  O_2
REMARK    2  A    between atoms: O_2  and  C_3
REMARK    3  A    between atoms: C_6  and  N_7
REMARK    4  A    between atoms: C_11  and  N_12
REMARK    5  A    between atoms: C_13  and  C_15
REMARK    6  A    between atoms: C_15  and  C_16
REMARK    7  A    between atoms: C_16  and  C_17
REMARK                            x       y       z     vdW  Elec       q    Type
REMARK                         _______ _______ _______ _____ _____    ______ ____
ROOT
ATOM      1  N   UNL     1       7.719   6.599  17.905  0.00  0.00    +0.000 N 
ATOM      2  C   UNL     1       7.623   7.976  17.764  0.00  0.00    +0.000 C 
ATOM      3  O   UNL     1       6.835   8.556  17.019  0.00  0.00    +0.000 OA
ATOM      4  H   UNL     1       8.197   6.220  18.714  0.00  0.00    +0.000 HD
ENDROOT
BRANCH   1  10
ATOM      5  C   UNL     1       6.037   4.828  17.719  0.00  0.00    +0.000 A 
ATOM      6  C   UNL     1       5.366   3.865  16.951  0.00  0.00    +0.000 A 
ATOM      7  C   UNL     1       5.618   3.740  15.584  0.00  0.00    +0.000 A 
ATOM      8  C   UNL     1       6.572   4.566  14.986  0.00  0.00    +0.000 A 
ATOM      9  C   UNL     1       7.283   5.496  15.749  0.00  0.00    +0.000 A 
ATOM     10  C   UNL     1       7.015   5.647  17.115  0.00  0.00    +0.000 A 
BRANCH   8  11
ATOM     11  N   UNL     1       6.832   4.455  13.546  0.00  0.00    +0.000 N 
ATOM     12  O   UNL     1       7.618   5.268  13.040  0.00  0.00    +0.000 OA
ATOM     13  O   UNL     1       6.256   3.554  12.919  0.00  0.00    +0.000 OA
ENDBRANCH   8  11
BRANCH   5  15
ATOM     14  C   UNL     1       4.422   5.341  19.376  0.00  0.00    +0.000 C 
ATOM     15  O   UNL     1       5.782   5.031  19.058  0.00  0.00    +0.000 OA
ENDBRANCH   5  15
ENDBRANCH   1  10
BRANCH   2  16
ATOM     16  C   UNL     1       8.606   8.768  18.599  0.00  0.00    +0.000 C 
BRANCH  16  17
ATOM     17  C   UNL     1       8.554  10.248  18.202  0.00  0.00    +0.000 C 
BRANCH  17  18
ATOM     18  C   UNL     1       9.743  11.007  18.731  0.00  0.00    +0.000 A 
ATOM     19  C   UNL     1      10.742  11.459  17.859  0.00  0.00    +0.000 A 
ATOM     20  C   UNL     1      11.877  12.099  18.359  0.00  0.00    +0.000 A 
ATOM     21  C   UNL     1      12.020  12.294  19.732  0.00  0.00    +0.000 A 
ATOM     22  C   UNL     1      11.020  11.867  20.604  0.00  0.00    +0.000 A 
ATOM     23  C   UNL     1       9.884  11.228  20.107  0.00  0.00    +0.000 A 
ENDBRANCH  17  18
ENDBRANCH  16  17
ENDBRANCH   2  16
TORSDOF 6
ENDMDL
MODEL 7
REMARK VINA RESULT:      -7.3      5.240      6.892
REMARK  Name = 
REMARK  7 active torsions:
REMARK  status: ('A' for Active; 'I' for Inactive)
REMARK    1  A    between atoms: C_1  and  O_2
REMARK    2  A    between atoms: O_2  and  C_3
REMARK    3  A    between atoms: C_6  and  N_7
REMARK    4  A    between atoms: C_11  and  N_12
REMARK    5  A    between atoms: C_13  and  C_15
REMARK    6  A    between atoms: C_15  and  C_16
REMARK    7  A    between atoms: C_16  and  C_17
REMARK                            x       y       z     vdW  Elec       q    Type
REMARK                         _______ _______ _______ _____ _____    ______ ____
ROOT
ATOM      1  N   UNL     1       4.478   4.707  17.831  0.00  0.00    +0.000 N 
ATOM      2  C   UNL     1       5.851   4.674  18.028  0.00  0.00    +0.000 C 
ATOM      3  O   UNL     1       6.411   4.763  19.120  0.00  0.00    +0.000 OA
ATOM      4  H   UNL     1       4.099   4.369  16.955  0.00  0.00    +0.000 HD
ENDROOT
BRANCH   1  10
ATOM      5  C   UNL     1       3.002   3.918  19.621  0.00  0.00    +0.000 A 
ATOM      6  C   UNL     1       2.028   4.179  20.597  0.00  0.00    +0.000 A 
ATOM      7  C   UNL     1       1.596   5.483  20.844  0.00  0.00    +0.000 A 
ATOM      8  C   UNL     1       2.121   6.532  20.086  0.00  0.00    +0.000 A 
ATOM      9  C   UNL     1       3.056   6.282  19.078  0.00  0.00    +0.000 A 
ATOM     10  C   UNL     1       3.516   4.980  18.844  0.00  0.00    +0.000 A 
BRANCH   8  11
ATOM     11  N   UNL     1       1.686   7.909  20.350  0.00  0.00    +0.000 N 
ATOM     12  O   UNL     1       1.630   8.687  19.387  0.00  0.00    +0.000 OA
ATOM     13  O   UNL     1       1.397   8.215  21.515  0.00  0.00    +0.000 OA
ENDBRANCH   8  11
BRANCH   5  15
ATOM     14  C   UNL     1       4.361   2.141  20.404  0.00  0.00    +0.000 C 
ATOM     15  O   UNL     1       3.505   2.659  19.380  0.00  0.00    +0.000 OA
ENDBRANCH   5  15
ENDBRANCH   1  10
BRANCH   2  16
ATOM     16  C   UNL     1       6.668   4.542  16.761  0.00  0.00    +0.000 C 
BRANCH  16  17
ATOM     17  C   UNL     1       5.863   3.784  15.698  0.00  0.00    +0.000 C 
BRANCH  17  18
ATOM     18  C   UNL     1       6.361   4.081  14.308  0.00  0.00    +0.000 A 
ATOM     19  C   UNL     1       5.876   3.359  13.210  0.00  0.00    +0.000 A 
ATOM     20  C   UNL     1       6.390   3.587  11.933  0.00  0.00    +0.000 A 
ATOM     21  C   UNL     1       7.390   4.539  11.744  0.00  0.00    +0.000 A 
ATOM     22  C   UNL     1       7.862   5.277  12.828  0.00  0.00    +0.000 A 
ATOM     23  C   UNL     1       7.349   5.053  14.104  0.00  0.00    +0.000 A 
ENDBRANCH  17  18
ENDBRANCH  16  17
ENDBRANCH   2  16
TORSDOF 6
ENDMDL
MODEL 8
REMARK VINA RESULT:      -7.3      1.290      1.736
REMARK  Name = 
REMARK  7 active torsions:
REMARK  status: ('A' for Active; 'I' for Inactive)
REMARK    1  A    between atoms: C_1  and  O_2
REMARK    2  A    between atoms: O_2  and  C_3
REMARK    3  A    between atoms: C_6  and  N_7
REMARK    4  A    between atoms: C_11  and  N_12
REMARK    5  A    between atoms: C_13  and  C_15
REMARK    6  A    between atoms: C_15  and  C_16
REMARK    7  A    between atoms: C_16  and  C_17
REMARK                            x       y       z     vdW  Elec       q    Type
REMARK                         _______ _______ _______ _____ _____    ______ ____
ROOT
ATOM      1  N   UNL     1       7.049   6.281  18.435  0.00  0.00    +0.000 N 
ATOM      2  C   UNL     1       7.253   7.483  17.774  0.00  0.00    +0.000 C 
ATOM      3  O   UNL     1       6.533   7.930  16.883  0.00  0.00    +0.000 OA
ATOM      4  H   UNL     1       7.523   6.117  19.316  0.00  0.00    +0.000 HD
ENDROOT
BRANCH   1  10
ATOM      5  C   UNL     1       6.212   4.542  16.925  0.00  0.00    +0.000 A 
ATOM      6  C   UNL     1       5.218   3.620  16.566  0.00  0.00    +0.000 A 
ATOM      7  C   UNL     1       4.098   3.425  17.375  0.00  0.00    +0.000 A 
ATOM      8  C   UNL     1       3.957   4.183  18.540  0.00  0.00    +0.000 A 
ATOM      9  C   UNL     1       4.914   5.140  18.884  0.00  0.00    +0.000 A 
ATOM     10  C   UNL     1       6.055   5.320  18.092  0.00  0.00    +0.000 A 
BRANCH   8  11
ATOM     11  N   UNL     1       2.791   3.974  19.407  0.00  0.00    +0.000 N 
ATOM     12  O   UNL     1       1.909   3.202  19.006  0.00  0.00    +0.000 OA
ATOM     13  O   UNL     1       2.755   4.577  20.489  0.00  0.00    +0.000 OA
ENDBRANCH   8  11
BRANCH   5  15
ATOM     14  C   UNL     1       7.165   4.920  14.788  0.00  0.00    +0.000 C 
ATOM     15  O   UNL     1       7.364   4.729  16.192  0.00  0.00    +0.000 OA
ENDBRANCH   5  15
ENDBRANCH   1  10
BRANCH   2  16
ATOM     16  C   UNL     1       8.485   8.245  18.213  0.00  0.00    +0.000 C 
BRANCH  16  17
ATOM     17  C   UNL     1       8.264   9.750  18.021  0.00  0.00    +0.000 C 
BRANCH  17  18
ATOM     18  C   UNL     1       9.364  10.559  18.656  0.00  0.00    +0.000 A 
ATOM     19  C   UNL     1       9.389  10.759  20.042  0.00  0.00    +0.000 A 
ATOM     20  C   UNL     1      10.369  11.568  20.620  0.00  0.00    +0.000 A 
ATOM     21  C   UNL     1      11.330  12.180  19.817  0.00  0.00    +0.000 A 
ATOM     22  C   UNL     1      11.325  11.968  18.440  0.00  0.00    +0.000 A 
ATOM     23  C   UNL     1      10.349  11.159  17.860  0.00  0.00    +0.000 A 
ENDBRANCH  17  18
ENDBRANCH  16  17
ENDBRANCH   2  16
TORSDOF 6
ENDMDL
MODEL 9
REMARK VINA RESULT:      -7.3      1.977      3.734
REMARK  Name = 
REMARK  7 active torsions:
REMARK  status: ('A' for Active; 'I' for Inactive)
REMARK    1  A    between atoms: C_1  and  O_2
REMARK    2  A    between atoms: O_2  and  C_3
REMARK    3  A    between atoms: C_6  and  N_7
REMARK    4  A    between atoms: C_11  and  N_12
REMARK    5  A    between atoms: C_13  and  C_15
REMARK    6  A    between atoms: C_15  and  C_16
REMARK    7  A    between atoms: C_16  and  C_17
REMARK                            x       y       z     vdW  Elec       q    Type
REMARK                         _______ _______ _______ _____ _____    ______ ____
ROOT
ATOM      1  N   UNL     1       7.614   6.292  17.397  0.00  0.00    +0.000 N 
ATOM      2  C   UNL     1       7.414   7.659  17.521  0.00  0.00    +0.000 C 
ATOM      3  O   UNL     1       6.493   8.289  17.004  0.00  0.00    +0.000 OA
ATOM      4  H   UNL     1       8.226   5.823  18.053  0.00  0.00    +0.000 HD
ENDROOT
BRANCH   1  10
ATOM      5  C   UNL     1       5.717   4.782  17.051  0.00  0.00    +0.000 A 
ATOM      6  C   UNL     1       4.994   3.907  16.225  0.00  0.00    +0.000 A 
ATOM      7  C   UNL     1       5.366   3.710  14.895  0.00  0.00    +0.000 A 
ATOM      8  C   UNL     1       6.489   4.372  14.394  0.00  0.00    +0.000 A 
ATOM      9  C   UNL     1       7.246   5.208  15.217  0.00  0.00    +0.000 A 
ATOM     10  C   UNL     1       6.863   5.433  16.545  0.00  0.00    +0.000 A 
BRANCH   8  11
ATOM     11  N   UNL     1       6.878   4.186  12.990  0.00  0.00    +0.000 N 
ATOM     12  O   UNL     1       6.393   3.220  12.384  0.00  0.00    +0.000 OA
ATOM     13  O   UNL     1       7.664   5.004  12.491  0.00  0.00    +0.000 OA
ENDBRANCH   8  11
BRANCH   5  15
ATOM     14  C   UNL     1       4.897   3.928  19.104  0.00  0.00    +0.000 C 
ATOM     15  O   UNL     1       5.357   5.055  18.352  0.00  0.00    +0.000 OA
ENDBRANCH   5  15
ENDBRANCH   1  10
BRANCH   2  16
ATOM     16  C   UNL     1       8.458   8.378  18.350  0.00  0.00    +0.000 C 
BRANCH  16  17
ATOM     17  C   UNL     1       8.373   9.888  18.099  0.00  0.00    +0.000 C 
BRANCH  17  18
ATOM     18  C   UNL     1       9.495  10.628  18.780  0.00  0.00    +0.000 A 
ATOM     19  C   UNL     1       9.429  10.914  20.150  0.00  0.00    +0.000 A 
ATOM     20  C   UNL     1      10.435  11.661  20.764  0.00  0.00    +0.000 A 
ATOM     21  C   UNL     1      11.514  12.126  20.014  0.00  0.00    +0.000 A 
ATOM     22  C   UNL     1      11.598  11.827  18.655  0.00  0.00    +0.000 A 
ATOM     23  C   UNL     1      10.595  11.080  18.040  0.00  0.00    +0.000 A 
ENDBRANCH  17  18
ENDBRANCH  16  17
ENDBRANCH   2  16
TORSDOF 6
ENDMDL
