MODEL 1
REMARK VINA RESULT:      -7.6      0.000      0.000
REMARK  Name = 
REMARK  7 active torsions:
REMARK  status: ('A' for Active; 'I' for Inactive)
REMARK    1  A    between atoms: C_1  and  N_2
REMARK    2  A    between atoms: N_2  and  C_3
REMARK    3  A    between atoms: C_4  and  C_6
REMARK    4  A    between atoms: C_11  and  C_13
REMARK    5  A    between atoms: C_18  and  N_19
REMARK    6  A    between atoms: C_21  and  C_22
REMARK    7  A    between atoms: C_22  and  N_23
REMARK                            x       y       z     vdW  Elec       q    Type
REMARK                         _______ _______ _______ _____ _____    ______ ____
ROOT
ATOM      1  C   UNL     1       6.044   4.594  16.816  0.00  0.00    +0.000 A 
ATOM      2  C   UNL     1       5.587   3.714  15.815  0.00  0.00    +0.000 A 
ATOM      3  C   UNL     1       6.081   3.774  14.513  0.00  0.00    +0.000 A 
ATOM      4  C   UNL     1       6.967   4.783  14.158  0.00  0.00    +0.000 A 
ATOM      5  C   UNL     1       7.343   5.741  15.101  0.00  0.00    +0.000 A 
ATOM      6  C   UNL     1       6.898   5.646  16.437  0.00  0.00    +0.000 A 
ENDROOT
BRANCH   1  12
ATOM      7  C   UNL     1       2.352   5.324  19.971  0.00  0.00    +0.000 C 
ATOM      8  C   UNL     1       1.963   6.705  19.392  0.00  0.00    +0.000 C 
ATOM      9  C   UNL     1       2.474   6.868  17.959  0.00  0.00    +0.000 C 
ATOM     10  C   UNL     1       3.957   6.544  17.813  0.00  0.00    +0.000 C 
ATOM     11  N   UNL     1       4.384   5.344  18.538  0.00  0.00    +0.000 N 
ATOM     12  C   UNL     1       5.436   4.490  18.167  0.00  0.00    +0.000 C 
ATOM     13  O   UNL     1       5.936   3.668  18.940  0.00  0.00    +0.000 OA
ATOM     14  C   UNL     1       3.876   5.228  19.901  0.00  0.00    +0.000 C 
BRANCH   7  18
ATOM     15  C   UNL     1       0.422   2.073  19.161  0.00  0.00    +0.000 C 
ATOM     16  N   UNL     1       1.189   3.051  19.916  0.00  0.00    +0.000 N 
ATOM     17  C   UNL     1       1.409   2.762  21.320  0.00  0.00    +0.000 C 
ATOM     18  C   UNL     1       1.542   4.219  19.260  0.00  0.00    +0.000 C 
ATOM     19  O   UNL     1       1.115   4.419  18.114  0.00  0.00    +0.000 OA
ENDBRANCH   7  18
ENDBRANCH   1  12
BRANCH   6  20
ATOM     20  N   UNL     1       7.384   6.610  17.355  0.00  0.00    +0.000 N 
ATOM     21  C   UNL     1       7.522   7.962  17.117  0.00  0.00    +0.000 A 
ATOM     22  C   UNL     1       8.250   8.504  18.155  0.00  0.00    +0.000 A 
ATOM     23  C   UNL     1       8.480   7.396  18.997  0.00  0.00    +0.000 A 
ATOM     24  N   UNL     1       7.955   6.260  18.534  0.00  0.00    +0.000 NA
BRANCH  22  25
ATOM     25  C   UNL     1       8.668   9.914  18.347  0.00  0.00    +0.000 C 
BRANCH  25  26
ATOM     26  N   UNL     1       9.358  10.024  19.626  0.00  0.00    +0.000 NA
ATOM     27  H   UNL     1       9.151   9.198  20.187  0.00  0.00    +0.000 HD
ATOM     28  H   UNL     1       8.987  10.821  20.139  0.00  0.00    +0.000 HD
ENDBRANCH  25  26
ENDBRANCH  22  25
ENDBRANCH   6  20
TORSDOF 5
ENDMDL
MODEL 2
REMARK VINA RESULT:      -6.6      2.540      6.527
REMARK  Name = 
REMARK  7 active torsions:
REMARK  status: ('A' for Active; 'I' for Inactive)
REMARK    1  A    between atoms: C_1  and  N_2
REMARK    2  A    between atoms: N_2  and  C_3
REMARK    3  A    between atoms: C_4  and  C_6
REMARK    4  A    between atoms: C_11  and  C_13
REMARK    5  A    between atoms: C_18  and  N_19
REMARK    6  A    between atoms: C_21  and  C_22
REMARK    7  A    between atoms: C_22  and  N_23
REMARK                            x       y       z     vdW  Elec       q    Type
REMARK                         _______ _______ _______ _____ _____    ______ ____
ROOT
ATOM      1  C   UNL     1       2.594   4.988  18.715  0.00  0.00    +0.000 A 
ATOM      2  C   UNL     1       2.661   3.610  18.429  0.00  0.00    +0.000 A 
ATOM      3  C   UNL     1       1.890   2.683  19.130  0.00  0.00    +0.000 A 
ATOM      4  C   UNL     1       1.114   3.105  20.202  0.00  0.00    +0.000 A 
ATOM      5  C   UNL     1       1.124   4.447  20.582  0.00  0.00    +0.000 A 
ATOM      6  C   UNL     1       1.849   5.399  19.835  0.00  0.00    +0.000 A 
ENDROOT
BRANCH   1  12
ATOM      7  C   UNL     1       7.025   6.446  17.176  0.00  0.00    +0.000 C 
ATOM      8  C   UNL     1       7.733   6.126  18.513  0.00  0.00    +0.000 C 
ATOM      9  C   UNL     1       6.932   5.115  19.336  0.00  0.00    +0.000 C 
ATOM     10  C   UNL     1       5.468   5.507  19.504  0.00  0.00    +0.000 C 
ATOM     11  N   UNL     1       4.839   6.016  18.281  0.00  0.00    +0.000 N 
ATOM     12  C   UNL     1       3.479   5.902  17.949  0.00  0.00    +0.000 C 
ATOM     13  O   UNL     1       2.947   6.578  17.064  0.00  0.00    +0.000 OA
ATOM     14  C   UNL     1       5.635   6.978  17.528  0.00  0.00    +0.000 C 
BRANCH   7  18
ATOM     15  C   UNL     1       6.394   3.895  14.339  0.00  0.00    +0.000 C 
ATOM     16  N   UNL     1       6.249   5.089  15.156  0.00  0.00    +0.000 N 
ATOM     17  C   UNL     1       5.314   6.091  14.682  0.00  0.00    +0.000 C 
ATOM     18  C   UNL     1       7.093   5.214  16.246  0.00  0.00    +0.000 C 
ATOM     19  O   UNL     1       7.983   4.371  16.419  0.00  0.00    +0.000 OA
ENDBRANCH   7  18
ENDBRANCH   1  12
BRANCH   6  20
ATOM     20  N   UNL     1       1.749   6.755  20.235  0.00  0.00    +0.000 N 
ATOM     21  C   UNL     1       1.270   7.211  21.446  0.00  0.00    +0.000 A 
ATOM     22  C   UNL     1       1.105   8.577  21.349  0.00  0.00    +0.000 A 
ATOM     23  C   UNL     1       1.546   8.861  20.040  0.00  0.00    +0.000 A 
ATOM     24  N   UNL     1       1.946   7.779  19.370  0.00  0.00    +0.000 NA
BRANCH  22  25
ATOM     25  C   UNL     1       0.604   9.518  22.381  0.00  0.00    +0.000 C 
BRANCH  25  26
ATOM     26  N   UNL     1      -0.662   9.011  22.897  0.00  0.00    +0.000 NA
ATOM     27  H   UNL     1      -0.618   7.993  22.942  0.00  0.00    +0.000 HD
ATOM     28  H   UNL     1      -1.406   9.238  22.241  0.00  0.00    +0.000 HD
ENDBRANCH  25  26
ENDBRANCH  22  25
ENDBRANCH   6  20
TORSDOF 5
ENDMDL
MODEL 3
REMARK VINA RESULT:      -6.5      1.978      6.023
REMARK  Name = 
REMARK  7 active torsions:
REMARK  status: ('A' for Active; 'I' for Inactive)
REMARK    1  A    between atoms: C_1  and  N_2
REMARK    2  A    between atoms: N_2  and  C_3
REMARK    3  A    between atoms: C_4  and  C_6
REMARK    4  A    between atoms: C_11  and  C_13
REMARK    5  A    between atoms: C_18  and  N_19
REMARK    6  A    between atoms: C_21  and  C_22
REMARK    7  A    between atoms: C_22  and  N_23
REMARK                            x       y       z     vdW  Elec       q    Type
REMARK                         _______ _______ _______ _____ _____    ______ ____
ROOT
ATOM      1  C   UNL     1       3.464   3.773  19.442  0.00  0.00    +0.000 A 
ATOM      2  C   UNL     1       3.143   2.489  19.926  0.00  0.00    +0.000 A 
ATOM      3  C   UNL     1       1.825   2.118  20.187  0.00  0.00    +0.000 A 
ATOM      4  C   UNL     1       0.809   3.057  20.067  0.00  0.00    +0.000 A 
ATOM      5  C   UNL     1       1.114   4.369  19.704  0.00  0.00    +0.000 A 
ATOM      6  C   UNL     1       2.438   4.734  19.375  0.00  0.00    +0.000 A 
ENDROOT
BRANCH   1  12
ATOM      7  C   UNL     1       7.204   5.203  16.598  0.00  0.00    +0.000 C 
ATOM      8  C   UNL     1       6.714   4.432  15.350  0.00  0.00    +0.000 C 
ATOM      9  C   UNL     1       5.217   4.127  15.440  0.00  0.00    +0.000 C 
ATOM     10  C   UNL     1       4.820   3.467  16.755  0.00  0.00    +0.000 C 
ATOM     11  N   UNL     1       5.449   4.060  17.939  0.00  0.00    +0.000 N 
ATOM     12  C   UNL     1       4.897   4.101  19.230  0.00  0.00    +0.000 C 
ATOM     13  O   UNL     1       5.565   4.350  20.237  0.00  0.00    +0.000 OA
ATOM     14  C   UNL     1       6.876   4.333  17.812  0.00  0.00    +0.000 C 
BRANCH   7  18
ATOM     15  C   UNL     1       6.492   8.929  17.350  0.00  0.00    +0.000 C 
ATOM     16  N   UNL     1       7.097   7.609  17.446  0.00  0.00    +0.000 N 
ATOM     17  C   UNL     1       8.215   7.472  18.359  0.00  0.00    +0.000 C 
ATOM     18  C   UNL     1       6.627   6.635  16.581  0.00  0.00    +0.000 C 
ATOM     19  O   UNL     1       5.800   6.947  15.713  0.00  0.00    +0.000 OA
ENDBRANCH   7  18
ENDBRANCH   1  12
BRANCH   6  20
ATOM     20  N   UNL     1       2.658   6.065  18.942  0.00  0.00    +0.000 N 
ATOM     21  C   UNL     1       2.134   7.204  19.516  0.00  0.00    +0.000 A 
ATOM     22  C   UNL     1       2.378   8.260  18.664  0.00  0.00    +0.000 A 
ATOM     23  C   UNL     1       3.092   7.660  17.606  0.00  0.00    +0.000 A 
ATOM     24  N   UNL     1       3.277   6.348  17.769  0.00  0.00    +0.000 NA
BRANCH  22  25
ATOM     25  C   UNL     1       2.000   9.684  18.833  0.00  0.00    +0.000 C 
BRANCH  25  26
ATOM     26  N   UNL     1       1.982  10.319  17.521  0.00  0.00    +0.000 NA
ATOM     27  H   UNL     1       1.079  10.146  17.081  0.00  0.00    +0.000 HD
ATOM     28  H   UNL     1       2.682   9.880  16.927  0.00  0.00    +0.000 HD
ENDBRANCH  25  26
ENDBRANCH  22  25
ENDBRANCH   6  20
TORSDOF 5
ENDMDL
MODEL 4
REMARK VINA RESULT:      -6.3      1.943      6.074
REMARK  Name = 
REMARK  7 active torsions:
REMARK  status: ('A' for Active; 'I' for Inactive)
REMARK    1  A    between atoms: C_1  and  N_2
REMARK    2  A    between atoms: N_2  and  C_3
REMARK    3  A    between atoms: C_4  and  C_6
REMARK    4  A    between atoms: C_11  and  C_13
REMARK    5  A    between atoms: C_18  and  N_19
REMARK    6  A    between atoms: C_21  and  C_22
REMARK    7  A    between atoms: C_22  and  N_23
REMARK                            x       y       z     vdW  Elec       q    Type
REMARK                         _______ _______ _______ _____ _____    ______ ____
ROOT
ATOM      1  C   UNL     1       3.364   3.322  18.652  0.00  0.00    +0.000 A 
ATOM      2  C   UNL     1       3.100   1.940  18.575  0.00  0.00    +0.000 A 
ATOM      3  C   UNL     1       1.796   1.446  18.594  0.00  0.00    +0.000 A 
ATOM      4  C   UNL     1       0.733   2.318  18.794  0.00  0.00    +0.000 A 
ATOM      5  C   UNL     1       0.976   3.677  18.992  0.00  0.00    +0.000 A 
ATOM      6  C   UNL     1       2.288   4.191  18.909  0.00  0.00    +0.000 A 
ENDROOT
BRANCH   1  12
ATOM      7  C   UNL     1       7.294   5.346  16.513  0.00  0.00    +0.000 C 
ATOM      8  C   UNL     1       7.016   4.723  15.125  0.00  0.00    +0.000 C 
ATOM      9  C   UNL     1       5.546   4.320  14.983  0.00  0.00    +0.000 C 
ATOM     10  C   UNL     1       5.048   3.465  16.143  0.00  0.00    +0.000 C 
ATOM     11  N   UNL     1       5.486   3.928  17.463  0.00  0.00    +0.000 N 
ATOM     12  C   UNL     1       4.783   3.761  18.668  0.00  0.00    +0.000 C 
ATOM     13  O   UNL     1       5.306   3.910  19.775  0.00  0.00    +0.000 OA
ATOM     14  C   UNL     1       6.893   4.301  17.554  0.00  0.00    +0.000 C 
BRANCH   7  18
ATOM     15  C   UNL     1       6.375   8.973  17.487  0.00  0.00    +0.000 C 
ATOM     16  N   UNL     1       7.078   7.700  17.478  0.00  0.00    +0.000 N 
ATOM     17  C   UNL     1       8.270   7.610  18.300  0.00  0.00    +0.000 C 
ATOM     18  C   UNL     1       6.616   6.730  16.605  0.00  0.00    +0.000 C 
ATOM     19  O   UNL     1       5.705   7.014  15.815  0.00  0.00    +0.000 OA
ENDBRANCH   7  18
ENDBRANCH   1  12
BRANCH   6  20
ATOM     20  N   UNL     1       2.448   5.593  19.045  0.00  0.00    +0.000 N 
ATOM     21  C   UNL     1       1.911   6.379  20.043  0.00  0.00    +0.000 A 
ATOM     22  C   UNL     1       2.087   7.699  19.685  0.00  0.00    +0.000 A 
ATOM     23  C   UNL     1       2.776   7.608  18.457  0.00  0.00    +0.000 A 
ATOM     24  N   UNL     1       3.009   6.352  18.072  0.00  0.00    +0.000 NA
BRANCH  22  25
ATOM     25  C   UNL     1       1.669   8.915  20.424  0.00  0.00    +0.000 C 
BRANCH  25  26
ATOM     26  N   UNL     1       1.693   8.622  21.852  0.00  0.00    +0.000 NA
ATOM     27  H   UNL     1       2.498   8.032  22.056  0.00  0.00    +0.000 HD
ATOM     28  H   UNL     1       0.868   8.079  22.096  0.00  0.00    +0.000 HD
ENDBRANCH  25  26
ENDBRANCH  22  25
ENDBRANCH   6  20
TORSDOF 5
ENDMDL
MODEL 5
REMARK VINA RESULT:      -6.3      2.583      6.635
REMARK  Name = 
REMARK  7 active torsions:
REMARK  status: ('A' for Active; 'I' for Inactive)
REMARK    1  A    between atoms: C_1  and  N_2
REMARK    2  A    between atoms: N_2  and  C_3
REMARK    3  A    between atoms: C_4  and  C_6
REMARK    4  A    between atoms: C_11  and  C_13
REMARK    5  A    between atoms: C_18  and  N_19
REMARK    6  A    between atoms: C_21  and  C_22
REMARK    7  A    between atoms: C_22  and  N_23
REMARK                            x       y       z     vdW  Elec       q    Type
REMARK                         _______ _______ _______ _____ _____    ______ ____
ROOT
ATOM      1  C   UNL     1       2.345   4.639  18.969  0.00  0.00    +0.000 A 
ATOM      2  C   UNL     1       2.491   3.254  18.754  0.00  0.00    +0.000 A 
ATOM      3  C   UNL     1       2.000   2.320  19.665  0.00  0.00    +0.000 A 
ATOM      4  C   UNL     1       1.443   2.753  20.861  0.00  0.00    +0.000 A 
ATOM      5  C   UNL     1       1.395   4.116  21.153  0.00  0.00    +0.000 A 
ATOM      6  C   UNL     1       1.830   5.068  20.206  0.00  0.00    +0.000 A 
ENDROOT
BRANCH   1  12
ATOM      7  C   UNL     1       6.018   6.099  16.053  0.00  0.00    +0.000 C 
ATOM      8  C   UNL     1       7.131   5.737  17.064  0.00  0.00    +0.000 C 
ATOM      9  C   UNL     1       6.639   4.711  18.087  0.00  0.00    +0.000 C 
ATOM     10  C   UNL     1       5.325   5.111  18.749  0.00  0.00    +0.000 C 
ATOM     11  N   UNL     1       4.328   5.658  17.824  0.00  0.00    +0.000 N 
ATOM     12  C   UNL     1       2.934   5.566  17.969  0.00  0.00    +0.000 C 
ATOM     13  O   UNL     1       2.146   6.270  17.333  0.00  0.00    +0.000 OA
ATOM     14  C   UNL     1       4.839   6.633  16.867  0.00  0.00    +0.000 C 
BRANCH   7  18
ATOM     15  C   UNL     1       6.184   3.499  13.195  0.00  0.00    +0.000 C 
ATOM     16  N   UNL     1       6.516   4.664  14.000  0.00  0.00    +0.000 N 
ATOM     17  C   UNL     1       7.696   5.410  13.608  0.00  0.00    +0.000 C 
ATOM     18  C   UNL     1       5.746   4.892  15.128  0.00  0.00    +0.000 C 
ATOM     19  O   UNL     1       4.890   4.058  15.453  0.00  0.00    +0.000 OA
ENDBRANCH   7  18
ENDBRANCH   1  12
BRANCH   6  20
ATOM     20  N   UNL     1       1.679   6.437  20.542  0.00  0.00    +0.000 N 
ATOM     21  C   UNL     1       0.733   6.964  21.396  0.00  0.00    +0.000 A 
ATOM     22  C   UNL     1       0.758   8.336  21.262  0.00  0.00    +0.000 A 
ATOM     23  C   UNL     1       1.785   8.547  20.319  0.00  0.00    +0.000 A 
ATOM     24  N   UNL     1       2.352   7.417  19.891  0.00  0.00    +0.000 NA
BRANCH  22  25
ATOM     25  C   UNL     1      -0.079   9.343  21.960  0.00  0.00    +0.000 C 
BRANCH  25  26
ATOM     26  N   UNL     1       0.606   9.752  23.180  0.00  0.00    +0.000 NA
ATOM     27  H   UNL     1       1.178  10.572  22.980  0.00  0.00    +0.000 HD
ATOM     28  H   UNL     1       1.248   9.016  23.466  0.00  0.00    +0.000 HD
ENDBRANCH  25  26
ENDBRANCH  22  25
ENDBRANCH   6  20
TORSDOF 5
ENDMDL
MODEL 6
REMARK VINA RESULT:      -6.2     10.056     13.058
REMARK  Name = 
REMARK  7 active torsions:
REMARK  status: ('A' for Active; 'I' for Inactive)
REMARK    1  A    between atoms: C_1  and  N_2
REMARK    2  A    between atoms: N_2  and  C_3
REMARK    3  A    between atoms: C_4  and  C_6
REMARK    4  A    between atoms: C_11  and  C_13
REMARK    5  A    between atoms: C_18  and  N_19
REMARK    6  A    between atoms: C_21  and  C_22
REMARK    7  A    between atoms: C_22  and  N_23
REMARK                            x       y       z     vdW  Elec       q    Type
REMARK                         _______ _______ _______ _____ _____    ______ ____
ROOT
ATOM      1  C   UNL     1      -5.869  12.604  20.927  0.00  0.00    +0.000 A 
ATOM      2  C   UNL     1      -6.908  12.571  21.879  0.00  0.00    +0.000 A 
ATOM      3  C   UNL     1      -7.892  11.584  21.848  0.00  0.00    +0.000 A 
ATOM      4  C   UNL     1      -7.917  10.670  20.802  0.00  0.00    +0.000 A 
ATOM      5  C   UNL     1      -6.969  10.755  19.782  0.00  0.00    +0.000 A 
ATOM      6  C   UNL     1      -5.932  11.710  19.843  0.00  0.00    +0.000 A 
ENDROOT
BRANCH   1  12
ATOM      7  C   UNL     1      -1.389  14.355  21.922  0.00  0.00    +0.000 C 
ATOM      8  C   UNL     1      -1.174  13.452  23.159  0.00  0.00    +0.000 C 
ATOM      9  C   UNL     1      -2.089  12.227  23.116  0.00  0.00    +0.000 C 
ATOM     10  C   UNL     1      -3.552  12.582  22.872  0.00  0.00    +0.000 C 
ATOM     11  N   UNL     1      -3.758  13.602  21.839  0.00  0.00    +0.000 N 
ATOM     12  C   UNL     1      -4.885  13.713  21.008  0.00  0.00    +0.000 C 
ATOM     13  O   UNL     1      -5.141  14.732  20.360  0.00  0.00    +0.000 OA
ATOM     14  C   UNL     1      -2.866  14.753  21.917  0.00  0.00    +0.000 C 
BRANCH   7  18
ATOM     15  C   UNL     1      -0.026  13.598  18.383  0.00  0.00    +0.000 C 
ATOM     16  N   UNL     1      -0.535  14.357  19.515  0.00  0.00    +0.000 N 
ATOM     17  C   UNL     1      -0.558  15.799  19.374  0.00  0.00    +0.000 C 
ATOM     18  C   UNL     1      -0.846  13.646  20.662  0.00  0.00    +0.000 C 
ATOM     19  O   UNL     1      -0.590  12.435  20.710  0.00  0.00    +0.000 OA
ENDBRANCH   7  18
ENDBRANCH   1  12
BRANCH   6  20
ATOM     20  N   UNL     1      -4.962  11.685  18.810  0.00  0.00    +0.000 N 
ATOM     21  C   UNL     1      -5.207  11.461  17.471  0.00  0.00    +0.000 A 
ATOM     22  C   UNL     1      -3.993  11.272  16.844  0.00  0.00    +0.000 A 
ATOM     23  C   UNL     1      -3.063  11.434  17.891  0.00  0.00    +0.000 A 
ATOM     24  N   UNL     1      -3.632  11.696  19.069  0.00  0.00    +0.000 NA
BRANCH  22  25
ATOM     25  C   UNL     1      -3.733  10.987  15.412  0.00  0.00    +0.000 C 
BRANCH  25  26
ATOM     26  N   UNL     1      -2.644  10.023  15.320  0.00  0.00    +0.000 NA
ATOM     27  H   UNL     1      -2.250  10.056  14.380  0.00  0.00    +0.000 HD
ATOM     28  H   UNL     1      -3.016   9.084  15.443  0.00  0.00    +0.000 HD
ENDBRANCH  25  26
ENDBRANCH  22  25
ENDBRANCH   6  20
TORSDOF 5
ENDMDL
MODEL 7
REMARK VINA RESULT:      -6.2     10.546     13.836
REMARK  Name = 
REMARK  7 active torsions:
REMARK  status: ('A' for Active; 'I' for Inactive)
REMARK    1  A    between atoms: C_1  and  N_2
REMARK    2  A    between atoms: N_2  and  C_3
REMARK    3  A    between atoms: C_4  and  C_6
REMARK    4  A    between atoms: C_11  and  C_13
REMARK    5  A    between atoms: C_18  and  N_19
REMARK    6  A    between atoms: C_21  and  C_22
REMARK    7  A    between atoms: C_22  and  N_23
REMARK                            x       y       z     vdW  Elec       q    Type
REMARK                         _______ _______ _______ _____ _____    ______ ____
ROOT
ATOM      1  C   UNL     1      -6.679  13.755  22.176  0.00  0.00    +0.000 A 
ATOM      2  C   UNL     1      -7.893  14.322  22.612  0.00  0.00    +0.000 A 
ATOM      3  C   UNL     1      -7.916  15.425  23.465  0.00  0.00    +0.000 A 
ATOM      4  C   UNL     1      -6.726  15.921  23.981  0.00  0.00    +0.000 A 
ATOM      5  C   UNL     1      -5.518  15.303  23.659  0.00  0.00    +0.000 A 
ATOM      6  C   UNL     1      -5.482  14.228  22.745  0.00  0.00    +0.000 A 
ENDROOT
BRANCH   1  12
ATOM      7  C   UNL     1      -6.052  11.508  17.854  0.00  0.00    +0.000 C 
ATOM      8  C   UNL     1      -6.516  12.721  17.014  0.00  0.00    +0.000 C 
ATOM      9  C   UNL     1      -6.399  14.023  17.809  0.00  0.00    +0.000 C 
ATOM     10  C   UNL     1      -7.060  13.947  19.181  0.00  0.00    +0.000 C 
ATOM     11  N   UNL     1      -6.798  12.700  19.906  0.00  0.00    +0.000 N 
ATOM     12  C   UNL     1      -6.744  12.556  21.302  0.00  0.00    +0.000 C 
ATOM     13  O   UNL     1      -6.802  11.461  21.866  0.00  0.00    +0.000 OA
ATOM     14  C   UNL     1      -6.922  11.483  19.111  0.00  0.00    +0.000 C 
BRANCH   7  18
ATOM     15  C   UNL     1      -2.226  11.286  17.342  0.00  0.00    +0.000 C 
ATOM     16  N   UNL     1      -3.648  11.183  17.056  0.00  0.00    +0.000 N 
ATOM     17  C   UNL     1      -4.014  10.793  15.708  0.00  0.00    +0.000 C 
ATOM     18  C   UNL     1      -4.523  11.573  18.056  0.00  0.00    +0.000 C 
ATOM     19  O   UNL     1      -4.068  12.075  19.093  0.00  0.00    +0.000 OA
ENDBRANCH   7  18
ENDBRANCH   1  12
BRANCH   6  20
ATOM     20  N   UNL     1      -4.211  13.701  22.408  0.00  0.00    +0.000 N 
ATOM     21  C   UNL     1      -3.607  12.604  22.985  0.00  0.00    +0.000 A 
ATOM     22  C   UNL     1      -2.295  12.569  22.560  0.00  0.00    +0.000 A 
ATOM     23  C   UNL     1      -2.209  13.679  21.695  0.00  0.00    +0.000 A 
ATOM     24  N   UNL     1      -3.354  14.356  21.586  0.00  0.00    +0.000 NA
BRANCH  22  25
ATOM     25  C   UNL     1      -1.240  11.588  22.914  0.00  0.00    +0.000 C 
BRANCH  25  26
ATOM     26  N   UNL     1      -0.086  11.816  22.052  0.00  0.00    +0.000 NA
ATOM     27  H   UNL     1       0.154  10.943  21.583  0.00  0.00    +0.000 HD
ATOM     28  H   UNL     1       0.716  12.065  22.626  0.00  0.00    +0.000 HD
ENDBRANCH  25  26
ENDBRANCH  22  25
ENDBRANCH   6  20
TORSDOF 5
ENDMDL
MODEL 8
REMARK VINA RESULT:      -6.1      8.928     11.519
REMARK  Name = 
REMARK  7 active torsions:
REMARK  status: ('A' for Active; 'I' for Inactive)
REMARK    1  A    between atoms: C_1  and  N_2
REMARK    2  A    between atoms: N_2  and  C_3
REMARK    3  A    between atoms: C_4  and  C_6
REMARK    4  A    between atoms: C_11  and  C_13
REMARK    5  A    between atoms: C_18  and  N_19
REMARK    6  A    between atoms: C_21  and  C_22
REMARK    7  A    between atoms: C_22  and  N_23
REMARK                            x       y       z     vdW  Elec       q    Type
REMARK                         _______ _______ _______ _____ _____    ______ ____
ROOT
ATOM      1  C   UNL     1      -2.350  10.942  17.851  0.00  0.00    +0.000 A 
ATOM      2  C   UNL     1      -1.927  10.358  16.640  0.00  0.00    +0.000 A 
ATOM      3  C   UNL     1      -2.751  10.338  15.515  0.00  0.00    +0.000 A 
ATOM      4  C   UNL     1      -4.054  10.810  15.608  0.00  0.00    +0.000 A 
ATOM      5  C   UNL     1      -4.537  11.283  16.829  0.00  0.00    +0.000 A 
ATOM      6  C   UNL     1      -3.687  11.367  17.952  0.00  0.00    +0.000 A 
ENDROOT
BRANCH   1  12
ATOM      7  C   UNL     1       0.256  13.081  21.422  0.00  0.00    +0.000 C 
ATOM      8  C   UNL     1       0.663  14.303  20.565  0.00  0.00    +0.000 C 
ATOM      9  C   UNL     1      -0.293  14.496  19.386  0.00  0.00    +0.000 C 
ATOM     10  C   UNL     1      -0.500  13.225  18.570  0.00  0.00    +0.000 C 
ATOM     11  N   UNL     1      -0.677  12.014  19.378  0.00  0.00    +0.000 N 
ATOM     12  C   UNL     1      -1.426  10.884  19.012  0.00  0.00    +0.000 C 
ATOM     13  O   UNL     1      -1.320   9.796  19.584  0.00  0.00    +0.000 OA
ATOM     14  C   UNL     1       0.256  11.869  20.490  0.00  0.00    +0.000 C 
BRANCH   7  18
ATOM     15  C   UNL     1      -2.951  12.802  23.564  0.00  0.00    +0.000 C 
ATOM     16  N   UNL     1      -1.726  12.409  22.884  0.00  0.00    +0.000 N 
ATOM     17  C   UNL     1      -1.263  11.054  23.111  0.00  0.00    +0.000 C 
ATOM     18  C   UNL     1      -1.055  13.392  22.176  0.00  0.00    +0.000 C 
ATOM     19  O   UNL     1      -1.463  14.560  22.231  0.00  0.00    +0.000 OA
ENDBRANCH   7  18
ENDBRANCH   1  12
BRANCH   6  20
ATOM     20  N   UNL     1      -4.226  11.931  19.136  0.00  0.00    +0.000 N 
ATOM     21  C   UNL     1      -5.391  11.542  19.763  0.00  0.00    +0.000 A 
ATOM     22  C   UNL     1      -5.691  12.485  20.723  0.00  0.00    +0.000 A 
ATOM     23  C   UNL     1      -4.621  13.398  20.622  0.00  0.00    +0.000 A 
ATOM     24  N   UNL     1      -3.730  13.067  19.684  0.00  0.00    +0.000 NA
BRANCH  22  25
ATOM     25  C   UNL     1      -6.849  12.518  21.650  0.00  0.00    +0.000 C 
BRANCH  25  26
ATOM     26  N   UNL     1      -7.403  11.173  21.749  0.00  0.00    +0.000 NA
ATOM     27  H   UNL     1      -7.279  10.833  22.702  0.00  0.00    +0.000 HD
ATOM     28  H   UNL     1      -6.871  10.547  21.148  0.00  0.00    +0.000 HD
ENDBRANCH  25  26
ENDBRANCH  22  25
ENDBRANCH   6  20
TORSDOF 5
ENDMDL
MODEL 9
REMARK VINA RESULT:      -6.1      8.880     10.987
REMARK  Name = 
REMARK  7 active torsions:
REMARK  status: ('A' for Active; 'I' for Inactive)
REMARK    1  A    between atoms: C_1  and  N_2
REMARK    2  A    between atoms: N_2  and  C_3
REMARK    3  A    between atoms: C_4  and  C_6
REMARK    4  A    between atoms: C_11  and  C_13
REMARK    5  A    between atoms: C_18  and  N_19
REMARK    6  A    between atoms: C_21  and  C_22
REMARK    7  A    between atoms: C_22  and  N_23
REMARK                            x       y       z     vdW  Elec       q    Type
REMARK                         _______ _______ _______ _____ _____    ______ ____
ROOT
ATOM      1  C   UNL     1      -0.670  11.658  22.463  0.00  0.00    +0.000 A 
ATOM      2  C   UNL     1      -1.171  10.467  23.025  0.00  0.00    +0.000 A 
ATOM      3  C   UNL     1      -0.518   9.248  22.850  0.00  0.00    +0.000 A 
ATOM      4  C   UNL     1       0.595   9.176  22.022  0.00  0.00    +0.000 A 
ATOM      5  C   UNL     1       1.042  10.319  21.357  0.00  0.00    +0.000 A 
ATOM      6  C   UNL     1       0.425  11.568  21.583  0.00  0.00    +0.000 A 
ENDROOT
BRANCH   1  12
ATOM      7  C   UNL     1      -4.679  14.414  21.793  0.00  0.00    +0.000 C 
ATOM      8  C   UNL     1      -4.905  13.954  20.334  0.00  0.00    +0.000 C 
ATOM      9  C   UNL     1      -4.207  12.620  20.059  0.00  0.00    +0.000 C 
ATOM     10  C   UNL     1      -2.741  12.616  20.477  0.00  0.00    +0.000 C 
ATOM     11  N   UNL     1      -2.484  13.245  21.777  0.00  0.00    +0.000 N 
ATOM     12  C   UNL     1      -1.449  12.906  22.663  0.00  0.00    +0.000 C 
ATOM     13  O   UNL     1      -1.102  13.634  23.597  0.00  0.00    +0.000 OA
ATOM     14  C   UNL     1      -3.167  14.515  21.997  0.00  0.00    +0.000 C 
BRANCH   7  18
ATOM     15  C   UNL     1      -7.453  12.761  23.922  0.00  0.00    +0.000 C 
ATOM     16  N   UNL     1      -6.807  13.688  23.006  0.00  0.00    +0.000 N 
ATOM     17  C   UNL     1      -7.662  14.661  22.354  0.00  0.00    +0.000 C 
ATOM     18  C   UNL     1      -5.459  13.489  22.754  0.00  0.00    +0.000 C 
ATOM     19  O   UNL     1      -4.897  12.494  23.229  0.00  0.00    +0.000 OA
ENDBRANCH   7  18
ENDBRANCH   1  12
BRANCH   6  20
ATOM     20  N   UNL     1       0.982  12.697  20.932  0.00  0.00    +0.000 N 
ATOM     21  C   UNL     1       1.201  12.827  19.577  0.00  0.00    +0.000 A 
ATOM     22  C   UNL     1       1.975  13.951  19.378  0.00  0.00    +0.000 A 
ATOM     23  C   UNL     1       2.147  14.456  20.683  0.00  0.00    +0.000 A 
ATOM     24  N   UNL     1       1.545  13.720  21.620  0.00  0.00    +0.000 NA
BRANCH  22  25
ATOM     25  C   UNL     1       2.483  14.503  18.098  0.00  0.00    +0.000 C 
BRANCH  25  26
ATOM     26  N   UNL     1       3.709  13.797  17.742  0.00  0.00    +0.000 NA
ATOM     27  H   UNL     1       3.774  13.738  16.726  0.00  0.00    +0.000 HD
ATOM     28  H   UNL     1       3.655  12.840  18.084  0.00  0.00    +0.000 HD
ENDBRANCH  25  26
ENDBRANCH  22  25
ENDBRANCH   6  20
TORSDOF 5
ENDMDL
