MODEL 1
REMARK VINA RESULT:      -8.8      0.000      0.000
REMARK  Name = 
REMARK  7 active torsions:
REMARK  status: ('A' for Active; 'I' for Inactive)
REMARK    1  A    between atoms: C_1  and  N_2
REMARK    2  A    between atoms: C_3  and  C_5
REMARK    3  A    between atoms: C_8  and  C_9
REMARK    4  A    between atoms: C_9  and  N_10
REMARK    5  A    between atoms: N_18  and  C_19
REMARK    6  A    between atoms: C_19  and  C_20
REMARK    7  A    between atoms: N_22  and  C_23
REMARK                            x       y       z     vdW  Elec       q    Type
REMARK                         _______ _______ _______ _____ _____    ______ ____
ROOT
ATOM      1  N   UNL     1       1.844   8.327  19.432  0.00  0.00    +0.000 N 
ATOM      2  C   UNL     1       1.460   8.117  20.767  0.00  0.00    +0.000 A 
ATOM      3  O   UNL     1       1.688   7.065  21.366  0.00  0.00    +0.000 OA
ATOM      4  C   UNL     1       0.761   9.229  21.338  0.00  0.00    +0.000 A 
ATOM      5  S   UNL     1       0.008   9.173  22.859  0.00  0.00    +0.000 S 
ATOM      6  C   UNL     1      -0.543  10.786  22.695  0.00  0.00    +0.000 A 
ATOM      7  C   UNL     1      -0.088  11.370  21.530  0.00  0.00    +0.000 A 
ATOM      8  C   UNL     1       0.598  10.434  20.701  0.00  0.00    +0.000 A 
ATOM      9  N   UNL     1       1.044  10.578  19.384  0.00  0.00    +0.000 N 
ATOM     10  C   UNL     1       1.449   9.438  18.674  0.00  0.00    +0.000 A 
ATOM     11  O   UNL     1       1.432   9.426  17.444  0.00  0.00    +0.000 OA
ENDROOT
BRANCH   1  12
ATOM     12  C   UNL     1       2.501   7.222  18.730  0.00  0.00    +0.000 C 
BRANCH  12  16
ATOM     13  C   UNL     1       3.741   3.790  17.737  0.00  0.00    +0.000 C 
ATOM     14  C   UNL     1       2.259   4.205  17.683  0.00  0.00    +0.000 C 
ATOM     15  C   UNL     1       1.733   4.779  19.005  0.00  0.00    +0.000 C 
ATOM     16  C   UNL     1       2.606   5.916  19.560  0.00  0.00    +0.000 C 
ATOM     17  C   UNL     1       4.063   5.426  19.658  0.00  0.00    +0.000 C 
ATOM     18  C   UNL     1       4.607   4.916  18.321  0.00  0.00    +0.000 C 
BRANCH  13  21
ATOM     19  C   UNL     1       5.011   1.405  20.415  0.00  0.00    +0.000 C 
ATOM     20  N   UNL     1       4.828   2.535  19.544  0.00  0.00    +0.000 N 
ATOM     21  C   UNL     1       3.929   2.474  18.503  0.00  0.00    +0.000 C 
ATOM     22  O   UNL     1       3.334   1.440  18.217  0.00  0.00    +0.000 OA
ATOM     23  H   UNL     1       5.307   3.403  19.756  0.00  0.00    +0.000 HD
ENDBRANCH  13  21
ENDBRANCH  12  16
ENDBRANCH   1  12
BRANCH   9  24
ATOM     24  C   UNL     1       0.972  11.843  18.651  0.00  0.00    +0.000 C 
BRANCH  24  25
ATOM     25  C   UNL     1      -0.442  12.262  18.275  0.00  0.00    +0.000 C 
ATOM     26  O   UNL     1      -0.759  13.451  18.227  0.00  0.00    +0.000 OA
ATOM     27  N   UNL     1      -1.316  11.212  18.059  0.00  0.00    +0.000 N 
ATOM     28  H   UNL     1      -1.093  10.343  18.542  0.00  0.00    +0.000 HD
BRANCH  27  29
ATOM     29  C   UNL     1      -2.681  11.456  17.788  0.00  0.00    +0.000 A 
ATOM     30  C   UNL     1      -3.569  11.871  18.784  0.00  0.00    +0.000 A 
ATOM     31  C   UNL     1      -4.908  12.080  18.460  0.00  0.00    +0.000 A 
ATOM     32  F   UNL     1      -5.755  12.509  19.405  0.00  0.00    +0.000 F 
ATOM     33  C   UNL     1      -5.382  11.854  17.170  0.00  0.00    +0.000 A 
ATOM     34  C   UNL     1      -4.498  11.429  16.178  0.00  0.00    +0.000 A 
ATOM     35  C   UNL     1      -3.152  11.257  16.487  0.00  0.00    +0.000 A 
ATOM     36  F   UNL     1      -2.312  10.821  15.537  0.00  0.00    +0.000 F 
ENDBRANCH  27  29
ENDBRANCH  24  25
ENDBRANCH   9  24
TORSDOF 6
ENDMDL
MODEL 2
REMARK VINA RESULT:      -8.5      0.695      1.501
REMARK  Name = 
REMARK  7 active torsions:
REMARK  status: ('A' for Active; 'I' for Inactive)
REMARK    1  A    between atoms: C_1  and  N_2
REMARK    2  A    between atoms: C_3  and  C_5
REMARK    3  A    between atoms: C_8  and  C_9
REMARK    4  A    between atoms: C_9  and  N_10
REMARK    5  A    between atoms: N_18  and  C_19
REMARK    6  A    between atoms: C_19  and  C_20
REMARK    7  A    between atoms: N_22  and  C_23
REMARK                            x       y       z     vdW  Elec       q    Type
REMARK                         _______ _______ _______ _____ _____    ______ ____
ROOT
ATOM      1  N   UNL     1       1.882   8.309  19.539  0.00  0.00    +0.000 N 
ATOM      2  C   UNL     1       1.461   8.068  20.857  0.00  0.00    +0.000 A 
ATOM      3  O   UNL     1       1.675   7.004  21.440  0.00  0.00    +0.000 OA
ATOM      4  C   UNL     1       0.742   9.165  21.433  0.00  0.00    +0.000 A 
ATOM      5  S   UNL     1      -0.055   9.073  22.930  0.00  0.00    +0.000 S 
ATOM      6  C   UNL     1      -0.606  10.688  22.786  0.00  0.00    +0.000 A 
ATOM      7  C   UNL     1      -0.121  11.299  21.647  0.00  0.00    +0.000 A 
ATOM      8  C   UNL     1       0.593  10.384  20.819  0.00  0.00    +0.000 A 
ATOM      9  N   UNL     1       1.076  10.559  19.519  0.00  0.00    +0.000 N 
ATOM     10  C   UNL     1       1.506   9.436  18.795  0.00  0.00    +0.000 A 
ATOM     11  O   UNL     1       1.524   9.452  17.565  0.00  0.00    +0.000 OA
ENDROOT
BRANCH   1  12
ATOM     12  C   UNL     1       2.564   7.223  18.832  0.00  0.00    +0.000 C 
BRANCH  12  16
ATOM     13  C   UNL     1       3.775   3.804  17.761  0.00  0.00    +0.000 C 
ATOM     14  C   UNL     1       2.305   4.254  17.659  0.00  0.00    +0.000 C 
ATOM     15  C   UNL     1       1.732   4.789  18.977  0.00  0.00    +0.000 C 
ATOM     16  C   UNL     1       2.603   5.884  19.615  0.00  0.00    +0.000 C 
ATOM     17  C   UNL     1       4.044   5.358  19.757  0.00  0.00    +0.000 C 
ATOM     18  C   UNL     1       4.637   4.887  18.426  0.00  0.00    +0.000 C 
BRANCH  13  21
ATOM     19  C   UNL     1       4.970   1.261  20.327  0.00  0.00    +0.000 C 
ATOM     20  N   UNL     1       4.834   2.427  19.495  0.00  0.00    +0.000 N 
ATOM     21  C   UNL     1       3.900   2.456  18.483  0.00  0.00    +0.000 C 
ATOM     22  O   UNL     1       3.231   1.472  18.188  0.00  0.00    +0.000 OA
ATOM     23  H   UNL     1       5.375   3.255  19.715  0.00  0.00    +0.000 HD
ENDBRANCH  13  21
ENDBRANCH  12  16
ENDBRANCH   1  12
BRANCH   9  24
ATOM     24  C   UNL     1       1.021  11.840  18.812  0.00  0.00    +0.000 C 
BRANCH  24  25
ATOM     25  C   UNL     1      -0.317  12.122  18.143  0.00  0.00    +0.000 C 
ATOM     26  O   UNL     1      -0.668  13.273  17.888  0.00  0.00    +0.000 OA
ATOM     27  N   UNL     1      -1.094  11.000  17.914  0.00  0.00    +0.000 N 
ATOM     28  H   UNL     1      -0.928  10.210  18.536  0.00  0.00    +0.000 HD
BRANCH  27  29
ATOM     29  C   UNL     1      -2.396  11.124  17.378  0.00  0.00    +0.000 A 
ATOM     30  C   UNL     1      -2.683  10.794  16.051  0.00  0.00    +0.000 A 
ATOM     31  C   UNL     1      -3.982  10.953  15.574  0.00  0.00    +0.000 A 
ATOM     32  F   UNL     1      -4.268  10.607  14.312  0.00  0.00    +0.000 F 
ATOM     33  C   UNL     1      -4.992  11.462  16.388  0.00  0.00    +0.000 A 
ATOM     34  C   UNL     1      -4.704  11.801  17.709  0.00  0.00    +0.000 A 
ATOM     35  C   UNL     1      -3.416  11.607  18.202  0.00  0.00    +0.000 A 
ATOM     36  F   UNL     1      -3.136  11.962  19.464  0.00  0.00    +0.000 F 
ENDBRANCH  27  29
ENDBRANCH  24  25
ENDBRANCH   9  24
TORSDOF 6
ENDMDL
MODEL 3
REMARK VINA RESULT:      -8.5      1.578      1.870
REMARK  Name = 
REMARK  7 active torsions:
REMARK  status: ('A' for Active; 'I' for Inactive)
REMARK    1  A    between atoms: C_1  and  N_2
REMARK    2  A    between atoms: C_3  and  C_5
REMARK    3  A    between atoms: C_8  and  C_9
REMARK    4  A    between atoms: C_9  and  N_10
REMARK    5  A    between atoms: N_18  and  C_19
REMARK    6  A    between atoms: C_19  and  C_20
REMARK    7  A    between atoms: N_22  and  C_23
REMARK                            x       y       z     vdW  Elec       q    Type
REMARK                         _______ _______ _______ _____ _____    ______ ____
ROOT
ATOM      1  N   UNL     1       1.840   8.074  19.296  0.00  0.00    +0.000 N 
ATOM      2  C   UNL     1       1.462   7.838  20.628  0.00  0.00    +0.000 A 
ATOM      3  O   UNL     1       1.663   6.764  21.196  0.00  0.00    +0.000 OA
ATOM      4  C   UNL     1       0.804   8.955  21.238  0.00  0.00    +0.000 A 
ATOM      5  S   UNL     1       0.063   8.880  22.764  0.00  0.00    +0.000 S 
ATOM      6  C   UNL     1      -0.438  10.513  22.651  0.00  0.00    +0.000 A 
ATOM      7  C   UNL     1       0.024  11.115  21.497  0.00  0.00    +0.000 A 
ATOM      8  C   UNL     1       0.674  10.182  20.636  0.00  0.00    +0.000 A 
ATOM      9  N   UNL     1       1.112  10.350  19.320  0.00  0.00    +0.000 N 
ATOM     10  C   UNL     1       1.474   9.218  18.573  0.00  0.00    +0.000 A 
ATOM     11  O   UNL     1       1.445   9.241  17.344  0.00  0.00    +0.000 OA
ENDROOT
BRANCH   1  12
ATOM     12  C   UNL     1       2.456   6.969  18.557  0.00  0.00    +0.000 C 
BRANCH  12  16
ATOM     13  C   UNL     1       5.002   4.885  16.693  0.00  0.00    +0.000 C 
ATOM     14  C   UNL     1       4.324   4.428  17.999  0.00  0.00    +0.000 C 
ATOM     15  C   UNL     1       4.447   5.443  19.143  0.00  0.00    +0.000 C 
ATOM     16  C   UNL     1       3.992   6.857  18.748  0.00  0.00    +0.000 C 
ATOM     17  C   UNL     1       4.750   7.291  17.478  0.00  0.00    +0.000 C 
ATOM     18  C   UNL     1       4.570   6.309  16.317  0.00  0.00    +0.000 C 
BRANCH  13  21
ATOM     19  C   UNL     1       8.419   4.259  18.245  0.00  0.00    +0.000 C 
ATOM     20  N   UNL     1       7.018   4.514  18.044  0.00  0.00    +0.000 N 
ATOM     21  C   UNL     1       6.529   4.758  16.779  0.00  0.00    +0.000 C 
ATOM     22  O   UNL     1       7.268   4.868  15.807  0.00  0.00    +0.000 OA
ATOM     23  H   UNL     1       6.383   4.430  18.830  0.00  0.00    +0.000 HD
ENDBRANCH  13  21
ENDBRANCH  12  16
ENDBRANCH   1  12
BRANCH   9  24
ATOM     24  C   UNL     1       1.073  11.636  18.622  0.00  0.00    +0.000 C 
BRANCH  24  25
ATOM     25  C   UNL     1      -0.329  12.096  18.246  0.00  0.00    +0.000 C 
ATOM     26  O   UNL     1      -0.609  13.293  18.186  0.00  0.00    +0.000 OA
ATOM     27  N   UNL     1      -1.236  11.072  18.045  0.00  0.00    +0.000 N 
ATOM     28  H   UNL     1      -1.039  10.201  18.537  0.00  0.00    +0.000 HD
BRANCH  27  29
ATOM     29  C   UNL     1      -2.594  11.356  17.776  0.00  0.00    +0.000 A 
ATOM     30  C   UNL     1      -3.466  11.807  18.771  0.00  0.00    +0.000 A 
ATOM     31  C   UNL     1      -4.798  12.054  18.450  0.00  0.00    +0.000 A 
ATOM     32  F   UNL     1      -5.629  12.517  19.393  0.00  0.00    +0.000 F 
ATOM     33  C   UNL     1      -5.283  11.832  17.163  0.00  0.00    +0.000 A 
ATOM     34  C   UNL     1      -4.417  11.372  16.172  0.00  0.00    +0.000 A 
ATOM     35  C   UNL     1      -3.075  11.160  16.479  0.00  0.00    +0.000 A 
ATOM     36  F   UNL     1      -2.252  10.690  15.530  0.00  0.00    +0.000 F 
ENDBRANCH  27  29
ENDBRANCH  24  25
ENDBRANCH   9  24
TORSDOF 6
ENDMDL
MODEL 4
REMARK VINA RESULT:      -8.3      3.431      5.143
REMARK  Name = 
REMARK  7 active torsions:
REMARK  status: ('A' for Active; 'I' for Inactive)
REMARK    1  A    between atoms: C_1  and  N_2
REMARK    2  A    between atoms: C_3  and  C_5
REMARK    3  A    between atoms: C_8  and  C_9
REMARK    4  A    between atoms: C_9  and  N_10
REMARK    5  A    between atoms: N_18  and  C_19
REMARK    6  A    between atoms: C_19  and  C_20
REMARK    7  A    between atoms: N_22  and  C_23
REMARK                            x       y       z     vdW  Elec       q    Type
REMARK                         _______ _______ _______ _____ _____    ______ ____
ROOT
ATOM      1  N   UNL     1       1.820   8.501  19.372  0.00  0.00    +0.000 N 
ATOM      2  C   UNL     1       1.317   8.284  20.665  0.00  0.00    +0.000 A 
ATOM      3  O   UNL     1       1.460   7.216  21.263  0.00  0.00    +0.000 OA
ATOM      4  C   UNL     1       0.606   9.409  21.195  0.00  0.00    +0.000 A 
ATOM      5  S   UNL     1      -0.276   9.355  22.645  0.00  0.00    +0.000 S 
ATOM      6  C   UNL     1      -0.760  10.987  22.463  0.00  0.00    +0.000 A 
ATOM      7  C   UNL     1      -0.190  11.573  21.351  0.00  0.00    +0.000 A 
ATOM      8  C   UNL     1       0.536  10.629  20.568  0.00  0.00    +0.000 A 
ATOM      9  N   UNL     1       1.097  10.778  19.296  0.00  0.00    +0.000 N 
ATOM     10  C   UNL     1       1.526   9.636  18.603  0.00  0.00    +0.000 A 
ATOM     11  O   UNL     1       1.614   9.643  17.376  0.00  0.00    +0.000 OA
ENDROOT
BRANCH   1  12
ATOM     12  C   UNL     1       2.500   7.387  18.709  0.00  0.00    +0.000 C 
BRANCH  12  16
ATOM     13  C   UNL     1       3.765   3.944  17.787  0.00  0.00    +0.000 C 
ATOM     14  C   UNL     1       2.301   4.388  17.602  0.00  0.00    +0.000 C 
ATOM     15  C   UNL     1       1.665   4.956  18.877  0.00  0.00    +0.000 C 
ATOM     16  C   UNL     1       2.503   6.069  19.527  0.00  0.00    +0.000 C 
ATOM     17  C   UNL     1       3.936   5.549  19.752  0.00  0.00    +0.000 C 
ATOM     18  C   UNL     1       4.592   5.046  18.465  0.00  0.00    +0.000 C 
BRANCH  13  21
ATOM     19  C   UNL     1       4.970   1.419  20.365  0.00  0.00    +0.000 C 
ATOM     20  N   UNL     1       4.850   2.562  19.501  0.00  0.00    +0.000 N 
ATOM     21  C   UNL     1       3.856   2.615  18.549  0.00  0.00    +0.000 C 
ATOM     22  O   UNL     1       3.111   1.665  18.334  0.00  0.00    +0.000 OA
ATOM     23  H   UNL     1       5.452   3.362  19.656  0.00  0.00    +0.000 HD
ENDBRANCH  13  21
ENDBRANCH  12  16
ENDBRANCH   1  12
BRANCH   9  24
ATOM     24  C   UNL     1       1.127  12.055  18.582  0.00  0.00    +0.000 C 
BRANCH  24  25
ATOM     25  C   UNL     1       2.286  12.960  18.977  0.00  0.00    +0.000 C 
ATOM     26  O   UNL     1       2.642  13.058  20.151  0.00  0.00    +0.000 OA
ATOM     27  N   UNL     1       2.837  13.679  17.932  0.00  0.00    +0.000 N 
ATOM     28  H   UNL     1       2.216  13.865  17.144  0.00  0.00    +0.000 HD
BRANCH  27  29
ATOM     29  C   UNL     1       3.862  14.622  18.169  0.00  0.00    +0.000 A 
ATOM     30  C   UNL     1       5.212  14.309  17.985  0.00  0.00    +0.000 A 
ATOM     31  C   UNL     1       6.179  15.275  18.251  0.00  0.00    +0.000 A 
ATOM     32  F   UNL     1       7.471  14.989  18.045  0.00  0.00    +0.000 F 
ATOM     33  C   UNL     1       5.826  16.537  18.725  0.00  0.00    +0.000 A 
ATOM     34  C   UNL     1       4.480  16.847  18.918  0.00  0.00    +0.000 A 
ATOM     35  C   UNL     1       3.508  15.898  18.617  0.00  0.00    +0.000 A 
ATOM     36  F   UNL     1       2.217  16.190  18.832  0.00  0.00    +0.000 F 
ENDBRANCH  27  29
ENDBRANCH  24  25
ENDBRANCH   9  24
TORSDOF 6
ENDMDL
MODEL 5
REMARK VINA RESULT:      -8.3      3.350      4.138
REMARK  Name = 
REMARK  7 active torsions:
REMARK  status: ('A' for Active; 'I' for Inactive)
REMARK    1  A    between atoms: C_1  and  N_2
REMARK    2  A    between atoms: C_3  and  C_5
REMARK    3  A    between atoms: C_8  and  C_9
REMARK    4  A    between atoms: C_9  and  N_10
REMARK    5  A    between atoms: N_18  and  C_19
REMARK    6  A    between atoms: C_19  and  C_20
REMARK    7  A    between atoms: N_22  and  C_23
REMARK                            x       y       z     vdW  Elec       q    Type
REMARK                         _______ _______ _______ _____ _____    ______ ____
ROOT
ATOM      1  N   UNL     1       0.558   9.506  20.309  0.00  0.00    +0.000 N 
ATOM      2  C   UNL     1      -0.242   9.641  21.455  0.00  0.00    +0.000 A 
ATOM      3  O   UNL     1      -0.753   8.677  22.027  0.00  0.00    +0.000 OA
ATOM      4  C   UNL     1      -0.420  11.002  21.866  0.00  0.00    +0.000 A 
ATOM      5  S   UNL     1      -1.498  11.471  23.092  0.00  0.00    +0.000 S 
ATOM      6  C   UNL     1      -1.094  13.121  22.877  0.00  0.00    +0.000 A 
ATOM      7  C   UNL     1      -0.098  13.289  21.937  0.00  0.00    +0.000 A 
ATOM      8  C   UNL     1       0.232  12.063  21.289  0.00  0.00    +0.000 A 
ATOM      9  N   UNL     1       1.044  11.842  20.173  0.00  0.00    +0.000 N 
ATOM     10  C   UNL     1       1.008  10.589  19.541  0.00  0.00    +0.000 A 
ATOM     11  O   UNL     1       1.339  10.472  18.362  0.00  0.00    +0.000 OA
ENDROOT
BRANCH   1  12
ATOM     12  C   UNL     1       0.743   8.160  19.761  0.00  0.00    +0.000 C 
BRANCH  12  16
ATOM     13  C   UNL     1       2.269   4.918  18.555  0.00  0.00    +0.000 C 
ATOM     14  C   UNL     1       1.560   5.067  19.914  0.00  0.00    +0.000 C 
ATOM     15  C   UNL     1       2.104   6.219  20.768  0.00  0.00    +0.000 C 
ATOM     16  C   UNL     1       2.150   7.560  20.017  0.00  0.00    +0.000 C 
ATOM     17  C   UNL     1       2.928   7.370  18.701  0.00  0.00    +0.000 C 
ATOM     18  C   UNL     1       2.341   6.264  17.820  0.00  0.00    +0.000 C 
BRANCH  13  21
ATOM     19  C   UNL     1       5.993   4.365  17.998  0.00  0.00    +0.000 C 
ATOM     20  N   UNL     1       4.624   4.790  17.874  0.00  0.00    +0.000 N 
ATOM     21  C   UNL     1       3.657   4.282  18.713  0.00  0.00    +0.000 C 
ATOM     22  O   UNL     1       3.899   3.388  19.517  0.00  0.00    +0.000 OA
ATOM     23  H   UNL     1       4.395   5.528  17.218  0.00  0.00    +0.000 HD
ENDBRANCH  13  21
ENDBRANCH  12  16
ENDBRANCH   1  12
BRANCH   9  24
ATOM     24  C   UNL     1       1.828  12.900  19.533  0.00  0.00    +0.000 C 
BRANCH  24  25
ATOM     25  C   UNL     1       0.986  13.991  18.887  0.00  0.00    +0.000 C 
ATOM     26  O   UNL     1       0.071  13.711  18.112  0.00  0.00    +0.000 OA
ATOM     27  N   UNL     1       1.376  15.281  19.200  0.00  0.00    +0.000 N 
ATOM     28  H   UNL     1       2.356  15.398  19.456  0.00  0.00    +0.000 HD
BRANCH  27  29
ATOM     29  C   UNL     1       0.738  16.391  18.602  0.00  0.00    +0.000 A 
ATOM     30  C   UNL     1      -0.607  16.688  18.842  0.00  0.00    +0.000 A 
ATOM     31  C   UNL     1      -1.186  17.785  18.210  0.00  0.00    +0.000 A 
ATOM     32  F   UNL     1      -2.466  18.092  18.462  0.00  0.00    +0.000 F 
ATOM     33  C   UNL     1      -0.458  18.574  17.323  0.00  0.00    +0.000 A 
ATOM     34  C   UNL     1       0.881  18.273  17.075  0.00  0.00    +0.000 A 
ATOM     35  C   UNL     1       1.475  17.199  17.733  0.00  0.00    +0.000 A 
ATOM     36  F   UNL     1       2.754  16.896  17.470  0.00  0.00    +0.000 F 
ENDBRANCH  27  29
ENDBRANCH  24  25
ENDBRANCH   9  24
TORSDOF 6
ENDMDL
MODEL 6
REMARK VINA RESULT:      -8.2      6.887     10.344
REMARK  Name = 
REMARK  7 active torsions:
REMARK  status: ('A' for Active; 'I' for Inactive)
REMARK    1  A    between atoms: C_1  and  N_2
REMARK    2  A    between atoms: C_3  and  C_5
REMARK    3  A    between atoms: C_8  and  C_9
REMARK    4  A    between atoms: C_9  and  N_10
REMARK    5  A    between atoms: N_18  and  C_19
REMARK    6  A    between atoms: C_19  and  C_20
REMARK    7  A    between atoms: N_22  and  C_23
REMARK                            x       y       z     vdW  Elec       q    Type
REMARK                         _______ _______ _______ _____ _____    ______ ____
ROOT
ATOM      1  N   UNL     1       3.342  15.255  20.368  0.00  0.00    +0.000 N 
ATOM      2  C   UNL     1       3.635  15.159  21.739  0.00  0.00    +0.000 A 
ATOM      3  O   UNL     1       2.803  14.799  22.573  0.00  0.00    +0.000 OA
ATOM      4  C   UNL     1       4.976  15.545  22.061  0.00  0.00    +0.000 A 
ATOM      5  S   UNL     1       5.538  15.720  23.654  0.00  0.00    +0.000 S 
ATOM      6  C   UNL     1       7.087  16.195  23.103  0.00  0.00    +0.000 A 
ATOM      7  C   UNL     1       7.183  16.143  21.727  0.00  0.00    +0.000 A 
ATOM      8  C   UNL     1       5.928  15.847  21.119  0.00  0.00    +0.000 A 
ATOM      9  N   UNL     1       5.568  15.883  19.769  0.00  0.00    +0.000 N 
ATOM     10  C   UNL     1       4.209  15.822  19.424  0.00  0.00    +0.000 A 
ATOM     11  O   UNL     1       3.814  16.270  18.349  0.00  0.00    +0.000 OA
ENDROOT
BRANCH   1  12
ATOM     12  C   UNL     1       1.974  14.953  19.941  0.00  0.00    +0.000 C 
BRANCH  12  16
ATOM     13  C   UNL     1      -0.880  12.481  20.151  0.00  0.00    +0.000 C 
ATOM     14  C   UNL     1       0.354  12.432  21.072  0.00  0.00    +0.000 C 
ATOM     15  C   UNL     1       1.687  12.420  20.314  0.00  0.00    +0.000 C 
ATOM     16  C   UNL     1       1.808  13.556  19.285  0.00  0.00    +0.000 C 
ATOM     17  C   UNL     1       0.585  13.516  18.349  0.00  0.00    +0.000 C 
ATOM     18  C   UNL     1      -0.743  13.596  19.105  0.00  0.00    +0.000 C 
BRANCH  13  21
ATOM     19  C   UNL     1      -2.242   9.966  17.642  0.00  0.00    +0.000 C 
ATOM     20  N   UNL     1      -1.999  11.153  18.417  0.00  0.00    +0.000 N 
ATOM     21  C   UNL     1      -1.146  11.118  19.497  0.00  0.00    +0.000 C 
ATOM     22  O   UNL     1      -0.647  10.072  19.898  0.00  0.00    +0.000 OA
ATOM     23  H   UNL     1      -2.399  12.032  18.109  0.00  0.00    +0.000 HD
ENDBRANCH  13  21
ENDBRANCH  12  16
ENDBRANCH   1  12
BRANCH   9  24
ATOM     24  C   UNL     1       6.529  16.131  18.692  0.00  0.00    +0.000 C 
BRANCH  24  25
ATOM     25  C   UNL     1       7.293  14.893  18.245  0.00  0.00    +0.000 C 
ATOM     26  O   UNL     1       6.761  14.044  17.530  0.00  0.00    +0.000 OA
ATOM     27  N   UNL     1       8.576  14.794  18.752  0.00  0.00    +0.000 N 
ATOM     28  H   UNL     1       8.742  15.273  19.637  0.00  0.00    +0.000 HD
BRANCH  27  29
ATOM     29  C   UNL     1       9.367  13.654  18.489  0.00  0.00    +0.000 A 
ATOM     30  C   UNL     1       9.155  12.439  19.148  0.00  0.00    +0.000 A 
ATOM     31  C   UNL     1       9.979  11.353  18.859  0.00  0.00    +0.000 A 
ATOM     32  F   UNL     1       9.758  10.179  19.465  0.00  0.00    +0.000 F 
ATOM     33  C   UNL     1      11.027  11.465  17.949  0.00  0.00    +0.000 A 
ATOM     34  C   UNL     1      11.246  12.679  17.299  0.00  0.00    +0.000 A 
ATOM     35  C   UNL     1      10.401  13.756  17.555  0.00  0.00    +0.000 A 
ATOM     36  F   UNL     1      10.634  14.930  16.950  0.00  0.00    +0.000 F 
ENDBRANCH  27  29
ENDBRANCH  24  25
ENDBRANCH   9  24
TORSDOF 6
ENDMDL
MODEL 7
REMARK VINA RESULT:      -8.2      4.582      9.494
REMARK  Name = 
REMARK  7 active torsions:
REMARK  status: ('A' for Active; 'I' for Inactive)
REMARK    1  A    between atoms: C_1  and  N_2
REMARK    2  A    between atoms: C_3  and  C_5
REMARK    3  A    between atoms: C_8  and  C_9
REMARK    4  A    between atoms: C_9  and  N_10
REMARK    5  A    between atoms: N_18  and  C_19
REMARK    6  A    between atoms: C_19  and  C_20
REMARK    7  A    between atoms: N_22  and  C_23
REMARK                            x       y       z     vdW  Elec       q    Type
REMARK                         _______ _______ _______ _____ _____    ______ ____
ROOT
ATOM      1  N   UNL     1       2.486   6.583  18.631  0.00  0.00    +0.000 N 
ATOM      2  C   UNL     1       2.066   5.395  19.252  0.00  0.00    +0.000 A 
ATOM      3  O   UNL     1       0.924   5.239  19.686  0.00  0.00    +0.000 OA
ATOM      4  C   UNL     1       3.101   4.409  19.349  0.00  0.00    +0.000 A 
ATOM      5  S   UNL     1       2.933   2.966  20.229  0.00  0.00    +0.000 S 
ATOM      6  C   UNL     1       4.530   2.490  19.839  0.00  0.00    +0.000 A 
ATOM      7  C   UNL     1       5.144   3.389  18.989  0.00  0.00    +0.000 A 
ATOM      8  C   UNL     1       4.340   4.548  18.775  0.00  0.00    +0.000 A 
ATOM      9  N   UNL     1       4.670   5.748  18.139  0.00  0.00    +0.000 N 
ATOM     10  C   UNL     1       3.817   6.853  18.284  0.00  0.00    +0.000 A 
ATOM     11  O   UNL     1       4.241   7.997  18.132  0.00  0.00    +0.000 OA
ENDROOT
BRANCH   1  12
ATOM     12  C   UNL     1       1.523   7.684  18.546  0.00  0.00    +0.000 C 
BRANCH  12  16
ATOM     13  C   UNL     1      -0.711   9.608  20.914  0.00  0.00    +0.000 C 
ATOM     14  C   UNL     1      -0.437  10.045  19.463  0.00  0.00    +0.000 C 
ATOM     15  C   UNL     1       1.055  10.151  19.124  0.00  0.00    +0.000 C 
ATOM     16  C   UNL     1       1.847   8.882  19.478  0.00  0.00    +0.000 C 
ATOM     17  C   UNL     1       1.592   8.529  20.956  0.00  0.00    +0.000 C 
ATOM     18  C   UNL     1       0.105   8.358  21.276  0.00  0.00    +0.000 C 
BRANCH  13  21
ATOM     19  C   UNL     1      -0.673  13.161  22.275  0.00  0.00    +0.000 C 
ATOM     20  N   UNL     1      -0.751  12.011  21.416  0.00  0.00    +0.000 N 
ATOM     21  C   UNL     1      -0.461  10.755  21.902  0.00  0.00    +0.000 C 
ATOM     22  O   UNL     1      -0.034  10.582  23.039  0.00  0.00    +0.000 OA
ATOM     23  H   UNL     1      -1.101  12.124  20.471  0.00  0.00    +0.000 HD
ENDBRANCH  13  21
ENDBRANCH  12  16
ENDBRANCH   1  12
BRANCH   9  24
ATOM     24  C   UNL     1       5.941   5.961  17.444  0.00  0.00    +0.000 C 
BRANCH  24  25
ATOM     25  C   UNL     1       5.856   5.802  15.933  0.00  0.00    +0.000 C 
ATOM     26  O   UNL     1       5.192   6.581  15.249  0.00  0.00    +0.000 OA
ATOM     27  N   UNL     1       6.526   4.701  15.431  0.00  0.00    +0.000 N 
ATOM     28  H   UNL     1       6.644   3.920  16.077  0.00  0.00    +0.000 HD
BRANCH  27  29
ATOM     29  C   UNL     1       6.460   4.382  14.056  0.00  0.00    +0.000 A 
ATOM     30  C   UNL     1       5.442   3.581  13.532  0.00  0.00    +0.000 A 
ATOM     31  C   UNL     1       5.437   3.287  12.170  0.00  0.00    +0.000 A 
ATOM     32  F   UNL     1       4.446   2.545  11.659  0.00  0.00    +0.000 F 
ATOM     33  C   UNL     1       6.445   3.753  11.329  0.00  0.00    +0.000 A 
ATOM     34  C   UNL     1       7.467   4.544  11.853  0.00  0.00    +0.000 A 
ATOM     35  C   UNL     1       7.454   4.873  13.206  0.00  0.00    +0.000 A 
ATOM     36  F   UNL     1       8.454   5.610  13.711  0.00  0.00    +0.000 F 
ENDBRANCH  27  29
ENDBRANCH  24  25
ENDBRANCH   9  24
TORSDOF 6
ENDMDL
MODEL 8
REMARK VINA RESULT:      -8.1      5.297      8.087
REMARK  Name = 
REMARK  7 active torsions:
REMARK  status: ('A' for Active; 'I' for Inactive)
REMARK    1  A    between atoms: C_1  and  N_2
REMARK    2  A    between atoms: C_3  and  C_5
REMARK    3  A    between atoms: C_8  and  C_9
REMARK    4  A    between atoms: C_9  and  N_10
REMARK    5  A    between atoms: N_18  and  C_19
REMARK    6  A    between atoms: C_19  and  C_20
REMARK    7  A    between atoms: N_22  and  C_23
REMARK                            x       y       z     vdW  Elec       q    Type
REMARK                         _______ _______ _______ _____ _____    ______ ____
ROOT
ATOM      1  N   UNL     1       0.377  13.264  19.948  0.00  0.00    +0.000 N 
ATOM      2  C   UNL     1       0.925  11.978  19.814  0.00  0.00    +0.000 A 
ATOM      3  O   UNL     1       1.707  11.679  18.910  0.00  0.00    +0.000 OA
ATOM      4  C   UNL     1       0.463  11.058  20.810  0.00  0.00    +0.000 A 
ATOM      5  S   UNL     1       0.802   9.394  20.769  0.00  0.00    +0.000 S 
ATOM      6  C   UNL     1      -0.102   9.129  22.199  0.00  0.00    +0.000 A 
ATOM      7  C   UNL     1      -0.585  10.309  22.729  0.00  0.00    +0.000 A 
ATOM      8  C   UNL     1      -0.327  11.419  21.873  0.00  0.00    +0.000 A 
ATOM      9  N   UNL     1      -0.801  12.732  21.958  0.00  0.00    +0.000 N 
ATOM     10  C   UNL     1      -0.641  13.586  20.856  0.00  0.00    +0.000 A 
ATOM     11  O   UNL     1      -1.383  14.555  20.702  0.00  0.00    +0.000 OA
ENDROOT
BRANCH   1  12
ATOM     12  C   UNL     1       0.727  14.263  18.936  0.00  0.00    +0.000 C 
BRANCH  12  16
ATOM     13  C   UNL     1       4.390  15.179  18.738  0.00  0.00    +0.000 C 
ATOM     14  C   UNL     1       3.769  14.419  19.925  0.00  0.00    +0.000 C 
ATOM     15  C   UNL     1       2.552  15.124  20.537  0.00  0.00    +0.000 C 
ATOM     16  C   UNL     1       1.483  15.496  19.497  0.00  0.00    +0.000 C 
ATOM     17  C   UNL     1       2.144  16.312  18.370  0.00  0.00    +0.000 C 
ATOM     18  C   UNL     1       3.316  15.577  17.716  0.00  0.00    +0.000 C 
BRANCH  13  21
ATOM     19  C   UNL     1       6.806  17.210  20.863  0.00  0.00    +0.000 C 
ATOM     20  N   UNL     1       5.914  16.194  20.373  0.00  0.00    +0.000 N 
ATOM     21  C   UNL     1       5.202  16.393  19.211  0.00  0.00    +0.000 C 
ATOM     22  O   UNL     1       5.219  17.463  18.613  0.00  0.00    +0.000 OA
ATOM     23  H   UNL     1       5.879  15.299  20.847  0.00  0.00    +0.000 HD
ENDBRANCH  13  21
ENDBRANCH  12  16
ENDBRANCH   1  12
BRANCH   9  24
ATOM     24  C   UNL     1      -1.593  13.223  23.087  0.00  0.00    +0.000 C 
BRANCH  24  25
ATOM     25  C   UNL     1      -3.040  12.751  23.081  0.00  0.00    +0.000 C 
ATOM     26  O   UNL     1      -3.400  11.799  23.773  0.00  0.00    +0.000 OA
ATOM     27  N   UNL     1      -3.867  13.437  22.209  0.00  0.00    +0.000 N 
ATOM     28  H   UNL     1      -3.406  13.863  21.405  0.00  0.00    +0.000 HD
BRANCH  27  29
ATOM     29  C   UNL     1      -5.214  13.048  22.037  0.00  0.00    +0.000 A 
ATOM     30  C   UNL     1      -5.628  12.279  20.946  0.00  0.00    +0.000 A 
ATOM     31  C   UNL     1      -6.973  11.940  20.821  0.00  0.00    +0.000 A 
ATOM     32  F   UNL     1      -7.367  11.176  19.794  0.00  0.00    +0.000 F 
ATOM     33  C   UNL     1      -7.916  12.379  21.747  0.00  0.00    +0.000 A 
ATOM     34  C   UNL     1      -7.506  13.155  22.831  0.00  0.00    +0.000 A 
ATOM     35  C   UNL     1      -6.156  13.463  22.981  0.00  0.00    +0.000 A 
ATOM     36  F   UNL     1      -5.771  14.234  24.009  0.00  0.00    +0.000 F 
ENDBRANCH  27  29
ENDBRANCH  24  25
ENDBRANCH   9  24
TORSDOF 6
ENDMDL
MODEL 9
REMARK VINA RESULT:      -8.1      4.495      9.610
REMARK  Name = 
REMARK  7 active torsions:
REMARK  status: ('A' for Active; 'I' for Inactive)
REMARK    1  A    between atoms: C_1  and  N_2
REMARK    2  A    between atoms: C_3  and  C_5
REMARK    3  A    between atoms: C_8  and  C_9
REMARK    4  A    between atoms: C_9  and  N_10
REMARK    5  A    between atoms: N_18  and  C_19
REMARK    6  A    between atoms: C_19  and  C_20
REMARK    7  A    between atoms: N_22  and  C_23
REMARK                            x       y       z     vdW  Elec       q    Type
REMARK                         _______ _______ _______ _____ _____    ______ ____
ROOT
ATOM      1  N   UNL     1       2.560   6.019  18.662  0.00  0.00    +0.000 N 
ATOM      2  C   UNL     1       2.020   5.035  19.506  0.00  0.00    +0.000 A 
ATOM      3  O   UNL     1       0.867   5.088  19.937  0.00  0.00    +0.000 OA
ATOM      4  C   UNL     1       2.948   3.993  19.830  0.00  0.00    +0.000 A 
ATOM      5  S   UNL     1       2.632   2.790  20.987  0.00  0.00    +0.000 S 
ATOM      6  C   UNL     1       4.173   2.086  20.741  0.00  0.00    +0.000 A 
ATOM      7  C   UNL     1       4.876   2.722  19.738  0.00  0.00    +0.000 A 
ATOM      8  C   UNL     1       4.197   3.884  19.269  0.00  0.00    +0.000 A 
ATOM      9  N   UNL     1       4.648   4.886  18.405  0.00  0.00    +0.000 N 
ATOM     10  C   UNL     1       3.913   6.076  18.298  0.00  0.00    +0.000 A 
ATOM     11  O   UNL     1       4.452   7.115  17.921  0.00  0.00    +0.000 OA
ENDROOT
BRANCH   1  12
ATOM     12  C   UNL     1       1.716   7.169  18.328  0.00  0.00    +0.000 C 
BRANCH  12  16
ATOM     13  C   UNL     1      -0.326   9.874  20.005  0.00  0.00    +0.000 C 
ATOM     14  C   UNL     1       0.083   9.917  18.521  0.00  0.00    +0.000 C 
ATOM     15  C   UNL     1       1.589   9.742  18.292  0.00  0.00    +0.000 C 
ATOM     16  C   UNL     1       2.166   8.498  18.990  0.00  0.00    +0.000 C 
ATOM     17  C   UNL     1       1.786   8.541  20.482  0.00  0.00    +0.000 C 
ATOM     18  C   UNL     1       0.276   8.648  20.706  0.00  0.00    +0.000 C 
BRANCH  13  21
ATOM     19  C   UNL     1       0.136  13.612  20.539  0.00  0.00    +0.000 C 
ATOM     20  N   UNL     1      -0.065  12.314  19.954  0.00  0.00    +0.000 N 
ATOM     21  C   UNL     1       0.040  11.178  20.726  0.00  0.00    +0.000 C 
ATOM     22  O   UNL     1       0.402  11.219  21.897  0.00  0.00    +0.000 OA
ATOM     23  H   UNL     1      -0.365  12.249  18.988  0.00  0.00    +0.000 HD
ENDBRANCH  13  21
ENDBRANCH  12  16
ENDBRANCH   1  12
BRANCH   9  24
ATOM     24  C   UNL     1       5.935   4.820  17.711  0.00  0.00    +0.000 C 
BRANCH  24  25
ATOM     25  C   UNL     1       5.864   4.183  16.330  0.00  0.00    +0.000 C 
ATOM     26  O   UNL     1       5.597   2.989  16.197  0.00  0.00    +0.000 OA
ATOM     27  N   UNL     1       6.177   5.034  15.286  0.00  0.00    +0.000 N 
ATOM     28  H   UNL     1       6.790   5.815  15.518  0.00  0.00    +0.000 HD
BRANCH  27  29
ATOM     29  C   UNL     1       6.236   4.553  13.959  0.00  0.00    +0.000 A 
ATOM     30  C   UNL     1       5.209   3.782  13.406  0.00  0.00    +0.000 A 
ATOM     31  C   UNL     1       5.331   3.322  12.097  0.00  0.00    +0.000 A 
ATOM     32  F   UNL     1       4.334   2.610  11.553  0.00  0.00    +0.000 F 
ATOM     33  C   UNL     1       6.469   3.591  11.341  0.00  0.00    +0.000 A 
ATOM     34  C   UNL     1       7.499   4.351  11.895  0.00  0.00    +0.000 A 
ATOM     35  C   UNL     1       7.365   4.846  13.189  0.00  0.00    +0.000 A 
ATOM     36  F   UNL     1       8.370   5.552  13.728  0.00  0.00    +0.000 F 
ENDBRANCH  27  29
ENDBRANCH  24  25
ENDBRANCH   9  24
TORSDOF 6
ENDMDL
