MODEL 1
REMARK VINA RESULT:      -8.4      0.000      0.000
REMARK  Name = 
REMARK  9 active torsions:
REMARK  status: ('A' for Active; 'I' for Inactive)
REMARK    1  A    between atoms: C_1  and  C_2
REMARK    2  A    between atoms: C_2  and  C_3
REMARK    3  A    between atoms: C_2  and  O_4
REMARK    4  A    between atoms: O_4  and  C_5
REMARK    5  A    between atoms: C_7  and  C_8
REMARK    6  A    between atoms: C_10  and  C_11
REMARK    7  A    between atoms: C_20  and  N_21
REMARK    8  A    between atoms: N_21  and  C_22
REMARK    9  A    between atoms: C_23  and  C_25
REMARK                            x       y       z     vdW  Elec       q    Type
REMARK                         _______ _______ _______ _____ _____    ______ ____
ROOT
ATOM      1  C   UNL     1       1.028  10.200  20.417  0.00  0.00    +0.000 A 
ATOM      2  C   UNL     1       1.363   8.823  20.422  0.00  0.00    +0.000 A 
ATOM      3  C   UNL     1       1.833   8.133  19.302  0.00  0.00    +0.000 A 
ATOM      4  C   UNL     1       1.741   8.820  18.098  0.00  0.00    +0.000 A 
ATOM      5  C   UNL     1       1.330  10.163  18.051  0.00  0.00    +0.000 A 
ATOM      6  C   UNL     1       1.015  10.929  19.193  0.00  0.00    +0.000 A 
ENDROOT
BRANCH   3   7
ATOM      7  C   UNL     1       2.450   6.780  19.397  0.00  0.00    +0.000 A 
ATOM      8  C   UNL     1       1.931   5.829  20.312  0.00  0.00    +0.000 A 
ATOM      9  C   UNL     1       2.422   4.513  20.374  0.00  0.00    +0.000 A 
ATOM     10  C   UNL     1       3.471   4.133  19.531  0.00  0.00    +0.000 A 
ATOM     11  C   UNL     1       4.012   5.045  18.635  0.00  0.00    +0.000 A 
ATOM     12  C   UNL     1       3.504   6.345  18.553  0.00  0.00    +0.000 A 
ATOM     13 CL   UNL     1       4.212   7.317  17.303  0.00  0.00    +0.000 Cl
BRANCH   9  14
ATOM     14  C   UNL     1       1.870   3.458  21.274  0.00  0.00    +0.000 C 
ATOM     15  N   UNL     1       0.693   2.852  20.940  0.00  0.00    +0.000 N 
ATOM     16  O   UNL     1       2.452   3.125  22.298  0.00  0.00    +0.000 OA
ATOM     17  H   UNL     1       0.128   3.060  20.133  0.00  0.00    +0.000 HD
ATOM     18  H   UNL     1       0.359   2.139  21.578  0.00  0.00    +0.000 HD
ENDBRANCH   9  14
ENDBRANCH   3   7
BRANCH   6  19
ATOM     19  N   UNL     1       0.761  12.384  19.069  0.00  0.00    +0.000 N 
ATOM     20  C   UNL     1      -0.510  12.790  18.483  0.00  0.00    +0.000 C 
ATOM     21  C   UNL     1       1.697  13.360  19.532  0.00  0.00    +0.000 C 
ATOM     22  O   UNL     1       2.852  13.136  19.898  0.00  0.00    +0.000 OA
BRANCH  21  23
ATOM     23  C   UNL     1       1.364  14.804  19.603  0.00  0.00    +0.000 A 
ATOM     24  C   UNL     1       1.918  15.633  18.612  0.00  0.00    +0.000 A 
ATOM     25  F   UNL     1       2.633  15.117  17.599  0.00  0.00    +0.000 F 
ATOM     26  C   UNL     1       1.774  17.021  18.647  0.00  0.00    +0.000 A 
ATOM     27  C   UNL     1       1.033  17.610  19.669  0.00  0.00    +0.000 A 
ATOM     28  C   UNL     1       0.504  16.808  20.681  0.00  0.00    +0.000 A 
ATOM     29  C   UNL     1       0.703  15.417  20.675  0.00  0.00    +0.000 A 
ATOM     30 CL   UNL     1       0.178  14.558  22.078  0.00  0.00    +0.000 Cl
ENDBRANCH  21  23
ENDBRANCH   6  19
BRANCH   1  31
ATOM     31  O   UNL     1       0.674  10.794  21.612  0.00  0.00    +0.000 OA
BRANCH  31  33
ATOM     32  C   UNL     1      -0.095   9.474  23.468  0.00  0.00    +0.000 C 
ATOM     33  C   UNL     1      -0.522  10.317  22.265  0.00  0.00    +0.000 C 
ATOM     34  C   UNL     1      -1.386  11.476  22.772  0.00  0.00    +0.000 C 
ENDBRANCH  31  33
ENDBRANCH   1  31
TORSDOF 6
ENDMDL
MODEL 2
REMARK VINA RESULT:      -8.1      2.728      3.236
REMARK  Name = 
REMARK  9 active torsions:
REMARK  status: ('A' for Active; 'I' for Inactive)
REMARK    1  A    between atoms: C_1  and  C_2
REMARK    2  A    between atoms: C_2  and  C_3
REMARK    3  A    between atoms: C_2  and  O_4
REMARK    4  A    between atoms: O_4  and  C_5
REMARK    5  A    between atoms: C_7  and  C_8
REMARK    6  A    between atoms: C_10  and  C_11
REMARK    7  A    between atoms: C_20  and  N_21
REMARK    8  A    between atoms: N_21  and  C_22
REMARK    9  A    between atoms: C_23  and  C_25
REMARK                            x       y       z     vdW  Elec       q    Type
REMARK                         _______ _______ _______ _____ _____    ______ ____
ROOT
ATOM      1  C   UNL     1       1.685   8.930  20.125  0.00  0.00    +0.000 A 
ATOM      2  C   UNL     1       2.239   7.679  19.758  0.00  0.00    +0.000 A 
ATOM      3  C   UNL     1       2.499   7.301  18.438  0.00  0.00    +0.000 A 
ATOM      4  C   UNL     1       1.970   8.138  17.464  0.00  0.00    +0.000 A 
ATOM      5  C   UNL     1       1.339   9.348  17.803  0.00  0.00    +0.000 A 
ATOM      6  C   UNL     1       1.218   9.829  19.123  0.00  0.00    +0.000 A 
ENDROOT
BRANCH   3   7
ATOM      7  C   UNL     1       3.340   6.119  18.095  0.00  0.00    +0.000 A 
ATOM      8  C   UNL     1       4.669   6.306  17.639  0.00  0.00    +0.000 A 
ATOM      9  C   UNL     1       5.528   5.221  17.389  0.00  0.00    +0.000 A 
ATOM     10  C   UNL     1       5.054   3.917  17.566  0.00  0.00    +0.000 A 
ATOM     11  C   UNL     1       3.751   3.700  17.994  0.00  0.00    +0.000 A 
ATOM     12  C   UNL     1       2.907   4.780  18.272  0.00  0.00    +0.000 A 
ATOM     13 CL   UNL     1       1.357   4.336  18.909  0.00  0.00    +0.000 Cl
BRANCH   9  14
ATOM     14  C   UNL     1       6.954   5.365  16.968  0.00  0.00    +0.000 C 
ATOM     15  N   UNL     1       7.826   4.348  17.229  0.00  0.00    +0.000 N 
ATOM     16  O   UNL     1       7.350   6.370  16.393  0.00  0.00    +0.000 OA
ATOM     17  H   UNL     1       7.609   3.490  17.709  0.00  0.00    +0.000 HD
ATOM     18  H   UNL     1       8.781   4.487  16.922  0.00  0.00    +0.000 HD
ENDBRANCH   9  14
ENDBRANCH   3   7
BRANCH   6  19
ATOM     19  N   UNL     1       0.696  11.193  19.376  0.00  0.00    +0.000 N 
ATOM     20  C   UNL     1      -0.609  11.298  20.017  0.00  0.00    +0.000 C 
ATOM     21  C   UNL     1       1.442  12.365  19.042  0.00  0.00    +0.000 C 
ATOM     22  O   UNL     1       2.473  12.397  18.367  0.00  0.00    +0.000 OA
BRANCH  21  23
ATOM     23  C   UNL     1       1.024  13.720  19.477  0.00  0.00    +0.000 A 
ATOM     24  C   UNL     1       0.004  14.340  18.735  0.00  0.00    +0.000 A 
ATOM     25  F   UNL     1      -0.621  13.688  17.741  0.00  0.00    +0.000 F 
ATOM     26  C   UNL     1      -0.387  15.658  18.976  0.00  0.00    +0.000 A 
ATOM     27  C   UNL     1       0.221  16.378  20.002  0.00  0.00    +0.000 A 
ATOM     28  C   UNL     1       1.259  15.793  20.729  0.00  0.00    +0.000 A 
ATOM     29  C   UNL     1       1.691  14.487  20.442  0.00  0.00    +0.000 A 
ATOM     30 CL   UNL     1       3.108  13.946  21.266  0.00  0.00    +0.000 Cl
ENDBRANCH  21  23
ENDBRANCH   6  19
BRANCH   1  31
ATOM     31  O   UNL     1       1.572   9.229  21.469  0.00  0.00    +0.000 OA
BRANCH  31  33
ATOM     32  C   UNL     1       0.015   9.507  23.279  0.00  0.00    +0.000 C 
ATOM     33  C   UNL     1       0.549   8.542  22.219  0.00  0.00    +0.000 C 
ATOM     34  C   UNL     1      -0.619   8.120  21.321  0.00  0.00    +0.000 C 
ENDBRANCH  31  33
ENDBRANCH   1  31
TORSDOF 6
ENDMDL
MODEL 3
REMARK VINA RESULT:      -8.1      2.885      3.552
REMARK  Name = 
REMARK  9 active torsions:
REMARK  status: ('A' for Active; 'I' for Inactive)
REMARK    1  A    between atoms: C_1  and  C_2
REMARK    2  A    between atoms: C_2  and  C_3
REMARK    3  A    between atoms: C_2  and  O_4
REMARK    4  A    between atoms: O_4  and  C_5
REMARK    5  A    between atoms: C_7  and  C_8
REMARK    6  A    between atoms: C_10  and  C_11
REMARK    7  A    between atoms: C_20  and  N_21
REMARK    8  A    between atoms: N_21  and  C_22
REMARK    9  A    between atoms: C_23  and  C_25
REMARK                            x       y       z     vdW  Elec       q    Type
REMARK                         _______ _______ _______ _____ _____    ______ ____
ROOT
ATOM      1  C   UNL     1       1.668   8.851  20.220  0.00  0.00    +0.000 A 
ATOM      2  C   UNL     1       2.199   7.648  19.694  0.00  0.00    +0.000 A 
ATOM      3  C   UNL     1       2.564   7.478  18.356  0.00  0.00    +0.000 A 
ATOM      4  C   UNL     1       2.163   8.493  17.497  0.00  0.00    +0.000 A 
ATOM      5  C   UNL     1       1.555   9.665  17.981  0.00  0.00    +0.000 A 
ATOM      6  C   UNL     1       1.333   9.928  19.349  0.00  0.00    +0.000 A 
ENDROOT
BRANCH   3   7
ATOM      7  C   UNL     1       3.382   6.323  17.890  0.00  0.00    +0.000 A 
ATOM      8  C   UNL     1       4.735   6.520  17.516  0.00  0.00    +0.000 A 
ATOM      9  C   UNL     1       5.571   5.448  17.156  0.00  0.00    +0.000 A 
ATOM     10  C   UNL     1       5.049   4.151  17.135  0.00  0.00    +0.000 A 
ATOM     11  C   UNL     1       3.722   3.926  17.479  0.00  0.00    +0.000 A 
ATOM     12  C   UNL     1       2.901   4.989  17.867  0.00  0.00    +0.000 A 
ATOM     13 CL   UNL     1       1.310   4.520  18.376  0.00  0.00    +0.000 Cl
BRANCH   9  14
ATOM     14  C   UNL     1       7.017   5.595  16.815  0.00  0.00    +0.000 C 
ATOM     15  N   UNL     1       7.547   6.848  16.709  0.00  0.00    +0.000 N 
ATOM     16  O   UNL     1       7.732   4.617  16.637  0.00  0.00    +0.000 OA
ATOM     17  H   UNL     1       7.047   7.714  16.820  0.00  0.00    +0.000 HD
ATOM     18  H   UNL     1       8.533   6.899  16.480  0.00  0.00    +0.000 HD
ENDBRANCH   9  14
ENDBRANCH   3   7
BRANCH   6  19
ATOM     19  N   UNL     1       0.848  11.259  19.785  0.00  0.00    +0.000 N 
ATOM     20  C   UNL     1       1.799  12.120  20.476  0.00  0.00    +0.000 C 
ATOM     21  C   UNL     1      -0.482  11.707  19.515  0.00  0.00    +0.000 C 
ATOM     22  O   UNL     1      -1.403  11.014  19.080  0.00  0.00    +0.000 OA
BRANCH  21  23
ATOM     23  C   UNL     1      -0.910  13.107  19.759  0.00  0.00    +0.000 A 
ATOM     24  C   UNL     1      -0.350  14.097  18.934  0.00  0.00    +0.000 A 
ATOM     25  F   UNL     1       0.460  13.769  17.913  0.00  0.00    +0.000 F 
ATOM     26  C   UNL     1      -0.585  15.456  19.148  0.00  0.00    +0.000 A 
ATOM     27  C   UNL     1      -1.426  15.852  20.186  0.00  0.00    +0.000 A 
ATOM     28  C   UNL     1      -1.965  14.887  21.038  0.00  0.00    +0.000 A 
ATOM     29  C   UNL     1      -1.676  13.524  20.856  0.00  0.00    +0.000 A 
ATOM     30 CL   UNL     1      -2.232  12.448  22.086  0.00  0.00    +0.000 Cl
ENDBRANCH  21  23
ENDBRANCH   6  19
BRANCH   1  31
ATOM     31  O   UNL     1       1.443   8.930  21.581  0.00  0.00    +0.000 OA
BRANCH  31  33
ATOM     32  C   UNL     1      -0.846   8.200  21.642  0.00  0.00    +0.000 C 
ATOM     33  C   UNL     1       0.124   9.322  22.016  0.00  0.00    +0.000 C 
ATOM     34  C   UNL     1       0.069   9.518  23.535  0.00  0.00    +0.000 C 
ENDBRANCH  31  33
ENDBRANCH   1  31
TORSDOF 6
ENDMDL
MODEL 4
REMARK VINA RESULT:      -8.0      2.857      4.297
REMARK  Name = 
REMARK  9 active torsions:
REMARK  status: ('A' for Active; 'I' for Inactive)
REMARK    1  A    between atoms: C_1  and  C_2
REMARK    2  A    between atoms: C_2  and  C_3
REMARK    3  A    between atoms: C_2  and  O_4
REMARK    4  A    between atoms: O_4  and  C_5
REMARK    5  A    between atoms: C_7  and  C_8
REMARK    6  A    between atoms: C_10  and  C_11
REMARK    7  A    between atoms: C_20  and  N_21
REMARK    8  A    between atoms: N_21  and  C_22
REMARK    9  A    between atoms: C_23  and  C_25
REMARK                            x       y       z     vdW  Elec       q    Type
REMARK                         _______ _______ _______ _____ _____    ______ ____
ROOT
ATOM      1  C   UNL     1      -0.271  10.567  19.581  0.00  0.00    +0.000 A 
ATOM      2  C   UNL     1       0.537   9.448  19.259  0.00  0.00    +0.000 A 
ATOM      3  C   UNL     1       1.248   8.705  20.205  0.00  0.00    +0.000 A 
ATOM      4  C   UNL     1       1.307   9.260  21.477  0.00  0.00    +0.000 A 
ATOM      5  C   UNL     1       0.581  10.419  21.803  0.00  0.00    +0.000 A 
ATOM      6  C   UNL     1      -0.278  11.088  20.907  0.00  0.00    +0.000 A 
ENDROOT
BRANCH   3   7
ATOM      7  C   UNL     1       1.847   7.376  19.893  0.00  0.00    +0.000 A 
ATOM      8  C   UNL     1       1.543   6.255  20.705  0.00  0.00    +0.000 A 
ATOM      9  C   UNL     1       2.012   4.965  20.398  0.00  0.00    +0.000 A 
ATOM     10  C   UNL     1       2.827   4.783  19.276  0.00  0.00    +0.000 A 
ATOM     11  C   UNL     1       3.157   5.864  18.469  0.00  0.00    +0.000 A 
ATOM     12  C   UNL     1       2.665   7.140  18.758  0.00  0.00    +0.000 A 
ATOM     13 CL   UNL     1       3.075   8.351  17.587  0.00  0.00    +0.000 Cl
BRANCH   9  14
ATOM     14  C   UNL     1       1.670   3.743  21.185  0.00  0.00    +0.000 C 
ATOM     15  N   UNL     1       0.680   2.921  20.731  0.00  0.00    +0.000 N 
ATOM     16  O   UNL     1       2.262   3.465  22.219  0.00  0.00    +0.000 OA
ATOM     17  H   UNL     1       0.122   3.064  19.905  0.00  0.00    +0.000 HD
ATOM     18  H   UNL     1       0.485   2.102  21.295  0.00  0.00    +0.000 HD
ENDBRANCH   9  14
ENDBRANCH   3   7
BRANCH   6  19
ATOM     19  N   UNL     1      -1.137  12.198  21.383  0.00  0.00    +0.000 N 
ATOM     20  C   UNL     1      -1.097  13.443  20.627  0.00  0.00    +0.000 C 
ATOM     21  C   UNL     1      -2.000  12.057  22.514  0.00  0.00    +0.000 C 
ATOM     22  O   UNL     1      -2.002  11.115  23.308  0.00  0.00    +0.000 OA
BRANCH  21  23
ATOM     23  C   UNL     1      -3.011  13.083  22.871  0.00  0.00    +0.000 A 
ATOM     24  C   UNL     1      -4.251  13.010  22.211  0.00  0.00    +0.000 A 
ATOM     25  F   UNL     1      -4.529  11.999  21.372  0.00  0.00    +0.000 F 
ATOM     26  C   UNL     1      -5.232  13.989  22.377  0.00  0.00    +0.000 A 
ATOM     27  C   UNL     1      -5.001  15.055  23.244  0.00  0.00    +0.000 A 
ATOM     28  C   UNL     1      -3.764  15.163  23.882  0.00  0.00    +0.000 A 
ATOM     29  C   UNL     1      -2.756  14.208  23.665  0.00  0.00    +0.000 A 
ATOM     30 CL   UNL     1      -1.208  14.555  24.345  0.00  0.00    +0.000 Cl
ENDBRANCH  21  23
ENDBRANCH   6  19
BRANCH   1  31
ATOM     31  O   UNL     1      -1.008  11.157  18.572  0.00  0.00    +0.000 OA
BRANCH  31  33
ATOM     32  C   UNL     1      -3.367  11.534  18.312  0.00  0.00    +0.000 C 
ATOM     33  C   UNL     1      -2.238  10.511  18.182  0.00  0.00    +0.000 C 
ATOM     34  C   UNL     1      -2.185  10.036  16.725  0.00  0.00    +0.000 C 
ENDBRANCH  31  33
ENDBRANCH   1  31
TORSDOF 6
ENDMDL
MODEL 5
REMARK VINA RESULT:      -8.0      1.316      1.558
REMARK  Name = 
REMARK  9 active torsions:
REMARK  status: ('A' for Active; 'I' for Inactive)
REMARK    1  A    between atoms: C_1  and  C_2
REMARK    2  A    between atoms: C_2  and  C_3
REMARK    3  A    between atoms: C_2  and  O_4
REMARK    4  A    between atoms: O_4  and  C_5
REMARK    5  A    between atoms: C_7  and  C_8
REMARK    6  A    between atoms: C_10  and  C_11
REMARK    7  A    between atoms: C_20  and  N_21
REMARK    8  A    between atoms: N_21  and  C_22
REMARK    9  A    between atoms: C_23  and  C_25
REMARK                            x       y       z     vdW  Elec       q    Type
REMARK                         _______ _______ _______ _____ _____    ______ ____
ROOT
ATOM      1  C   UNL     1       1.097  10.101  20.440  0.00  0.00    +0.000 A 
ATOM      2  C   UNL     1       1.446   8.728  20.436  0.00  0.00    +0.000 A 
ATOM      3  C   UNL     1       1.910   8.047  19.308  0.00  0.00    +0.000 A 
ATOM      4  C   UNL     1       1.798   8.736  18.108  0.00  0.00    +0.000 A 
ATOM      5  C   UNL     1       1.373  10.076  18.071  0.00  0.00    +0.000 A 
ATOM      6  C   UNL     1       1.063  10.835  19.219  0.00  0.00    +0.000 A 
ENDROOT
BRANCH   3   7
ATOM      7  C   UNL     1       2.542   6.699  19.391  0.00  0.00    +0.000 A 
ATOM      8  C   UNL     1       2.008   5.721  20.268  0.00  0.00    +0.000 A 
ATOM      9  C   UNL     1       2.513   4.410  20.315  0.00  0.00    +0.000 A 
ATOM     10  C   UNL     1       3.593   4.063  19.497  0.00  0.00    +0.000 A 
ATOM     11  C   UNL     1       4.149   5.002  18.639  0.00  0.00    +0.000 A 
ATOM     12  C   UNL     1       3.627   6.297  18.570  0.00  0.00    +0.000 A 
ATOM     13 CL   UNL     1       4.360   7.307  17.366  0.00  0.00    +0.000 Cl
BRANCH   9  14
ATOM     14  C   UNL     1       1.948   3.328  21.174  0.00  0.00    +0.000 C 
ATOM     15  N   UNL     1       0.659   2.928  20.971  0.00  0.00    +0.000 N 
ATOM     16  O   UNL     1       2.618   2.792  22.048  0.00  0.00    +0.000 OA
ATOM     17  H   UNL     1       0.019   3.311  20.294  0.00  0.00    +0.000 HD
ATOM     18  H   UNL     1       0.319   2.188  21.574  0.00  0.00    +0.000 HD
ENDBRANCH   9  14
ENDBRANCH   3   7
BRANCH   6  19
ATOM     19  N   UNL     1       0.793  12.288  19.103  0.00  0.00    +0.000 N 
ATOM     20  C   UNL     1      -0.400  12.686  18.366  0.00  0.00    +0.000 C 
ATOM     21  C   UNL     1       1.637  13.267  19.711  0.00  0.00    +0.000 C 
ATOM     22  O   UNL     1       2.739  13.055  20.220  0.00  0.00    +0.000 OA
BRANCH  21  23
ATOM     23  C   UNL     1       1.264  14.702  19.778  0.00  0.00    +0.000 A 
ATOM     24  C   UNL     1       0.192  15.041  20.622  0.00  0.00    +0.000 A 
ATOM     25  F   UNL     1      -0.396  14.117  21.398  0.00  0.00    +0.000 F 
ATOM     26  C   UNL     1      -0.323  16.338  20.673  0.00  0.00    +0.000 A 
ATOM     27  C   UNL     1       0.255  17.339  19.896  0.00  0.00    +0.000 A 
ATOM     28  C   UNL     1       1.298  17.015  19.027  0.00  0.00    +0.000 A 
ATOM     29  C   UNL     1       1.773  15.696  18.933  0.00  0.00    +0.000 A 
ATOM     30 CL   UNL     1       2.923  15.379  17.684  0.00  0.00    +0.000 Cl
ENDBRANCH  21  23
ENDBRANCH   6  19
BRANCH   1  31
ATOM     31  O   UNL     1       0.751  10.688  21.641  0.00  0.00    +0.000 OA
BRANCH  31  33
ATOM     32  C   UNL     1      -0.089   9.442  23.518  0.00  0.00    +0.000 C 
ATOM     33  C   UNL     1      -0.469  10.244  22.271  0.00  0.00    +0.000 C 
ATOM     34  C   UNL     1      -1.339  11.428  22.708  0.00  0.00    +0.000 C 
ENDBRANCH  31  33
ENDBRANCH   1  31
TORSDOF 6
ENDMDL
MODEL 6
REMARK VINA RESULT:      -7.9      2.762      4.165
REMARK  Name = 
REMARK  9 active torsions:
REMARK  status: ('A' for Active; 'I' for Inactive)
REMARK    1  A    between atoms: C_1  and  C_2
REMARK    2  A    between atoms: C_2  and  C_3
REMARK    3  A    between atoms: C_2  and  O_4
REMARK    4  A    between atoms: O_4  and  C_5
REMARK    5  A    between atoms: C_7  and  C_8
REMARK    6  A    between atoms: C_10  and  C_11
REMARK    7  A    between atoms: C_20  and  N_21
REMARK    8  A    between atoms: N_21  and  C_22
REMARK    9  A    between atoms: C_23  and  C_25
REMARK                            x       y       z     vdW  Elec       q    Type
REMARK                         _______ _______ _______ _____ _____    ______ ____
ROOT
ATOM      1  C   UNL     1       0.292  10.887  19.879  0.00  0.00    +0.000 A 
ATOM      2  C   UNL     1       1.112   9.750  19.673  0.00  0.00    +0.000 A 
ATOM      3  C   UNL     1       1.098   8.622  20.497  0.00  0.00    +0.000 A 
ATOM      4  C   UNL     1       0.389   8.760  21.684  0.00  0.00    +0.000 A 
ATOM      5  C   UNL     1      -0.368   9.914  21.954  0.00  0.00    +0.000 A 
ATOM      6  C   UNL     1      -0.502  10.994  21.056  0.00  0.00    +0.000 A 
ENDROOT
BRANCH   3   7
ATOM      7  C   UNL     1       1.742   7.337  20.105  0.00  0.00    +0.000 A 
ATOM      8  C   UNL     1       1.530   6.173  20.885  0.00  0.00    +0.000 A 
ATOM      9  C   UNL     1       2.043   4.920  20.506  0.00  0.00    +0.000 A 
ATOM     10  C   UNL     1       2.811   4.818  19.341  0.00  0.00    +0.000 A 
ATOM     11  C   UNL     1       3.051   5.943  18.564  0.00  0.00    +0.000 A 
ATOM     12  C   UNL     1       2.515   7.183  18.925  0.00  0.00    +0.000 A 
ATOM     13 CL   UNL     1       2.813   8.456  17.785  0.00  0.00    +0.000 Cl
BRANCH   9  14
ATOM     14  C   UNL     1       1.796   3.654  21.258  0.00  0.00    +0.000 C 
ATOM     15  N   UNL     1       0.771   2.841  20.868  0.00  0.00    +0.000 N 
ATOM     16  O   UNL     1       2.495   3.332  22.210  0.00  0.00    +0.000 OA
ATOM     17  H   UNL     1       0.129   3.019  20.113  0.00  0.00    +0.000 HD
ATOM     18  H   UNL     1       0.643   1.992  21.404  0.00  0.00    +0.000 HD
ENDBRANCH   9  14
ENDBRANCH   3   7
BRANCH   6  19
ATOM     19  N   UNL     1      -1.457  12.090  21.346  0.00  0.00    +0.000 N 
ATOM     20  C   UNL     1      -2.559  12.278  20.410  0.00  0.00    +0.000 C 
ATOM     21  C   UNL     1      -1.337  12.914  22.507  0.00  0.00    +0.000 C 
ATOM     22  O   UNL     1      -0.373  12.945  23.275  0.00  0.00    +0.000 OA
BRANCH  21  23
ATOM     23  C   UNL     1      -2.397  13.870  22.913  0.00  0.00    +0.000 A 
ATOM     24  C   UNL     1      -3.513  13.336  23.581  0.00  0.00    +0.000 A 
ATOM     25  F   UNL     1      -3.561  12.036  23.915  0.00  0.00    +0.000 F 
ATOM     26  C   UNL     1      -4.623  14.119  23.902  0.00  0.00    +0.000 A 
ATOM     27  C   UNL     1      -4.623  15.476  23.588  0.00  0.00    +0.000 A 
ATOM     28  C   UNL     1      -3.539  16.018  22.895  0.00  0.00    +0.000 A 
ATOM     29  C   UNL     1      -2.450  15.214  22.519  0.00  0.00    +0.000 A 
ATOM     30 CL   UNL     1      -1.269  15.946  21.494  0.00  0.00    +0.000 Cl
ENDBRANCH  21  23
ENDBRANCH   6  19
BRANCH   1  31
ATOM     31  O   UNL     1       0.321  11.897  18.936  0.00  0.00    +0.000 OA
BRANCH  31  33
ATOM     32  C   UNL     1       2.405  12.832  18.187  0.00  0.00    +0.000 C 
ATOM     33  C   UNL     1       1.236  12.991  19.161  0.00  0.00    +0.000 C 
ATOM     34  C   UNL     1       0.568  14.344  18.894  0.00  0.00    +0.000 C 
ENDBRANCH  31  33
ENDBRANCH   1  31
TORSDOF 6
ENDMDL
MODEL 7
REMARK VINA RESULT:      -7.8      2.515      3.816
REMARK  Name = 
REMARK  9 active torsions:
REMARK  status: ('A' for Active; 'I' for Inactive)
REMARK    1  A    between atoms: C_1  and  C_2
REMARK    2  A    between atoms: C_2  and  C_3
REMARK    3  A    between atoms: C_2  and  O_4
REMARK    4  A    between atoms: O_4  and  C_5
REMARK    5  A    between atoms: C_7  and  C_8
REMARK    6  A    between atoms: C_10  and  C_11
REMARK    7  A    between atoms: C_20  and  N_21
REMARK    8  A    between atoms: N_21  and  C_22
REMARK    9  A    between atoms: C_23  and  C_25
REMARK                            x       y       z     vdW  Elec       q    Type
REMARK                         _______ _______ _______ _____ _____    ______ ____
ROOT
ATOM      1  C   UNL     1       0.364  10.904  19.771  0.00  0.00    +0.000 A 
ATOM      2  C   UNL     1       1.173   9.755  19.591  0.00  0.00    +0.000 A 
ATOM      3  C   UNL     1       1.136   8.639  20.431  0.00  0.00    +0.000 A 
ATOM      4  C   UNL     1       0.416   8.802  21.607  0.00  0.00    +0.000 A 
ATOM      5  C   UNL     1      -0.330   9.969  21.852  0.00  0.00    +0.000 A 
ATOM      6  C   UNL     1      -0.443  11.037  20.938  0.00  0.00    +0.000 A 
ENDROOT
BRANCH   3   7
ATOM      7  C   UNL     1       1.769   7.341  20.064  0.00  0.00    +0.000 A 
ATOM      8  C   UNL     1       1.535   6.190  20.859  0.00  0.00    +0.000 A 
ATOM      9  C   UNL     1       2.037   4.926  20.503  0.00  0.00    +0.000 A 
ATOM     10  C   UNL     1       2.816   4.799  19.349  0.00  0.00    +0.000 A 
ATOM     11  C   UNL     1       3.079   5.910  18.558  0.00  0.00    +0.000 A 
ATOM     12  C   UNL     1       2.554   7.161  18.896  0.00  0.00    +0.000 A 
ATOM     13 CL   UNL     1       2.879   8.414  17.741  0.00  0.00    +0.000 Cl
BRANCH   9  14
ATOM     14  C   UNL     1       1.767   3.674  21.270  0.00  0.00    +0.000 C 
ATOM     15  N   UNL     1       0.724   2.879  20.892  0.00  0.00    +0.000 N 
ATOM     16  O   UNL     1       2.463   3.348  22.223  0.00  0.00    +0.000 OA
ATOM     17  H   UNL     1       0.083   3.061  20.138  0.00  0.00    +0.000 HD
ATOM     18  H   UNL     1       0.581   2.038  21.439  0.00  0.00    +0.000 HD
ENDBRANCH   9  14
ENDBRANCH   3   7
BRANCH   6  19
ATOM     19  N   UNL     1      -1.388  12.148  21.201  0.00  0.00    +0.000 N 
ATOM     20  C   UNL     1      -2.507  12.302  20.280  0.00  0.00    +0.000 C 
ATOM     21  C   UNL     1      -1.241  13.019  22.324  0.00  0.00    +0.000 C 
ATOM     22  O   UNL     1      -0.261  13.078  23.070  0.00  0.00    +0.000 OA
BRANCH  21  23
ATOM     23  C   UNL     1      -2.289  13.996  22.711  0.00  0.00    +0.000 A 
ATOM     24  C   UNL     1      -2.043  15.346  22.407  0.00  0.00    +0.000 A 
ATOM     25  F   UNL     1      -0.952  15.711  21.714  0.00  0.00    +0.000 F 
ATOM     26  C   UNL     1      -2.900  16.364  22.830  0.00  0.00    +0.000 A 
ATOM     27  C   UNL     1      -4.052  16.042  23.544  0.00  0.00    +0.000 A 
ATOM     28  C   UNL     1      -4.297  14.711  23.884  0.00  0.00    +0.000 A 
ATOM     29  C   UNL     1      -3.400  13.696  23.510  0.00  0.00    +0.000 A 
ATOM     30 CL   UNL     1      -3.702  12.124  24.158  0.00  0.00    +0.000 Cl
ENDBRANCH  21  23
ENDBRANCH   6  19
BRANCH   1  31
ATOM     31  O   UNL     1       0.415  11.900  18.815  0.00  0.00    +0.000 OA
BRANCH  31  33
ATOM     32  C   UNL     1       2.430  13.023  18.139  0.00  0.00    +0.000 C 
ATOM     33  C   UNL     1       1.238  13.052  19.097  0.00  0.00    +0.000 C 
ATOM     34  C   UNL     1       0.470  14.359  18.871  0.00  0.00    +0.000 C 
ENDBRANCH  31  33
ENDBRANCH   1  31
TORSDOF 6
ENDMDL
MODEL 8
REMARK VINA RESULT:      -7.8      2.410      2.827
REMARK  Name = 
REMARK  9 active torsions:
REMARK  status: ('A' for Active; 'I' for Inactive)
REMARK    1  A    between atoms: C_1  and  C_2
REMARK    2  A    between atoms: C_2  and  C_3
REMARK    3  A    between atoms: C_2  and  O_4
REMARK    4  A    between atoms: O_4  and  C_5
REMARK    5  A    between atoms: C_7  and  C_8
REMARK    6  A    between atoms: C_10  and  C_11
REMARK    7  A    between atoms: C_20  and  N_21
REMARK    8  A    between atoms: N_21  and  C_22
REMARK    9  A    between atoms: C_23  and  C_25
REMARK                            x       y       z     vdW  Elec       q    Type
REMARK                         _______ _______ _______ _____ _____    ______ ____
ROOT
ATOM      1  C   UNL     1       1.363   9.369  20.185  0.00  0.00    +0.000 A 
ATOM      2  C   UNL     1       1.934   8.080  20.046  0.00  0.00    +0.000 A 
ATOM      3  C   UNL     1       2.367   7.548  18.829  0.00  0.00    +0.000 A 
ATOM      4  C   UNL     1       1.998   8.268  17.700  0.00  0.00    +0.000 A 
ATOM      5  C   UNL     1       1.354   9.513  17.804  0.00  0.00    +0.000 A 
ATOM      6  C   UNL     1       1.061  10.147  19.030  0.00  0.00    +0.000 A 
ENDROOT
BRANCH   3   7
ATOM      7  C   UNL     1       3.220   6.328  18.747  0.00  0.00    +0.000 A 
ATOM      8  C   UNL     1       4.458   6.377  18.059  0.00  0.00    +0.000 A 
ATOM      9  C   UNL     1       5.337   5.279  18.031  0.00  0.00    +0.000 A 
ATOM     10  C   UNL     1       4.970   4.093  18.674  0.00  0.00    +0.000 A 
ATOM     11  C   UNL     1       3.755   4.007  19.342  0.00  0.00    +0.000 A 
ATOM     12  C   UNL     1       2.896   5.108  19.395  0.00  0.00    +0.000 A 
ATOM     13 CL   UNL     1       1.479   4.870  20.366  0.00  0.00    +0.000 Cl
BRANCH   9  14
ATOM     14  C   UNL     1       6.678   5.300  17.376  0.00  0.00    +0.000 C 
ATOM     15  N   UNL     1       7.621   4.396  17.771  0.00  0.00    +0.000 N 
ATOM     16  O   UNL     1       6.943   6.105  16.492  0.00  0.00    +0.000 OA
ATOM     17  H   UNL     1       7.513   3.705  18.495  0.00  0.00    +0.000 HD
ATOM     18  H   UNL     1       8.515   4.444  17.296  0.00  0.00    +0.000 HD
ENDBRANCH   9  14
ENDBRANCH   3   7
BRANCH   6  19
ATOM     19  N   UNL     1       0.541  11.535  19.047  0.00  0.00    +0.000 N 
ATOM     20  C   UNL     1      -0.791  11.752  18.497  0.00  0.00    +0.000 C 
ATOM     21  C   UNL     1       1.286  12.617  19.607  0.00  0.00    +0.000 C 
ATOM     22  O   UNL     1       2.468  12.577  19.955  0.00  0.00    +0.000 OA
BRANCH  21  23
ATOM     23  C   UNL     1       0.694  13.961  19.817  0.00  0.00    +0.000 A 
ATOM     24  C   UNL     1       1.110  14.983  18.946  0.00  0.00    +0.000 A 
ATOM     25  F   UNL     1       1.933  14.722  17.917  0.00  0.00    +0.000 F 
ATOM     26  C   UNL     1       0.713  16.310  19.123  0.00  0.00    +0.000 A 
ATOM     27  C   UNL     1      -0.148  16.637  20.168  0.00  0.00    +0.000 A 
ATOM     28  C   UNL     1      -0.546  15.643  21.064  0.00  0.00    +0.000 A 
ATOM     29  C   UNL     1      -0.095  14.320  20.918  0.00  0.00    +0.000 A 
ATOM     30 CL   UNL     1      -0.489  13.227  22.195  0.00  0.00    +0.000 Cl
ENDBRANCH  21  23
ENDBRANCH   6  19
BRANCH   1  31
ATOM     31  O   UNL     1       1.070   9.825  21.456  0.00  0.00    +0.000 OA
BRANCH  31  33
ATOM     32  C   UNL     1      -0.697   8.203  21.615  0.00  0.00    +0.000 C 
ATOM     33  C   UNL     1      -0.279   9.640  21.934  0.00  0.00    +0.000 C 
ATOM     34  C   UNL     1      -0.369   9.841  23.450  0.00  0.00    +0.000 C 
ENDBRANCH  31  33
ENDBRANCH   1  31
TORSDOF 6
ENDMDL
MODEL 9
REMARK VINA RESULT:      -7.8      2.858      4.264
REMARK  Name = 
REMARK  9 active torsions:
REMARK  status: ('A' for Active; 'I' for Inactive)
REMARK    1  A    between atoms: C_1  and  C_2
REMARK    2  A    between atoms: C_2  and  C_3
REMARK    3  A    between atoms: C_2  and  O_4
REMARK    4  A    between atoms: O_4  and  C_5
REMARK    5  A    between atoms: C_7  and  C_8
REMARK    6  A    between atoms: C_10  and  C_11
REMARK    7  A    between atoms: C_20  and  N_21
REMARK    8  A    between atoms: N_21  and  C_22
REMARK    9  A    between atoms: C_23  and  C_25
REMARK                            x       y       z     vdW  Elec       q    Type
REMARK                         _______ _______ _______ _____ _____    ______ ____
ROOT
ATOM      1  C   UNL     1      -0.115  10.644  19.612  0.00  0.00    +0.000 A 
ATOM      2  C   UNL     1       0.632   9.492  19.264  0.00  0.00    +0.000 A 
ATOM      3  C   UNL     1       1.357   8.729  20.182  0.00  0.00    +0.000 A 
ATOM      4  C   UNL     1       1.498   9.291  21.444  0.00  0.00    +0.000 A 
ATOM      5  C   UNL     1       0.834  10.480  21.793  0.00  0.00    +0.000 A 
ATOM      6  C   UNL     1      -0.039  11.176  20.932  0.00  0.00    +0.000 A 
ENDROOT
BRANCH   3   7
ATOM      7  C   UNL     1       1.889   7.375  19.854  0.00  0.00    +0.000 A 
ATOM      8  C   UNL     1       1.580   6.273  20.691  0.00  0.00    +0.000 A 
ATOM      9  C   UNL     1       1.984   4.964  20.374  0.00  0.00    +0.000 A 
ATOM     10  C   UNL     1       2.737   4.740  19.217  0.00  0.00    +0.000 A 
ATOM     11  C   UNL     1       3.070   5.801  18.386  0.00  0.00    +0.000 A 
ATOM     12  C   UNL     1       2.643   7.098  18.685  0.00  0.00    +0.000 A 
ATOM     13 CL   UNL     1       3.044   8.284  17.484  0.00  0.00    +0.000 Cl
BRANCH   9  14
ATOM     14  C   UNL     1       1.632   3.762  21.188  0.00  0.00    +0.000 C 
ATOM     15  N   UNL     1       0.626   2.945  20.759  0.00  0.00    +0.000 N 
ATOM     16  O   UNL     1       2.229   3.496  22.223  0.00  0.00    +0.000 OA
ATOM     17  H   UNL     1       0.064   3.080  19.935  0.00  0.00    +0.000 HD
ATOM     18  H   UNL     1       0.425   2.139  21.340  0.00  0.00    +0.000 HD
ENDBRANCH   9  14
ENDBRANCH   3   7
BRANCH   6  19
ATOM     19  N   UNL     1      -0.832  12.322  21.438  0.00  0.00    +0.000 N 
ATOM     20  C   UNL     1      -0.622  13.612  20.793  0.00  0.00    +0.000 C 
ATOM     21  C   UNL     1      -1.789  12.177  22.489  0.00  0.00    +0.000 C 
ATOM     22  O   UNL     1      -1.936  11.181  23.200  0.00  0.00    +0.000 OA
BRANCH  21  23
ATOM     23  C   UNL     1      -2.730  13.263  22.858  0.00  0.00    +0.000 A 
ATOM     24  C   UNL     1      -2.326  14.131  23.887  0.00  0.00    +0.000 A 
ATOM     25  F   UNL     1      -1.105  14.030  24.437  0.00  0.00    +0.000 F 
ATOM     26  C   UNL     1      -3.176  15.112  24.400  0.00  0.00    +0.000 A 
ATOM     27  C   UNL     1      -4.451  15.268  23.860  0.00  0.00    +0.000 A 
ATOM     28  C   UNL     1      -4.883  14.395  22.860  0.00  0.00    +0.000 A 
ATOM     29  C   UNL     1      -4.046  13.369  22.390  0.00  0.00    +0.000 A 
ATOM     30 CL   UNL     1      -4.758  12.232  21.303  0.00  0.00    +0.000 Cl
ENDBRANCH  21  23
ENDBRANCH   6  19
BRANCH   1  31
ATOM     31  O   UNL     1      -0.875  11.255  18.633  0.00  0.00    +0.000 OA
BRANCH  31  33
ATOM     32  C   UNL     1      -3.203  11.685  18.214  0.00  0.00    +0.000 C 
ATOM     33  C   UNL     1      -2.111  10.614  18.254  0.00  0.00    +0.000 C 
ATOM     34  C   UNL     1      -2.011   9.979  16.863  0.00  0.00    +0.000 C 
ENDBRANCH  31  33
ENDBRANCH   1  31
TORSDOF 6
ENDMDL
