MODEL 1
REMARK VINA RESULT:      -6.8      0.000      0.000
REMARK  Name = 
REMARK  9 active torsions:
REMARK  status: ('A' for Active; 'I' for Inactive)
REMARK    1  A    between atoms: C_1  and  O_2
REMARK    2  A    between atoms: O_2  and  C_3
REMARK    3  A    between atoms: C_7  and  O_8
REMARK    4  A    between atoms: O_8  and  C_9
REMARK    5  A    between atoms: C_10  and  C_11
REMARK    6  A    between atoms: C_13  and  C_14
REMARK    7  A    between atoms: N_17  and  C_18
REMARK    8  A    between atoms: C_18  and  C_19
REMARK    9  A    between atoms: N_27  and  C_28
REMARK                            x       y       z     vdW  Elec       q    Type
REMARK                         _______ _______ _______ _____ _____    ______ ____
ROOT
ATOM      1  C   UNL     1      -0.838  12.636  18.839  0.00  0.00    +0.000 C 
ATOM      2  C   UNL     1      -0.522  14.126  19.055  0.00  0.00    +0.000 C 
ATOM      3  C   UNL     1       0.924  14.136  19.563  0.00  0.00    +0.000 C 
ATOM      4  C   UNL     1       1.932  14.274  18.435  0.00  0.00    +0.000 C 
ATOM      5  C   UNL     1       1.022  12.798  20.274  0.00  0.00    +0.000 C 
ATOM      6  O   UNL     1       1.882  12.534  21.101  0.00  0.00    +0.000 OA
ATOM      7  N   UNL     1       0.021  11.954  19.822  0.00  0.00    +0.000 N 
ENDROOT
BRANCH   1  13
ATOM      8  C   UNL     1      -2.905  11.601  17.772  0.00  0.00    +0.000 A 
ATOM      9  C   UNL     1      -4.270  11.277  17.752  0.00  0.00    +0.000 A 
ATOM     10  C   UNL     1      -5.104  11.706  18.768  0.00  0.00    +0.000 A 
ATOM     11  C   UNL     1      -4.555  12.386  19.843  0.00  0.00    +0.000 A 
ATOM     12  C   UNL     1      -3.178  12.673  19.929  0.00  0.00    +0.000 A 
ATOM     13  C   UNL     1      -2.321  12.324  18.862  0.00  0.00    +0.000 A 
BRANCH   8  15
ATOM     14  C   UNL     1      -2.675  10.478  15.687  0.00  0.00    +0.000 C 
ATOM     15  O   UNL     1      -2.065  11.193  16.759  0.00  0.00    +0.000 OA
ENDBRANCH   8  15
BRANCH  12  16
ATOM     16  O   UNL     1      -2.922  13.201  21.161  0.00  0.00    +0.000 OA
ATOM     17  C   UNL     1      -2.746  12.427  22.328  0.00  0.00    +0.000 C 
ENDBRANCH  12  16
ENDBRANCH   1  13
BRANCH   7  18
ATOM     18  C   UNL     1      -0.166  10.585  20.294  0.00  0.00    +0.000 C 
BRANCH  18  19
ATOM     19  C   UNL     1       0.824   9.578  19.749  0.00  0.00    +0.000 A 
ATOM     20  C   UNL     1       1.388   9.503  18.480  0.00  0.00    +0.000 A 
ATOM     21  C   UNL     1       2.204   8.337  18.401  0.00  0.00    +0.000 A 
ATOM     22  C   UNL     1       3.062   7.795  17.419  0.00  0.00    +0.000 A 
ATOM     23  C   UNL     1       3.753   6.604  17.677  0.00  0.00    +0.000 A 
ATOM     24  C   UNL     1       3.557   5.920  18.870  0.00  0.00    +0.000 A 
ATOM     25  C   UNL     1       2.689   6.420  19.843  0.00  0.00    +0.000 A 
ATOM     26  C   UNL     1       2.048   7.652  19.606  0.00  0.00    +0.000 A 
ATOM     27  N   UNL     1       1.219   8.421  20.406  0.00  0.00    +0.000 N 
ATOM     28  C   UNL     1       0.885   8.073  21.770  0.00  0.00    +0.000 C 
ENDBRANCH  18  19
ENDBRANCH   7  18
TORSDOF 5
ENDMDL
MODEL 2
REMARK VINA RESULT:      -6.8      2.167      6.369
REMARK  Name = 
REMARK  9 active torsions:
REMARK  status: ('A' for Active; 'I' for Inactive)
REMARK    1  A    between atoms: C_1  and  O_2
REMARK    2  A    between atoms: O_2  and  C_3
REMARK    3  A    between atoms: C_7  and  O_8
REMARK    4  A    between atoms: O_8  and  C_9
REMARK    5  A    between atoms: C_10  and  C_11
REMARK    6  A    between atoms: C_13  and  C_14
REMARK    7  A    between atoms: N_17  and  C_18
REMARK    8  A    between atoms: C_18  and  C_19
REMARK    9  A    between atoms: N_27  and  C_28
REMARK                            x       y       z     vdW  Elec       q    Type
REMARK                         _______ _______ _______ _____ _____    ______ ____
ROOT
ATOM      1  C   UNL     1       0.122  10.827  20.226  0.00  0.00    +0.000 C 
ATOM      2  C   UNL     1      -0.255  10.031  18.965  0.00  0.00    +0.000 C 
ATOM      3  C   UNL     1       1.035   9.998  18.138  0.00  0.00    +0.000 C 
ATOM      4  C   UNL     1       1.881   8.772  18.436  0.00  0.00    +0.000 C 
ATOM      5  C   UNL     1       1.713  11.292  18.553  0.00  0.00    +0.000 C 
ATOM      6  O   UNL     1       2.598  11.829  17.904  0.00  0.00    +0.000 OA
ATOM      7  N   UNL     1       1.191  11.726  19.760  0.00  0.00    +0.000 N 
ENDROOT
BRANCH   1  13
ATOM      8  C   UNL     1      -1.119  11.456  22.357  0.00  0.00    +0.000 A 
ATOM      9  C   UNL     1      -2.195  12.031  23.052  0.00  0.00    +0.000 A 
ATOM     10  C   UNL     1      -3.271  12.556  22.362  0.00  0.00    +0.000 A 
ATOM     11  C   UNL     1      -3.231  12.580  20.977  0.00  0.00    +0.000 A 
ATOM     12  C   UNL     1      -2.139  12.070  20.246  0.00  0.00    +0.000 A 
ATOM     13  C   UNL     1      -1.069  11.449  20.926  0.00  0.00    +0.000 A 
BRANCH   8  15
ATOM     14  C   UNL     1      -0.149   9.534  23.370  0.00  0.00    +0.000 C 
ATOM     15  O   UNL     1      -0.048  10.916  23.033  0.00  0.00    +0.000 OA
ENDBRANCH   8  15
BRANCH  12  16
ATOM     16  O   UNL     1      -2.319  12.379  18.928  0.00  0.00    +0.000 OA
ATOM     17  C   UNL     1      -3.249  11.731  18.088  0.00  0.00    +0.000 C 
ENDBRANCH  12  16
ENDBRANCH   1  13
BRANCH   7  18
ATOM     18  C   UNL     1       1.628  12.938  20.449  0.00  0.00    +0.000 C 
BRANCH  18  19
ATOM     19  C   UNL     1       1.309  14.233  19.733  0.00  0.00    +0.000 A 
ATOM     20  C   UNL     1       0.068  14.774  19.415  0.00  0.00    +0.000 A 
ATOM     21  C   UNL     1       0.261  15.972  18.668  0.00  0.00    +0.000 A 
ATOM     22  C   UNL     1      -0.600  16.965  18.151  0.00  0.00    +0.000 A 
ATOM     23  C   UNL     1      -0.067  18.060  17.458  0.00  0.00    +0.000 A 
ATOM     24  C   UNL     1       1.299  18.147  17.224  0.00  0.00    +0.000 A 
ATOM     25  C   UNL     1       2.168  17.161  17.697  0.00  0.00    +0.000 A 
ATOM     26  C   UNL     1       1.632  16.097  18.450  0.00  0.00    +0.000 A 
ATOM     27  N   UNL     1       2.245  15.043  19.108  0.00  0.00    +0.000 N 
ATOM     28  C   UNL     1       3.681  14.876  19.177  0.00  0.00    +0.000 C 
ENDBRANCH  18  19
ENDBRANCH   7  18
TORSDOF 5
ENDMDL
MODEL 3
REMARK VINA RESULT:      -6.7      0.374      2.476
REMARK  Name = 
REMARK  9 active torsions:
REMARK  status: ('A' for Active; 'I' for Inactive)
REMARK    1  A    between atoms: C_1  and  O_2
REMARK    2  A    between atoms: O_2  and  C_3
REMARK    3  A    between atoms: C_7  and  O_8
REMARK    4  A    between atoms: O_8  and  C_9
REMARK    5  A    between atoms: C_10  and  C_11
REMARK    6  A    between atoms: C_13  and  C_14
REMARK    7  A    between atoms: N_17  and  C_18
REMARK    8  A    between atoms: C_18  and  C_19
REMARK    9  A    between atoms: N_27  and  C_28
REMARK                            x       y       z     vdW  Elec       q    Type
REMARK                         _______ _______ _______ _____ _____    ______ ____
ROOT
ATOM      1  C   UNL     1      -0.679  12.436  18.556  0.00  0.00    +0.000 C 
ATOM      2  C   UNL     1      -0.404  13.933  18.781  0.00  0.00    +0.000 C 
ATOM      3  C   UNL     1       1.006  13.973  19.379  0.00  0.00    +0.000 C 
ATOM      4  C   UNL     1       2.081  14.122  18.316  0.00  0.00    +0.000 C 
ATOM      5  C   UNL     1       1.083  12.641  20.105  0.00  0.00    +0.000 C 
ATOM      6  O   UNL     1       1.893  12.398  20.987  0.00  0.00    +0.000 OA
ATOM      7  N   UNL     1       0.128  11.777  19.597  0.00  0.00    +0.000 N 
ENDROOT
BRANCH   1  13
ATOM      8  C   UNL     1      -3.012  12.462  19.573  0.00  0.00    +0.000 A 
ATOM      9  C   UNL     1      -4.388  12.181  19.551  0.00  0.00    +0.000 A 
ATOM     10  C   UNL     1      -4.940  11.485  18.492  0.00  0.00    +0.000 A 
ATOM     11  C   UNL     1      -4.132  11.145  17.420  0.00  0.00    +0.000 A 
ATOM     12  C   UNL     1      -2.761  11.467  17.378  0.00  0.00    +0.000 A 
ATOM     13  C   UNL     1      -2.154  12.098  18.486  0.00  0.00    +0.000 A 
BRANCH   8  15
ATOM     14  C   UNL     1      -2.553  12.518  21.908  0.00  0.00    +0.000 C 
ATOM     15  O   UNL     1      -2.446  13.141  20.629  0.00  0.00    +0.000 OA
ENDBRANCH   8  15
BRANCH  12  16
ATOM     16  O   UNL     1      -2.279  11.147  16.141  0.00  0.00    +0.000 OA
ATOM     17  C   UNL     1      -2.851  10.167  15.303  0.00  0.00    +0.000 C 
ENDBRANCH  12  16
ENDBRANCH   1  13
BRANCH   7  18
ATOM     18  C   UNL     1      -0.065  10.407  20.065  0.00  0.00    +0.000 C 
BRANCH  18  19
ATOM     19  C   UNL     1       0.959   9.409  19.568  0.00  0.00    +0.000 A 
ATOM     20  C   UNL     1       1.567   9.327  18.321  0.00  0.00    +0.000 A 
ATOM     21  C   UNL     1       2.404   8.174  18.286  0.00  0.00    +0.000 A 
ATOM     22  C   UNL     1       3.304   7.633  17.341  0.00  0.00    +0.000 A 
ATOM     23  C   UNL     1       4.005   6.456  17.639  0.00  0.00    +0.000 A 
ATOM     24  C   UNL     1       3.778   5.785  18.834  0.00  0.00    +0.000 A 
ATOM     25  C   UNL     1       2.869   6.283  19.770  0.00  0.00    +0.000 A 
ATOM     26  C   UNL     1       2.218   7.502  19.493  0.00  0.00    +0.000 A 
ATOM     27  N   UNL     1       1.349   8.268  20.254  0.00  0.00    +0.000 N 
ATOM     28  C   UNL     1       0.974   7.932  21.611  0.00  0.00    +0.000 C 
ENDBRANCH  18  19
ENDBRANCH   7  18
TORSDOF 5
ENDMDL
MODEL 4
REMARK VINA RESULT:      -6.5      2.204      6.102
REMARK  Name = 
REMARK  9 active torsions:
REMARK  status: ('A' for Active; 'I' for Inactive)
REMARK    1  A    between atoms: C_1  and  O_2
REMARK    2  A    between atoms: O_2  and  C_3
REMARK    3  A    between atoms: C_7  and  O_8
REMARK    4  A    between atoms: O_8  and  C_9
REMARK    5  A    between atoms: C_10  and  C_11
REMARK    6  A    between atoms: C_13  and  C_14
REMARK    7  A    between atoms: N_17  and  C_18
REMARK    8  A    between atoms: C_18  and  C_19
REMARK    9  A    between atoms: N_27  and  C_28
REMARK                            x       y       z     vdW  Elec       q    Type
REMARK                         _______ _______ _______ _____ _____    ______ ____
ROOT
ATOM      1  C   UNL     1       0.241  10.868  20.212  0.00  0.00    +0.000 C 
ATOM      2  C   UNL     1      -0.157  10.063  18.963  0.00  0.00    +0.000 C 
ATOM      3  C   UNL     1       1.113  10.042  18.106  0.00  0.00    +0.000 C 
ATOM      4  C   UNL     1       1.981   8.827  18.388  0.00  0.00    +0.000 C 
ATOM      5  C   UNL     1       1.786  11.344  18.500  0.00  0.00    +0.000 C 
ATOM      6  O   UNL     1       2.649  11.890  17.828  0.00  0.00    +0.000 OA
ATOM      7  N   UNL     1       1.288  11.778  19.717  0.00  0.00    +0.000 N 
ENDROOT
BRANCH   1  13
ATOM      8  C   UNL     1      -2.000  12.074  20.182  0.00  0.00    +0.000 A 
ATOM      9  C   UNL     1      -3.121  12.643  20.807  0.00  0.00    +0.000 A 
ATOM     10  C   UNL     1      -3.199  12.694  22.186  0.00  0.00    +0.000 A 
ATOM     11  C   UNL     1      -2.196  12.102  22.936  0.00  0.00    +0.000 A 
ATOM     12  C   UNL     1      -1.087  11.466  22.342  0.00  0.00    +0.000 A 
ATOM     13  C   UNL     1      -0.940  11.479  20.938  0.00  0.00    +0.000 A 
BRANCH   8  15
ATOM     14  C   UNL     1      -3.094  11.692  18.103  0.00  0.00    +0.000 C 
ATOM     15  O   UNL     1      -1.902  12.030  18.808  0.00  0.00    +0.000 OA
ENDBRANCH   8  15
BRANCH  12  16
ATOM     16  O   UNL     1      -0.366  10.848  23.324  0.00  0.00    +0.000 OA
ATOM     17  C   UNL     1      -0.125   9.459  23.368  0.00  0.00    +0.000 C 
ENDBRANCH  12  16
ENDBRANCH   1  13
BRANCH   7  18
ATOM     18  C   UNL     1       1.727  12.997  20.391  0.00  0.00    +0.000 C 
BRANCH  18  19
ATOM     19  C   UNL     1       1.365  14.286  19.685  0.00  0.00    +0.000 A 
ATOM     20  C   UNL     1       0.106  14.806  19.406  0.00  0.00    +0.000 A 
ATOM     21  C   UNL     1       0.255  16.007  18.652  0.00  0.00    +0.000 A 
ATOM     22  C   UNL     1      -0.637  16.985  18.162  0.00  0.00    +0.000 A 
ATOM     23  C   UNL     1      -0.144  18.088  17.452  0.00  0.00    +0.000 A 
ATOM     24  C   UNL     1       1.213  18.197  17.175  0.00  0.00    +0.000 A 
ATOM     25  C   UNL     1       2.112  17.226  17.621  0.00  0.00    +0.000 A 
ATOM     26  C   UNL     1       1.618  16.154  18.391  0.00  0.00    +0.000 A 
ATOM     27  N   UNL     1       2.268  15.110  19.030  0.00  0.00    +0.000 N 
ATOM     28  C   UNL     1       3.708  14.967  19.054  0.00  0.00    +0.000 C 
ENDBRANCH  18  19
ENDBRANCH   7  18
TORSDOF 5
ENDMDL
MODEL 5
REMARK VINA RESULT:      -6.3      2.219      6.470
REMARK  Name = 
REMARK  9 active torsions:
REMARK  status: ('A' for Active; 'I' for Inactive)
REMARK    1  A    between atoms: C_1  and  O_2
REMARK    2  A    between atoms: O_2  and  C_3
REMARK    3  A    between atoms: C_7  and  O_8
REMARK    4  A    between atoms: O_8  and  C_9
REMARK    5  A    between atoms: C_10  and  C_11
REMARK    6  A    between atoms: C_13  and  C_14
REMARK    7  A    between atoms: N_17  and  C_18
REMARK    8  A    between atoms: C_18  and  C_19
REMARK    9  A    between atoms: N_27  and  C_28
REMARK                            x       y       z     vdW  Elec       q    Type
REMARK                         _______ _______ _______ _____ _____    ______ ____
ROOT
ATOM      1  C   UNL     1       0.228  10.818  20.265  0.00  0.00    +0.000 C 
ATOM      2  C   UNL     1      -0.160   9.982  19.033  0.00  0.00    +0.000 C 
ATOM      3  C   UNL     1       1.108   9.965  18.173  0.00  0.00    +0.000 C 
ATOM      4  C   UNL     1       1.996   8.770  18.476  0.00  0.00    +0.000 C 
ATOM      5  C   UNL     1       1.761  11.286  18.540  0.00  0.00    +0.000 C 
ATOM      6  O   UNL     1       2.613  11.832  17.855  0.00  0.00    +0.000 OA
ATOM      7  N   UNL     1       1.259  11.735  19.750  0.00  0.00    +0.000 N 
ENDROOT
BRANCH   1  13
ATOM      8  C   UNL     1      -1.030  11.358  22.411  0.00  0.00    +0.000 A 
ATOM      9  C   UNL     1      -2.105  11.914  23.123  0.00  0.00    +0.000 A 
ATOM     10  C   UNL     1      -3.163  12.493  22.448  0.00  0.00    +0.000 A 
ATOM     11  C   UNL     1      -3.105  12.589  21.067  0.00  0.00    +0.000 A 
ATOM     12  C   UNL     1      -2.012  12.099  20.323  0.00  0.00    +0.000 A 
ATOM     13  C   UNL     1      -0.961  11.423  20.983  0.00  0.00    +0.000 A 
BRANCH   8  15
ATOM     14  C   UNL     1      -0.146   9.391  23.418  0.00  0.00    +0.000 C 
ATOM     15  O   UNL     1       0.023  10.764  23.071  0.00  0.00    +0.000 OA
ENDBRANCH   8  15
BRANCH  12  16
ATOM     16  O   UNL     1      -2.169  12.479  19.021  0.00  0.00    +0.000 OA
ATOM     17  C   UNL     1      -3.014  11.818  18.105  0.00  0.00    +0.000 C 
ENDBRANCH  12  16
ENDBRANCH   1  13
BRANCH   7  18
ATOM     18  C   UNL     1       1.680  12.974  20.399  0.00  0.00    +0.000 C 
BRANCH  18  19
ATOM     19  C   UNL     1       0.879  14.201  20.019  0.00  0.00    +0.000 A 
ATOM     20  C   UNL     1       0.767  14.823  18.781  0.00  0.00    +0.000 A 
ATOM     21  C   UNL     1      -0.033  15.995  18.920  0.00  0.00    +0.000 A 
ATOM     22  C   UNL     1      -0.541  16.958  18.021  0.00  0.00    +0.000 A 
ATOM     23  C   UNL     1      -1.337  18.008  18.499  0.00  0.00    +0.000 A 
ATOM     24  C   UNL     1      -1.582  18.143  19.860  0.00  0.00    +0.000 A 
ATOM     25  C   UNL     1      -1.064  17.220  20.772  0.00  0.00    +0.000 A 
ATOM     26  C   UNL     1      -0.320  16.130  20.278  0.00  0.00    +0.000 A 
ATOM     27  N   UNL     1       0.232  15.034  20.920  0.00  0.00    +0.000 N 
ATOM     28  C   UNL     1       0.076  14.780  22.337  0.00  0.00    +0.000 C 
ENDBRANCH  18  19
ENDBRANCH   7  18
TORSDOF 5
ENDMDL
MODEL 6
REMARK VINA RESULT:      -6.2      2.495      6.667
REMARK  Name = 
REMARK  9 active torsions:
REMARK  status: ('A' for Active; 'I' for Inactive)
REMARK    1  A    between atoms: C_1  and  O_2
REMARK    2  A    between atoms: O_2  and  C_3
REMARK    3  A    between atoms: C_7  and  O_8
REMARK    4  A    between atoms: O_8  and  C_9
REMARK    5  A    between atoms: C_10  and  C_11
REMARK    6  A    between atoms: C_13  and  C_14
REMARK    7  A    between atoms: N_17  and  C_18
REMARK    8  A    between atoms: C_18  and  C_19
REMARK    9  A    between atoms: N_27  and  C_28
REMARK                            x       y       z     vdW  Elec       q    Type
REMARK                         _______ _______ _______ _____ _____    ______ ____
ROOT
ATOM      1  C   UNL     1      -1.245  12.487  21.112  0.00  0.00    +0.000 C 
ATOM      2  C   UNL     1      -2.103  11.972  22.280  0.00  0.00    +0.000 C 
ATOM      3  C   UNL     1      -2.212  13.171  23.228  0.00  0.00    +0.000 C 
ATOM      4  C   UNL     1      -3.437  14.024  22.943  0.00  0.00    +0.000 C 
ATOM      5  C   UNL     1      -0.912  13.908  22.960  0.00  0.00    +0.000 C 
ATOM      6  O   UNL     1      -0.432  14.733  23.724  0.00  0.00    +0.000 OA
ATOM      7  N   UNL     1      -0.397  13.518  21.735  0.00  0.00    +0.000 N 
ENDROOT
BRANCH   1  13
ATOM      8  C   UNL     1      -0.795  11.258  18.929  0.00  0.00    +0.000 A 
ATOM      9  C   UNL     1      -0.173  10.259  18.163  0.00  0.00    +0.000 A 
ATOM     10  C   UNL     1       0.647   9.325  18.769  0.00  0.00    +0.000 A 
ATOM     11  C   UNL     1       0.909   9.442  20.124  0.00  0.00    +0.000 A 
ATOM     12  C   UNL     1       0.353  10.470  20.913  0.00  0.00    +0.000 A 
ATOM     13  C   UNL     1      -0.557  11.382  20.336  0.00  0.00    +0.000 A 
BRANCH   8  15
ATOM     14  C   UNL     1      -2.759  11.665  17.650  0.00  0.00    +0.000 C 
ATOM     15  O   UNL     1      -1.626  12.185  18.341  0.00  0.00    +0.000 OA
ENDBRANCH   8  15
BRANCH  12  16
ATOM     16  O   UNL     1       0.917  10.415  22.155  0.00  0.00    +0.000 OA
ATOM     17  C   UNL     1       1.509   9.256  22.699  0.00  0.00    +0.000 C 
ENDBRANCH  12  16
ENDBRANCH   1  13
BRANCH   7  18
ATOM     18  C   UNL     1       0.842  14.041  21.166  0.00  0.00    +0.000 C 
BRANCH  18  19
ATOM     19  C   UNL     1       0.664  15.154  20.155  0.00  0.00    +0.000 A 
ATOM     20  C   UNL     1      -0.512  15.706  19.661  0.00  0.00    +0.000 A 
ATOM     21  C   UNL     1      -0.189  16.675  18.666  0.00  0.00    +0.000 A 
ATOM     22  C   UNL     1      -0.940  17.587  17.892  0.00  0.00    +0.000 A 
ATOM     23  C   UNL     1      -0.288  18.440  16.991  0.00  0.00    +0.000 A 
ATOM     24  C   UNL     1       1.086  18.354  16.809  0.00  0.00    +0.000 A 
ATOM     25  C   UNL     1       1.846  17.438  17.539  0.00  0.00    +0.000 A 
ATOM     26  C   UNL     1       1.194  16.630  18.492  0.00  0.00    +0.000 A 
ATOM     27  N   UNL     1       1.688  15.712  19.405  0.00  0.00    +0.000 N 
ATOM     28  C   UNL     1       3.100  15.447  19.580  0.00  0.00    +0.000 C 
ENDBRANCH  18  19
ENDBRANCH   7  18
TORSDOF 5
ENDMDL
MODEL 7
REMARK VINA RESULT:      -6.1      8.139     10.867
REMARK  Name = 
REMARK  9 active torsions:
REMARK  status: ('A' for Active; 'I' for Inactive)
REMARK    1  A    between atoms: C_1  and  O_2
REMARK    2  A    between atoms: O_2  and  C_3
REMARK    3  A    between atoms: C_7  and  O_8
REMARK    4  A    between atoms: O_8  and  C_9
REMARK    5  A    between atoms: C_10  and  C_11
REMARK    6  A    between atoms: C_13  and  C_14
REMARK    7  A    between atoms: N_17  and  C_18
REMARK    8  A    between atoms: C_18  and  C_19
REMARK    9  A    between atoms: N_27  and  C_28
REMARK                            x       y       z     vdW  Elec       q    Type
REMARK                         _______ _______ _______ _____ _____    ______ ____
ROOT
ATOM      1  C   UNL     1       8.754  13.275  19.081  0.00  0.00    +0.000 C 
ATOM      2  C   UNL     1       9.163  12.601  17.760  0.00  0.00    +0.000 C 
ATOM      3  C   UNL     1       9.886  11.322  18.196  0.00  0.00    +0.000 C 
ATOM      4  C   UNL     1       8.946  10.133  18.298  0.00  0.00    +0.000 C 
ATOM      5  C   UNL     1      10.467  11.725  19.539  0.00  0.00    +0.000 C 
ATOM      6  O   UNL     1      11.386  11.131  20.083  0.00  0.00    +0.000 OA
ATOM      7  N   UNL     1       9.785  12.825  20.032  0.00  0.00    +0.000 N 
ENDROOT
BRANCH   1  13
ATOM      8  C   UNL     1       7.344  15.345  19.532  0.00  0.00    +0.000 A 
ATOM      9  C   UNL     1       7.085  16.723  19.448  0.00  0.00    +0.000 A 
ATOM     10  C   UNL     1       7.938  17.551  18.742  0.00  0.00    +0.000 A 
ATOM     11  C   UNL     1       9.091  17.014  18.193  0.00  0.00    +0.000 A 
ATOM     12  C   UNL     1       9.416  15.647  18.311  0.00  0.00    +0.000 A 
ATOM     13  C   UNL     1       8.517  14.765  18.950  0.00  0.00    +0.000 A 
BRANCH   8  15
ATOM     14  C   UNL     1       5.474  15.137  20.988  0.00  0.00    +0.000 C 
ATOM     15  O   UNL     1       6.495  14.506  20.218  0.00  0.00    +0.000 OA
ENDBRANCH   8  15
BRANCH  12  16
ATOM     16  O   UNL     1      10.673  15.458  17.813  0.00  0.00    +0.000 OA
ATOM     17  C   UNL     1      11.191  16.152  16.700  0.00  0.00    +0.000 C 
ENDBRANCH  12  16
ENDBRANCH   1  13
BRANCH   7  18
ATOM     18  C   UNL     1      10.084  13.464  21.310  0.00  0.00    +0.000 C 
BRANCH  18  19
ATOM     19  C   UNL     1       9.062  13.225  22.401  0.00  0.00    +0.000 A 
ATOM     20  C   UNL     1       8.474  12.031  22.803  0.00  0.00    +0.000 A 
ATOM     21  C   UNL     1       7.509  12.304  23.816  0.00  0.00    +0.000 A 
ATOM     22  C   UNL     1       6.677  11.506  24.631  0.00  0.00    +0.000 A 
ATOM     23  C   UNL     1       5.832  12.112  25.570  0.00  0.00    +0.000 A 
ATOM     24  C   UNL     1       5.762  13.496  25.666  0.00  0.00    +0.000 A 
ATOM     25  C   UNL     1       6.551  14.307  24.847  0.00  0.00    +0.000 A 
ATOM     26  C   UNL     1       7.448  13.691  23.952  0.00  0.00    +0.000 A 
ATOM     27  N   UNL     1       8.397  14.225  23.096  0.00  0.00    +0.000 N 
ATOM     28  C   UNL     1       8.686  15.641  23.013  0.00  0.00    +0.000 C 
ENDBRANCH  18  19
ENDBRANCH   7  18
TORSDOF 5
ENDMDL
MODEL 8
REMARK VINA RESULT:      -6.1      2.112      2.953
REMARK  Name = 
REMARK  9 active torsions:
REMARK  status: ('A' for Active; 'I' for Inactive)
REMARK    1  A    between atoms: C_1  and  O_2
REMARK    2  A    between atoms: O_2  and  C_3
REMARK    3  A    between atoms: C_7  and  O_8
REMARK    4  A    between atoms: O_8  and  C_9
REMARK    5  A    between atoms: C_10  and  C_11
REMARK    6  A    between atoms: C_13  and  C_14
REMARK    7  A    between atoms: N_17  and  C_18
REMARK    8  A    between atoms: C_18  and  C_19
REMARK    9  A    between atoms: N_27  and  C_28
REMARK                            x       y       z     vdW  Elec       q    Type
REMARK                         _______ _______ _______ _____ _____    ______ ____
ROOT
ATOM      1  C   UNL     1      -2.665  13.923  20.951  0.00  0.00    +0.000 C 
ATOM      2  C   UNL     1      -2.458  15.430  21.180  0.00  0.00    +0.000 C 
ATOM      3  C   UNL     1      -0.939  15.589  21.305  0.00  0.00    +0.000 C 
ATOM      4  C   UNL     1      -0.277  15.887  19.971  0.00  0.00    +0.000 C 
ATOM      5  C   UNL     1      -0.524  14.245  21.877  0.00  0.00    +0.000 C 
ATOM      6  O   UNL     1       0.543  14.051  22.441  0.00  0.00    +0.000 OA
ATOM      7  N   UNL     1      -1.516  13.309  21.637  0.00  0.00    +0.000 N 
ENDROOT
BRANCH   1  13
ATOM      8  C   UNL     1      -4.783  12.619  20.409  0.00  0.00    +0.000 A 
ATOM      9  C   UNL     1      -6.065  12.137  20.714  0.00  0.00    +0.000 A 
ATOM     10  C   UNL     1      -6.682  12.498  21.897  0.00  0.00    +0.000 A 
ATOM     11  C   UNL     1      -5.983  13.271  22.809  0.00  0.00    +0.000 A 
ATOM     12  C   UNL     1      -4.669  13.720  22.564  0.00  0.00    +0.000 A 
ATOM     13  C   UNL     1      -4.051  13.440  21.326  0.00  0.00    +0.000 A 
BRANCH   8  15
ATOM     14  C   UNL     1      -4.985  11.662  18.239  0.00  0.00    +0.000 C 
ATOM     15  O   UNL     1      -4.162  12.281  19.226  0.00  0.00    +0.000 OA
ENDBRANCH   8  15
BRANCH  12  16
ATOM     16  O   UNL     1      -4.197  14.314  23.699  0.00  0.00    +0.000 OA
ATOM     17  C   UNL     1      -4.656  15.556  24.187  0.00  0.00    +0.000 C 
ENDBRANCH  12  16
ENDBRANCH   1  13
BRANCH   7  18
ATOM     18  C   UNL     1      -1.433  11.910  22.048  0.00  0.00    +0.000 C 
BRANCH  18  19
ATOM     19  C   UNL     1      -0.547  11.039  21.183  0.00  0.00    +0.000 A 
ATOM     20  C   UNL     1      -0.359  11.076  19.806  0.00  0.00    +0.000 A 
ATOM     21  C   UNL     1       0.507  10.010  19.425  0.00  0.00    +0.000 A 
ATOM     22  C   UNL     1       1.100   9.603  18.210  0.00  0.00    +0.000 A 
ATOM     23  C   UNL     1       1.945   8.485  18.185  0.00  0.00    +0.000 A 
ATOM     24  C   UNL     1       2.157   7.738  19.336  0.00  0.00    +0.000 A 
ATOM     25  C   UNL     1       1.556   8.101  20.543  0.00  0.00    +0.000 A 
ATOM     26  C   UNL     1       0.761   9.265  20.576  0.00  0.00    +0.000 A 
ATOM     27  N   UNL     1       0.123   9.907  21.625  0.00  0.00    +0.000 N 
ATOM     28  C   UNL     1       0.221   9.471  23.001  0.00  0.00    +0.000 C 
ENDBRANCH  18  19
ENDBRANCH   7  18
TORSDOF 5
ENDMDL
MODEL 9
REMARK VINA RESULT:      -6.1      2.032      6.504
REMARK  Name = 
REMARK  9 active torsions:
REMARK  status: ('A' for Active; 'I' for Inactive)
REMARK    1  A    between atoms: C_1  and  O_2
REMARK    2  A    between atoms: O_2  and  C_3
REMARK    3  A    between atoms: C_7  and  O_8
REMARK    4  A    between atoms: O_8  and  C_9
REMARK    5  A    between atoms: C_10  and  C_11
REMARK    6  A    between atoms: C_13  and  C_14
REMARK    7  A    between atoms: N_17  and  C_18
REMARK    8  A    between atoms: C_18  and  C_19
REMARK    9  A    between atoms: N_27  and  C_28
REMARK                            x       y       z     vdW  Elec       q    Type
REMARK                         _______ _______ _______ _____ _____    ______ ____
ROOT
ATOM      1  C   UNL     1       0.519  11.754  19.653  0.00  0.00    +0.000 C 
ATOM      2  C   UNL     1       0.927  10.350  20.131  0.00  0.00    +0.000 C 
ATOM      3  C   UNL     1       0.714   9.456  18.904  0.00  0.00    +0.000 C 
ATOM      4  C   UNL     1       1.967   9.332  18.054  0.00  0.00    +0.000 C 
ATOM      5  C   UNL     1      -0.414  10.171  18.181  0.00  0.00    +0.000 C 
ATOM      6  O   UNL     1      -1.121   9.638  17.338  0.00  0.00    +0.000 OA
ATOM      7  N   UNL     1      -0.484  11.486  18.609  0.00  0.00    +0.000 N 
ENDROOT
BRANCH   1  13
ATOM      8  C   UNL     1       0.497  14.069  20.712  0.00  0.00    +0.000 A 
ATOM      9  C   UNL     1       0.150  14.975  21.727  0.00  0.00    +0.000 A 
ATOM     10  C   UNL     1      -0.508  14.535  22.859  0.00  0.00    +0.000 A 
ATOM     11  C   UNL     1      -0.892  13.206  22.937  0.00  0.00    +0.000 A 
ATOM     12  C   UNL     1      -0.618  12.281  21.909  0.00  0.00    +0.000 A 
ATOM     13  C   UNL     1       0.131  12.686  20.783  0.00  0.00    +0.000 A 
BRANCH   8  15
ATOM     14  C   UNL     1       0.586  15.587  18.881  0.00  0.00    +0.000 C 
ATOM     15  O   UNL     1       1.167  14.491  19.585  0.00  0.00    +0.000 OA
ENDBRANCH   8  15
BRANCH  12  16
ATOM     16  O   UNL     1      -1.254  11.109  22.202  0.00  0.00    +0.000 OA
ATOM     17  C   UNL     1      -0.835  10.217  23.211  0.00  0.00    +0.000 C 
ENDBRANCH  12  16
ENDBRANCH   1  13
BRANCH   7  18
ATOM     18  C   UNL     1      -1.454  12.456  18.108  0.00  0.00    +0.000 C 
BRANCH  18  19
ATOM     19  C   UNL     1      -2.859  12.295  18.646  0.00  0.00    +0.000 A 
ATOM     20  C   UNL     1      -3.348  12.580  19.916  0.00  0.00    +0.000 A 
ATOM     21  C   UNL     1      -4.718  12.191  19.986  0.00  0.00    +0.000 A 
ATOM     22  C   UNL     1      -5.729  12.302  20.966  0.00  0.00    +0.000 A 
ATOM     23  C   UNL     1      -7.017  11.818  20.698  0.00  0.00    +0.000 A 
ATOM     24  C   UNL     1      -7.292  11.177  19.497  0.00  0.00    +0.000 A 
ATOM     25  C   UNL     1      -6.300  11.026  18.526  0.00  0.00    +0.000 A 
ATOM     26  C   UNL     1      -5.025  11.574  18.774  0.00  0.00    +0.000 A 
ATOM     27  N   UNL     1      -3.894  11.655  17.979  0.00  0.00    +0.000 N 
ATOM     28  C   UNL     1      -3.849  11.189  16.610  0.00  0.00    +0.000 C 
ENDBRANCH  18  19
ENDBRANCH   7  18
TORSDOF 5
ENDMDL
