MODEL 1
REMARK VINA RESULT:      -6.5      0.000      0.000
REMARK  Name = 
REMARK  11 active torsions:
REMARK  status: ('A' for Active; 'I' for Inactive)
REMARK    1  A    between atoms: C_1  and  O_2
REMARK    2  A    between atoms: O_2  and  C_3
REMARK    3  A    between atoms: C_5  and  O_6
REMARK    4  A    between atoms: C_7  and  C_8
REMARK    5  A    between atoms: C_8  and  C_10
REMARK    6  A    between atoms: C_11  and  C_12
REMARK    7  A    between atoms: C_17  and  N_18
REMARK    8  A    between atoms: C_21  and  O_22
REMARK    9  A    between atoms: O_22  and  C_23
REMARK   10  A    between atoms: C_24  and  O_25
REMARK   11  A    between atoms: O_25  and  C_26
REMARK                            x       y       z     vdW  Elec       q    Type
REMARK                         _______ _______ _______ _____ _____    ______ ____
ROOT
ATOM      1  C   UNL     1       1.381  12.881  20.851  0.00  0.00    +0.000 A 
ATOM      2  C   UNL     1       1.891  12.980  19.551  0.00  0.00    +0.000 A 
ATOM      3  C   UNL     1       1.806  11.919  18.657  0.00  0.00    +0.000 A 
ATOM      4  C   UNL     1       1.171  10.725  19.015  0.00  0.00    +0.000 A 
ATOM      5  C   UNL     1       0.641  10.605  20.323  0.00  0.00    +0.000 A 
ATOM      6  C   UNL     1       0.744  11.687  21.252  0.00  0.00    +0.000 A 
ENDROOT
BRANCH   1   8
ATOM      7  C   UNL     1       1.276  15.251  21.145  0.00  0.00    +0.000 C 
ATOM      8  O   UNL     1       1.445  13.950  21.712  0.00  0.00    +0.000 OA
ENDBRANCH   1   8
BRANCH   3   9
ATOM      9  O   UNL     1       2.385  12.087  17.425  0.00  0.00    +0.000 OA
ATOM     10  H   UNL     1       3.328  12.300  17.526  0.00  0.00    +0.000 HD
ENDBRANCH   3   9
BRANCH   4  11
ATOM     11  C   UNL     1       1.127   9.572  18.048  0.00  0.00    +0.000 C 
ATOM     12  O   UNL     1       0.108   9.305  17.420  0.00  0.00    +0.000 OA
BRANCH  11  13
ATOM     13  C   UNL     1       2.335   8.703  17.957  0.00  0.00    +0.000 C 
ATOM     14  C   UNL     1       2.226   7.420  17.555  0.00  0.00    +0.000 C 
BRANCH  14  15
ATOM     15  C   UNL     1       3.304   6.451  17.784  0.00  0.00    +0.000 A 
ATOM     16  C   UNL     1       4.617   6.910  17.578  0.00  0.00    +0.000 A 
ATOM     17  C   UNL     1       5.722   6.074  17.783  0.00  0.00    +0.000 A 
ATOM     18  C   UNL     1       5.538   4.758  18.203  0.00  0.00    +0.000 A 
ATOM     19  C   UNL     1       4.248   4.273  18.411  0.00  0.00    +0.000 A 
ATOM     20  C   UNL     1       3.146   5.120  18.192  0.00  0.00    +0.000 A 
BRANCH  20  21
ATOM     21  N   UNL     1       1.828   4.559  18.410  0.00  0.00    +0.000 N 
ATOM     22  O   UNL     1       1.238   4.091  17.427  0.00  0.00    +0.000 OA
ATOM     23  O   UNL     1       1.423   4.520  19.580  0.00  0.00    +0.000 OA
ENDBRANCH  20  21
ENDBRANCH  14  15
ENDBRANCH  11  13
ENDBRANCH   4  11
BRANCH   5  24
ATOM     24  O   UNL     1      -0.091   9.461  20.572  0.00  0.00    +0.000 OA
ATOM     25  C   UNL     1       0.530   8.431  21.336  0.00  0.00    +0.000 C 
ENDBRANCH   5  24
BRANCH   6  26
ATOM     26  O   UNL     1       0.161  11.449  22.466  0.00  0.00    +0.000 OA
ATOM     27  C   UNL     1      -1.137  11.896  22.814  0.00  0.00    +0.000 C 
ENDBRANCH   6  26
TORSDOF 8
ENDMDL
MODEL 2
REMARK VINA RESULT:      -6.5      2.821      7.826
REMARK  Name = 
REMARK  11 active torsions:
REMARK  status: ('A' for Active; 'I' for Inactive)
REMARK    1  A    between atoms: C_1  and  O_2
REMARK    2  A    between atoms: O_2  and  C_3
REMARK    3  A    between atoms: C_5  and  O_6
REMARK    4  A    between atoms: C_7  and  C_8
REMARK    5  A    between atoms: C_8  and  C_10
REMARK    6  A    between atoms: C_11  and  C_12
REMARK    7  A    between atoms: C_17  and  N_18
REMARK    8  A    between atoms: C_21  and  O_22
REMARK    9  A    between atoms: O_22  and  C_23
REMARK   10  A    between atoms: C_24  and  O_25
REMARK   11  A    between atoms: O_25  and  C_26
REMARK                            x       y       z     vdW  Elec       q    Type
REMARK                         _______ _______ _______ _____ _____    ______ ____
ROOT
ATOM      1  C   UNL     1       2.817   3.990  20.462  0.00  0.00    +0.000 A 
ATOM      2  C   UNL     1       2.297   5.200  20.940  0.00  0.00    +0.000 A 
ATOM      3  C   UNL     1       2.315   6.353  20.164  0.00  0.00    +0.000 A 
ATOM      4  C   UNL     1       2.821   6.335  18.860  0.00  0.00    +0.000 A 
ATOM      5  C   UNL     1       3.345   5.122  18.353  0.00  0.00    +0.000 A 
ATOM      6  C   UNL     1       3.346   3.938  19.154  0.00  0.00    +0.000 A 
ENDROOT
BRANCH   1   8
ATOM      7  C   UNL     1       1.483   2.475  21.743  0.00  0.00    +0.000 C 
ATOM      8  O   UNL     1       2.763   2.853  21.230  0.00  0.00    +0.000 OA
ENDBRANCH   1   8
BRANCH   3   9
ATOM      9  O   UNL     1       1.837   7.503  20.738  0.00  0.00    +0.000 OA
ATOM     10  H   UNL     1       1.002   7.323  21.201  0.00  0.00    +0.000 HD
ENDBRANCH   3   9
BRANCH   4  11
ATOM     11  C   UNL     1       2.871   7.603  18.051  0.00  0.00    +0.000 C 
ATOM     12  O   UNL     1       3.930   8.040  17.613  0.00  0.00    +0.000 OA
BRANCH  11  13
ATOM     13  C   UNL     1       1.600   8.367  17.888  0.00  0.00    +0.000 C 
ATOM     14  C   UNL     1       1.515   9.650  18.296  0.00  0.00    +0.000 C 
BRANCH  14  15
ATOM     15  C   UNL     1       0.218  10.311  18.477  0.00  0.00    +0.000 A 
ATOM     16  C   UNL     1      -0.826   9.891  17.634  0.00  0.00    +0.000 A 
ATOM     17  C   UNL     1      -2.109  10.444  17.732  0.00  0.00    +0.000 A 
ATOM     18  C   UNL     1      -2.378  11.431  18.678  0.00  0.00    +0.000 A 
ATOM     19  C   UNL     1      -1.361  11.872  19.524  0.00  0.00    +0.000 A 
ATOM     20  C   UNL     1      -0.075  11.315  19.410  0.00  0.00    +0.000 A 
BRANCH  20  21
ATOM     21  N   UNL     1       0.946  11.821  20.304  0.00  0.00    +0.000 N 
ATOM     22  O   UNL     1       1.093  11.242  21.388  0.00  0.00    +0.000 OA
ATOM     23  O   UNL     1       1.649  12.750  19.882  0.00  0.00    +0.000 OA
ENDBRANCH  20  21
ENDBRANCH  14  15
ENDBRANCH  11  13
ENDBRANCH   4  11
BRANCH   5  24
ATOM     24  O   UNL     1       3.702   5.132  17.019  0.00  0.00    +0.000 OA
ATOM     25  C   UNL     1       5.084   5.002  16.703  0.00  0.00    +0.000 C 
ENDBRANCH   5  24
BRANCH   6  26
ATOM     26  O   UNL     1       3.851   2.831  18.530  0.00  0.00    +0.000 OA
ATOM     27  C   UNL     1       3.045   1.801  17.987  0.00  0.00    +0.000 C 
ENDBRANCH   6  26
TORSDOF 8
ENDMDL
MODEL 3
REMARK VINA RESULT:      -6.5      1.951      2.164
REMARK  Name = 
REMARK  11 active torsions:
REMARK  status: ('A' for Active; 'I' for Inactive)
REMARK    1  A    between atoms: C_1  and  O_2
REMARK    2  A    between atoms: O_2  and  C_3
REMARK    3  A    between atoms: C_5  and  O_6
REMARK    4  A    between atoms: C_7  and  C_8
REMARK    5  A    between atoms: C_8  and  C_10
REMARK    6  A    between atoms: C_11  and  C_12
REMARK    7  A    between atoms: C_17  and  N_18
REMARK    8  A    between atoms: C_21  and  O_22
REMARK    9  A    between atoms: O_22  and  C_23
REMARK   10  A    between atoms: C_24  and  O_25
REMARK   11  A    between atoms: O_25  and  C_26
REMARK                            x       y       z     vdW  Elec       q    Type
REMARK                         _______ _______ _______ _____ _____    ______ ____
ROOT
ATOM      1  C   UNL     1       1.619  13.183  20.289  0.00  0.00    +0.000 A 
ATOM      2  C   UNL     1       2.189  12.975  19.027  0.00  0.00    +0.000 A 
ATOM      3  C   UNL     1       2.049  11.763  18.361  0.00  0.00    +0.000 A 
ATOM      4  C   UNL     1       1.299  10.719  18.914  0.00  0.00    +0.000 A 
ATOM      5  C   UNL     1       0.707  10.910  20.186  0.00  0.00    +0.000 A 
ATOM      6  C   UNL     1       0.865  12.148  20.884  0.00  0.00    +0.000 A 
ENDROOT
BRANCH   1   8
ATOM      7  C   UNL     1       0.968  15.481  20.399  0.00  0.00    +0.000 C 
ATOM      8  O   UNL     1       1.741  14.397  20.921  0.00  0.00    +0.000 OA
ENDBRANCH   1   8
BRANCH   3   9
ATOM      9  O   UNL     1       2.691  11.631  17.156  0.00  0.00    +0.000 OA
ATOM     10  H   UNL     1       3.566  12.053  17.196  0.00  0.00    +0.000 HD
ENDBRANCH   3   9
BRANCH   4  11
ATOM     11  C   UNL     1       1.195   9.400  18.197  0.00  0.00    +0.000 C 
ATOM     12  O   UNL     1       0.342   9.207  17.336  0.00  0.00    +0.000 OA
BRANCH  11  13
ATOM     13  C   UNL     1       2.100   8.301  18.641  0.00  0.00    +0.000 C 
ATOM     14  C   UNL     1       2.981   7.750  17.781  0.00  0.00    +0.000 C 
BRANCH  14  15
ATOM     15  C   UNL     1       3.625   6.463  18.065  0.00  0.00    +0.000 A 
ATOM     16  C   UNL     1       2.992   5.637  19.011  0.00  0.00    +0.000 A 
ATOM     17  C   UNL     1       3.513   4.380  19.345  0.00  0.00    +0.000 A 
ATOM     18  C   UNL     1       4.679   3.919  18.737  0.00  0.00    +0.000 A 
ATOM     19  C   UNL     1       5.331   4.718  17.800  0.00  0.00    +0.000 A 
ATOM     20  C   UNL     1       4.804   5.982  17.480  0.00  0.00    +0.000 A 
BRANCH  20  21
ATOM     21  N   UNL     1       5.531   6.775  16.510  0.00  0.00    +0.000 N 
ATOM     22  O   UNL     1       5.116   6.772  15.343  0.00  0.00    +0.000 OA
ATOM     23  O   UNL     1       6.471   7.460  16.938  0.00  0.00    +0.000 OA
ENDBRANCH  20  21
ENDBRANCH  14  15
ENDBRANCH  11  13
ENDBRANCH   4  11
BRANCH   5  24
ATOM     24  O   UNL     1      -0.131   9.901  20.616  0.00  0.00    +0.000 OA
ATOM     25  C   UNL     1       0.319   9.080  21.690  0.00  0.00    +0.000 C 
ENDBRANCH   5  24
BRANCH   6  26
ATOM     26  O   UNL     1       0.214  12.209  22.085  0.00  0.00    +0.000 OA
ATOM     27  C   UNL     1      -1.049  12.823  22.263  0.00  0.00    +0.000 C 
ENDBRANCH   6  26
TORSDOF 8
ENDMDL
MODEL 4
REMARK VINA RESULT:      -6.5      3.575      7.337
REMARK  Name = 
REMARK  11 active torsions:
REMARK  status: ('A' for Active; 'I' for Inactive)
REMARK    1  A    between atoms: C_1  and  O_2
REMARK    2  A    between atoms: O_2  and  C_3
REMARK    3  A    between atoms: C_5  and  O_6
REMARK    4  A    between atoms: C_7  and  C_8
REMARK    5  A    between atoms: C_8  and  C_10
REMARK    6  A    between atoms: C_11  and  C_12
REMARK    7  A    between atoms: C_17  and  N_18
REMARK    8  A    between atoms: C_21  and  O_22
REMARK    9  A    between atoms: O_22  and  C_23
REMARK   10  A    between atoms: C_24  and  O_25
REMARK   11  A    between atoms: O_25  and  C_26
REMARK                            x       y       z     vdW  Elec       q    Type
REMARK                         _______ _______ _______ _____ _____    ______ ____
ROOT
ATOM      1  C   UNL     1       2.710   6.996  18.675  0.00  0.00    +0.000 A 
ATOM      2  C   UNL     1       2.747   8.115  17.833  0.00  0.00    +0.000 A 
ATOM      3  C   UNL     1       2.043   9.274  18.137  0.00  0.00    +0.000 A 
ATOM      4  C   UNL     1       1.300   9.375  19.319  0.00  0.00    +0.000 A 
ATOM      5  C   UNL     1       1.253   8.260  20.189  0.00  0.00    +0.000 A 
ATOM      6  C   UNL     1       1.961   7.059  19.870  0.00  0.00    +0.000 A 
ENDROOT
BRANCH   1   8
ATOM      7  C   UNL     1       4.795   6.061  17.971  0.00  0.00    +0.000 C 
ATOM      8  O   UNL     1       3.437   5.869  18.375  0.00  0.00    +0.000 OA
ENDBRANCH   1   8
BRANCH   3   9
ATOM      9  O   UNL     1       2.092  10.296  17.225  0.00  0.00    +0.000 OA
ATOM     10  H   UNL     1       2.923  10.790  17.321  0.00  0.00    +0.000 HD
ENDBRANCH   3   9
BRANCH   4  11
ATOM     11  C   UNL     1       0.509  10.623  19.610  0.00  0.00    +0.000 C 
ATOM     12  O   UNL     1       1.036  11.611  20.109  0.00  0.00    +0.000 OA
BRANCH  11  13
ATOM     13  C   UNL     1      -0.962  10.579  19.364  0.00  0.00    +0.000 C 
ATOM     14  C   UNL     1      -1.510  11.301  18.366  0.00  0.00    +0.000 C 
BRANCH  14  15
ATOM     15  C   UNL     1      -2.954  11.560  18.313  0.00  0.00    +0.000 A 
ATOM     16  C   UNL     1      -3.523  12.186  19.435  0.00  0.00    +0.000 A 
ATOM     17  C   UNL     1      -4.889  12.494  19.484  0.00  0.00    +0.000 A 
ATOM     18  C   UNL     1      -5.717  12.185  18.406  0.00  0.00    +0.000 A 
ATOM     19  C   UNL     1      -5.181  11.559  17.281  0.00  0.00    +0.000 A 
ATOM     20  C   UNL     1      -3.811  11.247  17.249  0.00  0.00    +0.000 A 
BRANCH  20  21
ATOM     21  N   UNL     1      -3.312  10.584  16.062  0.00  0.00    +0.000 N 
ATOM     22  O   UNL     1      -3.079   9.370  16.141  0.00  0.00    +0.000 OA
ATOM     23  O   UNL     1      -3.230  11.267  15.032  0.00  0.00    +0.000 OA
ENDBRANCH  20  21
ENDBRANCH  14  15
ENDBRANCH  11  13
ENDBRANCH   4  11
BRANCH   5  24
ATOM     24  O   UNL     1       0.621   8.466  21.398  0.00  0.00    +0.000 OA
ATOM     25  C   UNL     1       1.374   9.073  22.444  0.00  0.00    +0.000 C 
ENDBRANCH   5  24
BRANCH   6  26
ATOM     26  O   UNL     1       1.857   6.073  20.812  0.00  0.00    +0.000 OA
ATOM     27  C   UNL     1       1.370   4.772  20.536  0.00  0.00    +0.000 C 
ENDBRANCH   6  26
TORSDOF 8
ENDMDL
MODEL 5
REMARK VINA RESULT:      -6.4      2.409      3.077
REMARK  Name = 
REMARK  11 active torsions:
REMARK  status: ('A' for Active; 'I' for Inactive)
REMARK    1  A    between atoms: C_1  and  O_2
REMARK    2  A    between atoms: O_2  and  C_3
REMARK    3  A    between atoms: C_5  and  O_6
REMARK    4  A    between atoms: C_7  and  C_8
REMARK    5  A    between atoms: C_8  and  C_10
REMARK    6  A    between atoms: C_11  and  C_12
REMARK    7  A    between atoms: C_17  and  N_18
REMARK    8  A    between atoms: C_21  and  O_22
REMARK    9  A    between atoms: O_22  and  C_23
REMARK   10  A    between atoms: C_24  and  O_25
REMARK   11  A    between atoms: O_25  and  C_26
REMARK                            x       y       z     vdW  Elec       q    Type
REMARK                         _______ _______ _______ _____ _____    ______ ____
ROOT
ATOM      1  C   UNL     1      -1.962  11.553  20.106  0.00  0.00    +0.000 A 
ATOM      2  C   UNL     1      -2.010  11.142  18.768  0.00  0.00    +0.000 A 
ATOM      3  C   UNL     1      -0.918  10.536  18.157  0.00  0.00    +0.000 A 
ATOM      4  C   UNL     1       0.257  10.280  18.874  0.00  0.00    +0.000 A 
ATOM      5  C   UNL     1       0.325  10.679  20.230  0.00  0.00    +0.000 A 
ATOM      6  C   UNL     1      -0.789  11.321  20.856  0.00  0.00    +0.000 A 
ENDROOT
BRANCH   1   8
ATOM      7  C   UNL     1      -3.141  13.549  20.689  0.00  0.00    +0.000 C 
ATOM      8  O   UNL     1      -3.061  12.122  20.703  0.00  0.00    +0.000 OA
ENDBRANCH   1   8
BRANCH   3   9
ATOM      9  O   UNL     1      -1.036  10.222  16.828  0.00  0.00    +0.000 OA
ATOM     10  H   UNL     1      -1.322  11.002  16.325  0.00  0.00    +0.000 HD
ENDBRANCH   3   9
BRANCH   4  11
ATOM     11  C   UNL     1       1.443   9.661  18.184  0.00  0.00    +0.000 C 
ATOM     12  O   UNL     1       2.247  10.345  17.559  0.00  0.00    +0.000 OA
BRANCH  11  13
ATOM     13  C   UNL     1       1.552   8.174  18.201  0.00  0.00    +0.000 C 
ATOM     14  C   UNL     1       2.761   7.576  18.228  0.00  0.00    +0.000 C 
BRANCH  14  15
ATOM     15  C   UNL     1       2.920   6.156  17.896  0.00  0.00    +0.000 A 
ATOM     16  C   UNL     1       1.847   5.309  18.222  0.00  0.00    +0.000 A 
ATOM     17  C   UNL     1       1.888   3.938  17.935  0.00  0.00    +0.000 A 
ATOM     18  C   UNL     1       3.003   3.384  17.311  0.00  0.00    +0.000 A 
ATOM     19  C   UNL     1       4.085   4.199  16.980  0.00  0.00    +0.000 A 
ATOM     20  C   UNL     1       4.036   5.572  17.283  0.00  0.00    +0.000 A 
BRANCH  20  21
ATOM     21  N   UNL     1       5.194   6.368  16.930  0.00  0.00    +0.000 N 
ATOM     22  O   UNL     1       6.096   6.468  17.772  0.00  0.00    +0.000 OA
ATOM     23  O   UNL     1       5.230   6.824  15.778  0.00  0.00    +0.000 OA
ENDBRANCH  20  21
ENDBRANCH  14  15
ENDBRANCH  11  13
ENDBRANCH   4  11
BRANCH   5  24
ATOM     24  O   UNL     1       1.452  10.278  20.919  0.00  0.00    +0.000 OA
ATOM     25  C   UNL     1       1.356   9.102  21.716  0.00  0.00    +0.000 C 
ENDBRANCH   5  24
BRANCH   6  26
ATOM     26  O   UNL     1      -0.601  11.623  22.177  0.00  0.00    +0.000 OA
ATOM     27  C   UNL     1      -1.347  11.039  23.229  0.00  0.00    +0.000 C 
ENDBRANCH   6  26
TORSDOF 8
ENDMDL
MODEL 6
REMARK VINA RESULT:      -6.4      2.530      4.044
REMARK  Name = 
REMARK  11 active torsions:
REMARK  status: ('A' for Active; 'I' for Inactive)
REMARK    1  A    between atoms: C_1  and  O_2
REMARK    2  A    between atoms: O_2  and  C_3
REMARK    3  A    between atoms: C_5  and  O_6
REMARK    4  A    between atoms: C_7  and  C_8
REMARK    5  A    between atoms: C_8  and  C_10
REMARK    6  A    between atoms: C_11  and  C_12
REMARK    7  A    between atoms: C_17  and  N_18
REMARK    8  A    between atoms: C_21  and  O_22
REMARK    9  A    between atoms: O_22  and  C_23
REMARK   10  A    between atoms: C_24  and  O_25
REMARK   11  A    between atoms: O_25  and  C_26
REMARK                            x       y       z     vdW  Elec       q    Type
REMARK                         _______ _______ _______ _____ _____    ______ ____
ROOT
ATOM      1  C   UNL     1      -1.653  12.015  20.473  0.00  0.00    +0.000 A 
ATOM      2  C   UNL     1      -1.334  11.717  21.804  0.00  0.00    +0.000 A 
ATOM      3  C   UNL     1      -0.453  10.691  22.125  0.00  0.00    +0.000 A 
ATOM      4  C   UNL     1       0.177   9.943  21.125  0.00  0.00    +0.000 A 
ATOM      5  C   UNL     1      -0.125  10.231  19.772  0.00  0.00    +0.000 A 
ATOM      6  C   UNL     1      -1.045  11.273  19.437  0.00  0.00    +0.000 A 
ENDROOT
BRANCH   1   8
ATOM      7  C   UNL     1      -3.903  12.807  20.311  0.00  0.00    +0.000 C 
ATOM      8  O   UNL     1      -2.501  13.052  20.171  0.00  0.00    +0.000 OA
ENDBRANCH   1   8
BRANCH   3   9
ATOM      9  O   UNL     1      -0.248  10.435  23.456  0.00  0.00    +0.000 OA
ATOM     10  H   UNL     1       0.531  10.921  23.774  0.00  0.00    +0.000 HD
ENDBRANCH   3   9
BRANCH   4  11
ATOM     11  C   UNL     1       1.094   8.808  21.493  0.00  0.00    +0.000 C 
ATOM     12  O   UNL     1       2.062   8.982  22.226  0.00  0.00    +0.000 OA
BRANCH  11  13
ATOM     13  C   UNL     1       0.844   7.484  20.854  0.00  0.00    +0.000 C 
ATOM     14  C   UNL     1       1.768   6.504  20.927  0.00  0.00    +0.000 C 
BRANCH  14  15
ATOM     15  C   UNL     1       1.719   5.339  20.036  0.00  0.00    +0.000 A 
ATOM     16  C   UNL     1       0.935   4.253  20.463  0.00  0.00    +0.000 A 
ATOM     17  C   UNL     1       0.806   3.096  19.682  0.00  0.00    +0.000 A 
ATOM     18  C   UNL     1       1.458   3.002  18.454  0.00  0.00    +0.000 A 
ATOM     19  C   UNL     1       2.246   4.062  18.007  0.00  0.00    +0.000 A 
ATOM     20  C   UNL     1       2.375   5.213  18.804  0.00  0.00    +0.000 A 
BRANCH  20  21
ATOM     21  N   UNL     1       3.219   6.276  18.298  0.00  0.00    +0.000 N 
ATOM     22  O   UNL     1       4.435   6.191  18.512  0.00  0.00    +0.000 OA
ATOM     23  O   UNL     1       2.667   7.153  17.619  0.00  0.00    +0.000 OA
ENDBRANCH  20  21
ENDBRANCH  14  15
ENDBRANCH  11  13
ENDBRANCH   4  11
BRANCH   5  24
ATOM     24  O   UNL     1       0.628   9.556  18.832  0.00  0.00    +0.000 OA
ATOM     25  C   UNL     1       1.741  10.238  18.261  0.00  0.00    +0.000 C 
ENDBRANCH   5  24
BRANCH   6  26
ATOM     26  O   UNL     1      -1.218  11.466  18.094  0.00  0.00    +0.000 OA
ATOM     27  C   UNL     1      -2.262  10.871  17.344  0.00  0.00    +0.000 C 
ENDBRANCH   6  26
TORSDOF 8
ENDMDL
MODEL 7
REMARK VINA RESULT:      -6.3      2.497      3.255
REMARK  Name = 
REMARK  11 active torsions:
REMARK  status: ('A' for Active; 'I' for Inactive)
REMARK    1  A    between atoms: C_1  and  O_2
REMARK    2  A    between atoms: O_2  and  C_3
REMARK    3  A    between atoms: C_5  and  O_6
REMARK    4  A    between atoms: C_7  and  C_8
REMARK    5  A    between atoms: C_8  and  C_10
REMARK    6  A    between atoms: C_11  and  C_12
REMARK    7  A    between atoms: C_17  and  N_18
REMARK    8  A    between atoms: C_21  and  O_22
REMARK    9  A    between atoms: O_22  and  C_23
REMARK   10  A    between atoms: C_24  and  O_25
REMARK   11  A    between atoms: O_25  and  C_26
REMARK                            x       y       z     vdW  Elec       q    Type
REMARK                         _______ _______ _______ _____ _____    ______ ____
ROOT
ATOM      1  C   UNL     1      -1.719  11.975  19.936  0.00  0.00    +0.000 A 
ATOM      2  C   UNL     1      -1.702  11.292  18.713  0.00  0.00    +0.000 A 
ATOM      3  C   UNL     1      -0.689  10.393  18.400  0.00  0.00    +0.000 A 
ATOM      4  C   UNL     1       0.331  10.110  19.316  0.00  0.00    +0.000 A 
ATOM      5  C   UNL     1       0.329  10.783  20.562  0.00  0.00    +0.000 A 
ATOM      6  C   UNL     1      -0.700  11.723  20.880  0.00  0.00    +0.000 A 
ENDROOT
BRANCH   1   8
ATOM      7  C   UNL     1      -4.062  12.445  19.849  0.00  0.00    +0.000 C 
ATOM      8  O   UNL     1      -2.745  12.837  20.242  0.00  0.00    +0.000 OA
ENDBRANCH   1   8
BRANCH   3   9
ATOM      9  O   UNL     1      -0.723   9.817  17.157  0.00  0.00    +0.000 OA
ATOM     10  H   UNL     1      -0.339   8.924  17.192  0.00  0.00    +0.000 HD
ENDBRANCH   3   9
BRANCH   4  11
ATOM     11  C   UNL     1       1.442   9.166  18.942  0.00  0.00    +0.000 C 
ATOM     12  O   UNL     1       2.329   9.500  18.164  0.00  0.00    +0.000 OA
BRANCH  11  13
ATOM     13  C   UNL     1       1.370   7.773  19.471  0.00  0.00    +0.000 C 
ATOM     14  C   UNL     1       2.498   7.083  19.737  0.00  0.00    +0.000 C 
BRANCH  14  15
ATOM     15  C   UNL     1       2.480   5.627  19.917  0.00  0.00    +0.000 A 
ATOM     16  C   UNL     1       1.337   5.082  20.527  0.00  0.00    +0.000 A 
ATOM     17  C   UNL     1       1.208   3.702  20.733  0.00  0.00    +0.000 A 
ATOM     18  C   UNL     1       2.221   2.835  20.329  0.00  0.00    +0.000 A 
ATOM     19  C   UNL     1       3.369   3.347  19.725  0.00  0.00    +0.000 A 
ATOM     20  C   UNL     1       3.490   4.735  19.533  0.00  0.00    +0.000 A 
BRANCH  20  21
ATOM     21  N   UNL     1       4.710   5.212  18.914  0.00  0.00    +0.000 N 
ATOM     22  O   UNL     1       5.683   5.414  19.653  0.00  0.00    +0.000 OA
ATOM     23  O   UNL     1       4.710   5.309  17.679  0.00  0.00    +0.000 OA
ENDBRANCH  20  21
ENDBRANCH  14  15
ENDBRANCH  11  13
ENDBRANCH   4  11
BRANCH   5  24
ATOM     24  O   UNL     1       1.277  10.362  21.473  0.00  0.00    +0.000 OA
ATOM     25  C   UNL     1       0.874   9.416  22.458  0.00  0.00    +0.000 C 
ENDBRANCH   5  24
BRANCH   6  26
ATOM     26  O   UNL     1      -0.599  12.274  22.127  0.00  0.00    +0.000 OA
ATOM     27  C   UNL     1      -1.527  12.032  23.169  0.00  0.00    +0.000 C 
ENDBRANCH   6  26
TORSDOF 8
ENDMDL
MODEL 8
REMARK VINA RESULT:      -6.1      3.588      7.121
REMARK  Name = 
REMARK  11 active torsions:
REMARK  status: ('A' for Active; 'I' for Inactive)
REMARK    1  A    between atoms: C_1  and  O_2
REMARK    2  A    between atoms: O_2  and  C_3
REMARK    3  A    between atoms: C_5  and  O_6
REMARK    4  A    between atoms: C_7  and  C_8
REMARK    5  A    between atoms: C_8  and  C_10
REMARK    6  A    between atoms: C_11  and  C_12
REMARK    7  A    between atoms: C_17  and  N_18
REMARK    8  A    between atoms: C_21  and  O_22
REMARK    9  A    between atoms: O_22  and  C_23
REMARK   10  A    between atoms: C_24  and  O_25
REMARK   11  A    between atoms: O_25  and  C_26
REMARK                            x       y       z     vdW  Elec       q    Type
REMARK                         _______ _______ _______ _____ _____    ______ ____
ROOT
ATOM      1  C   UNL     1       2.703   6.884  18.616  0.00  0.00    +0.000 A 
ATOM      2  C   UNL     1       2.703   8.027  17.806  0.00  0.00    +0.000 A 
ATOM      3  C   UNL     1       2.116   9.214  18.229  0.00  0.00    +0.000 A 
ATOM      4  C   UNL     1       1.536   9.318  19.498  0.00  0.00    +0.000 A 
ATOM      5  C   UNL     1       1.531   8.178  20.337  0.00  0.00    +0.000 A 
ATOM      6  C   UNL     1       2.117   6.950  19.899  0.00  0.00    +0.000 A 
ENDROOT
BRANCH   1   8
ATOM      7  C   UNL     1       2.485   4.737  17.588  0.00  0.00    +0.000 C 
ATOM      8  O   UNL     1       3.316   5.729  18.196  0.00  0.00    +0.000 OA
ENDBRANCH   1   8
BRANCH   3   9
ATOM      9  O   UNL     1       2.113  10.262  17.345  0.00  0.00    +0.000 OA
ATOM     10  H   UNL     1       1.884   9.947  16.454  0.00  0.00    +0.000 HD
ENDBRANCH   3   9
BRANCH   4  11
ATOM     11  C   UNL     1       0.867  10.599  19.920  0.00  0.00    +0.000 C 
ATOM     12  O   UNL     1       1.197  11.183  20.947  0.00  0.00    +0.000 OA
BRANCH  11  13
ATOM     13  C   UNL     1      -0.283  11.078  19.100  0.00  0.00    +0.000 C 
ATOM     14  C   UNL     1      -1.364  10.293  18.912  0.00  0.00    +0.000 C 
BRANCH  14  15
ATOM     15  C   UNL     1      -2.338  10.572  17.851  0.00  0.00    +0.000 A 
ATOM     16  C   UNL     1      -2.093   9.980  16.600  0.00  0.00    +0.000 A 
ATOM     17  C   UNL     1      -2.967  10.167  15.521  0.00  0.00    +0.000 A 
ATOM     18  C   UNL     1      -4.109  10.951  15.671  0.00  0.00    +0.000 A 
ATOM     19  C   UNL     1      -4.375  11.556  16.899  0.00  0.00    +0.000 A 
ATOM     20  C   UNL     1      -3.485  11.368  17.971  0.00  0.00    +0.000 A 
BRANCH  20  21
ATOM     21  N   UNL     1      -3.803  12.032  19.219  0.00  0.00    +0.000 N 
ATOM     22  O   UNL     1      -2.967  12.823  19.674  0.00  0.00    +0.000 OA
ATOM     23  O   UNL     1      -4.926  11.816  19.697  0.00  0.00    +0.000 OA
ENDBRANCH  20  21
ENDBRANCH  14  15
ENDBRANCH  11  13
ENDBRANCH   4  11
BRANCH   5  24
ATOM     24  O   UNL     1       1.070   8.380  21.622  0.00  0.00    +0.000 OA
ATOM     25  C   UNL     1      -0.326   8.224  21.857  0.00  0.00    +0.000 C 
ENDBRANCH   5  24
BRANCH   6  26
ATOM     26  O   UNL     1       2.072   5.940  20.820  0.00  0.00    +0.000 OA
ATOM     27  C   UNL     1       1.224   4.812  20.706  0.00  0.00    +0.000 C 
ENDBRANCH   6  26
TORSDOF 8
ENDMDL
MODEL 9
REMARK VINA RESULT:      -6.1      2.675      3.511
REMARK  Name = 
REMARK  11 active torsions:
REMARK  status: ('A' for Active; 'I' for Inactive)
REMARK    1  A    between atoms: C_1  and  O_2
REMARK    2  A    between atoms: O_2  and  C_3
REMARK    3  A    between atoms: C_5  and  O_6
REMARK    4  A    between atoms: C_7  and  C_8
REMARK    5  A    between atoms: C_8  and  C_10
REMARK    6  A    between atoms: C_11  and  C_12
REMARK    7  A    between atoms: C_17  and  N_18
REMARK    8  A    between atoms: C_21  and  O_22
REMARK    9  A    between atoms: O_22  and  C_23
REMARK   10  A    between atoms: C_24  and  O_25
REMARK   11  A    between atoms: O_25  and  C_26
REMARK                            x       y       z     vdW  Elec       q    Type
REMARK                         _______ _______ _______ _____ _____    ______ ____
ROOT
ATOM      1  C   UNL     1      -2.532  11.698  19.207  0.00  0.00    +0.000 A 
ATOM      2  C   UNL     1      -2.352  10.808  18.141  0.00  0.00    +0.000 A 
ATOM      3  C   UNL     1      -1.119  10.213  17.895  0.00  0.00    +0.000 A 
ATOM      4  C   UNL     1      -0.023  10.456  18.730  0.00  0.00    +0.000 A 
ATOM      5  C   UNL     1      -0.184  11.347  19.818  0.00  0.00    +0.000 A 
ATOM      6  C   UNL     1      -1.444  11.976  20.064  0.00  0.00    +0.000 A 
ENDROOT
BRANCH   1   8
ATOM      7  C   UNL     1      -4.818  11.928  18.545  0.00  0.00    +0.000 C 
ATOM      8  O   UNL     1      -3.764  12.253  19.455  0.00  0.00    +0.000 OA
ENDBRANCH   1   8
BRANCH   3   9
ATOM      9  O   UNL     1      -1.023   9.402  16.794  0.00  0.00    +0.000 OA
ATOM     10  H   UNL     1      -1.294   8.497  17.022  0.00  0.00    +0.000 HD
ENDBRANCH   3   9
BRANCH   4  11
ATOM     11  C   UNL     1       1.314   9.837  18.422  0.00  0.00    +0.000 C 
ATOM     12  O   UNL     1       2.014  10.253  17.505  0.00  0.00    +0.000 OA
BRANCH  11  13
ATOM     13  C   UNL     1       1.712   8.632  19.206  0.00  0.00    +0.000 C 
ATOM     14  C   UNL     1       2.494   7.683  18.652  0.00  0.00    +0.000 C 
BRANCH  14  15
ATOM     15  C   UNL     1       2.616   6.348  19.248  0.00  0.00    +0.000 A 
ATOM     16  C   UNL     1       1.684   6.018  20.248  0.00  0.00    +0.000 A 
ATOM     17  C   UNL     1       1.699   4.763  20.872  0.00  0.00    +0.000 A 
ATOM     18  C   UNL     1       2.647   3.809  20.507  0.00  0.00    +0.000 A 
ATOM     19  C   UNL     1       3.587   4.110  19.522  0.00  0.00    +0.000 A 
ATOM     20  C   UNL     1       3.567   5.376  18.910  0.00  0.00    +0.000 A 
BRANCH  20  21
ATOM     21  N   UNL     1       4.576   5.639  17.904  0.00  0.00    +0.000 N 
ATOM     22  O   UNL     1       4.285   5.392  16.726  0.00  0.00    +0.000 OA
ATOM     23  O   UNL     1       5.628   6.166  18.291  0.00  0.00    +0.000 OA
ENDBRANCH  20  21
ENDBRANCH  14  15
ENDBRANCH  11  13
ENDBRANCH   4  11
BRANCH   5  24
ATOM     24  O   UNL     1       0.888  11.440  20.683  0.00  0.00    +0.000 OA
ATOM     25  C   UNL     1       1.695  12.612  20.613  0.00  0.00    +0.000 C 
ENDBRANCH   5  24
BRANCH   6  26
ATOM     26  O   UNL     1      -1.469  12.786  21.166  0.00  0.00    +0.000 OA
ATOM     27  C   UNL     1      -1.980  12.383  22.424  0.00  0.00    +0.000 C 
ENDBRANCH   6  26
TORSDOF 8
ENDMDL
