MODEL 1
REMARK VINA RESULT:      -7.3      0.000      0.000
REMARK  Name = 
REMARK  10 active torsions:
REMARK  status: ('A' for Active; 'I' for Inactive)
REMARK    1  A    between atoms: C_1  and  C_2
REMARK    2  A    between atoms: C_2  and  C_3
REMARK    3  A    between atoms: C_3  and  C_4
REMARK    4  A    between atoms: C_4  and  O_5
REMARK    5  A    between atoms: O_5  and  C_6
REMARK    6  A    between atoms: C_10  and  N_11
REMARK    7  A    between atoms: C_12  and  O_14
REMARK    8  A    between atoms: O_14  and  N_15
REMARK    9  A    between atoms: C_16  and  C_17
REMARK   10  A    between atoms: C_16  and  C_18
REMARK                            x       y       z     vdW  Elec       q    Type
REMARK                         _______ _______ _______ _____ _____    ______ ____
ROOT
ATOM      1  C   UNL     1       3.709   4.842  18.319  0.00  0.00    +0.000 A 
ATOM      2  C   UNL     1       4.663   5.241  19.256  0.00  0.00    +0.000 A 
ATOM      3  C   UNL     1       6.022   5.113  18.972  0.00  0.00    +0.000 A 
ATOM      4  C   UNL     1       6.435   4.594  17.744  0.00  0.00    +0.000 A 
ATOM      5  C   UNL     1       5.492   4.228  16.781  0.00  0.00    +0.000 A 
ATOM      6  C   UNL     1       4.126   4.365  17.072  0.00  0.00    +0.000 A 
ENDROOT
BRANCH   5   7
ATOM      7  N   UNL     1       5.855   3.779  15.498  0.00  0.00    +0.000 N 
ATOM      8  C   UNL     1       6.701   4.405  14.610  0.00  0.00    +0.000 C 
ATOM      9  O   UNL     1       7.391   5.393  14.816  0.00  0.00    +0.000 OA
ATOM     10  H   UNL     1       5.587   2.846  15.220  0.00  0.00    +0.000 HD
BRANCH   8  11
ATOM     11  O   UNL     1       6.673   3.732  13.409  0.00  0.00    +0.000 OA
BRANCH  11  12
ATOM     12  N   UNL     1       5.397   3.854  12.834  0.00  0.00    +0.000 NA
ATOM     13  C   UNL     1       5.199   3.024  11.856  0.00  0.00    +0.000 C 
ATOM     14  C   UNL     1       6.135   1.926  11.411  0.00  0.00    +0.000 C 
ATOM     15  C   UNL     1       3.906   3.161  11.088  0.00  0.00    +0.000 C 
ENDBRANCH  11  12
ENDBRANCH   8  11
ENDBRANCH   5   7
BRANCH   1  16
ATOM     16  O   UNL     1       2.403   5.015  18.698  0.00  0.00    +0.000 OA
BRANCH  16  17
ATOM     17  C   UNL     1       1.477   4.079  18.140  0.00  0.00    +0.000 C 
BRANCH  17  18
ATOM     18  C   UNL     1       1.161   3.019  19.194  0.00  0.00    +0.000 C 
BRANCH  18  20
ATOM     19  C   UNL     1       1.589   2.665  21.660  0.00  0.00    +0.000 C 
ATOM     20  C   UNL     1       1.106   3.633  20.592  0.00  0.00    +0.000 C 
ENDBRANCH  18  20
ENDBRANCH  17  18
ENDBRANCH  16  17
ENDBRANCH   1  16
TORSDOF 7
ENDMDL
MODEL 2
REMARK VINA RESULT:      -6.9      0.988      1.236
REMARK  Name = 
REMARK  10 active torsions:
REMARK  status: ('A' for Active; 'I' for Inactive)
REMARK    1  A    between atoms: C_1  and  C_2
REMARK    2  A    between atoms: C_2  and  C_3
REMARK    3  A    between atoms: C_3  and  C_4
REMARK    4  A    between atoms: C_4  and  O_5
REMARK    5  A    between atoms: O_5  and  C_6
REMARK    6  A    between atoms: C_10  and  N_11
REMARK    7  A    between atoms: C_12  and  O_14
REMARK    8  A    between atoms: O_14  and  N_15
REMARK    9  A    between atoms: C_16  and  C_17
REMARK   10  A    between atoms: C_16  and  C_18
REMARK                            x       y       z     vdW  Elec       q    Type
REMARK                         _______ _______ _______ _____ _____    ______ ____
ROOT
ATOM      1  C   UNL     1       4.453   5.148  18.133  0.00  0.00    +0.000 A 
ATOM      2  C   UNL     1       5.520   5.480  18.969  0.00  0.00    +0.000 A 
ATOM      3  C   UNL     1       6.831   5.214  18.573  0.00  0.00    +0.000 A 
ATOM      4  C   UNL     1       7.082   4.624  17.333  0.00  0.00    +0.000 A 
ATOM      5  C   UNL     1       6.027   4.325  16.470  0.00  0.00    +0.000 A 
ATOM      6  C   UNL     1       4.711   4.600  16.872  0.00  0.00    +0.000 A 
ENDROOT
BRANCH   5   7
ATOM      7  N   UNL     1       6.230   3.807  15.177  0.00  0.00    +0.000 N 
ATOM      8  C   UNL     1       6.878   4.424  14.131  0.00  0.00    +0.000 C 
ATOM      9  O   UNL     1       7.507   5.472  14.164  0.00  0.00    +0.000 OA
ATOM     10  H   UNL     1       6.002   2.839  15.004  0.00  0.00    +0.000 HD
BRANCH   8  11
ATOM     11  O   UNL     1       6.727   3.662  12.994  0.00  0.00    +0.000 OA
BRANCH  11  12
ATOM     12  N   UNL     1       5.432   3.840  12.480  0.00  0.00    +0.000 NA
ATOM     13  C   UNL     1       5.069   2.888  11.676  0.00  0.00    +0.000 C 
ATOM     14  C   UNL     1       5.842   1.627  11.377  0.00  0.00    +0.000 C 
ATOM     15  C   UNL     1       3.743   3.050  10.972  0.00  0.00    +0.000 C 
ENDBRANCH  11  12
ENDBRANCH   8  11
ENDBRANCH   5   7
BRANCH   1  16
ATOM     16  O   UNL     1       3.209   5.457  18.617  0.00  0.00    +0.000 OA
BRANCH  16  17
ATOM     17  C   UNL     1       2.121   4.785  17.975  0.00  0.00    +0.000 C 
BRANCH  17  18
ATOM     18  C   UNL     1       1.381   3.949  19.019  0.00  0.00    +0.000 C 
BRANCH  18  20
ATOM     19  C   UNL     1       2.588   2.035  17.893  0.00  0.00    +0.000 C 
ATOM     20  C   UNL     1       1.319   2.481  18.602  0.00  0.00    +0.000 C 
ENDBRANCH  18  20
ENDBRANCH  17  18
ENDBRANCH  16  17
ENDBRANCH   1  16
TORSDOF 7
ENDMDL
MODEL 3
REMARK VINA RESULT:      -6.8      0.836      1.188
REMARK  Name = 
REMARK  10 active torsions:
REMARK  status: ('A' for Active; 'I' for Inactive)
REMARK    1  A    between atoms: C_1  and  C_2
REMARK    2  A    between atoms: C_2  and  C_3
REMARK    3  A    between atoms: C_3  and  C_4
REMARK    4  A    between atoms: C_4  and  O_5
REMARK    5  A    between atoms: O_5  and  C_6
REMARK    6  A    between atoms: C_10  and  N_11
REMARK    7  A    between atoms: C_12  and  O_14
REMARK    8  A    between atoms: O_14  and  N_15
REMARK    9  A    between atoms: C_16  and  C_17
REMARK   10  A    between atoms: C_16  and  C_18
REMARK                            x       y       z     vdW  Elec       q    Type
REMARK                         _______ _______ _______ _____ _____    ______ ____
ROOT
ATOM      1  C   UNL     1       5.086   4.720  18.859  0.00  0.00    +0.000 A 
ATOM      2  C   UNL     1       6.173   5.397  19.412  0.00  0.00    +0.000 A 
ATOM      3  C   UNL     1       7.382   5.468  18.720  0.00  0.00    +0.000 A 
ATOM      4  C   UNL     1       7.507   4.869  17.466  0.00  0.00    +0.000 A 
ATOM      5  C   UNL     1       6.415   4.223  16.883  0.00  0.00    +0.000 A 
ATOM      6  C   UNL     1       5.200   4.161  17.581  0.00  0.00    +0.000 A 
ENDROOT
BRANCH   5   7
ATOM      7  N   UNL     1       6.463   3.676  15.587  0.00  0.00    +0.000 N 
ATOM      8  C   UNL     1       6.678   4.356  14.409  0.00  0.00    +0.000 C 
ATOM      9  O   UNL     1       6.993   5.530  14.278  0.00  0.00    +0.000 OA
ATOM     10  H   UNL     1       6.472   2.672  15.487  0.00  0.00    +0.000 HD
BRANCH   8  11
ATOM     11  O   UNL     1       6.493   3.495  13.350  0.00  0.00    +0.000 OA
BRANCH  11  12
ATOM     12  N   UNL     1       5.265   3.777  12.727  0.00  0.00    +0.000 NA
ATOM     13  C   UNL     1       5.005   2.981  11.736  0.00  0.00    +0.000 C 
ATOM     14  C   UNL     1       5.815   1.778  11.317  0.00  0.00    +0.000 C 
ATOM     15  C   UNL     1       3.770   3.279  10.920  0.00  0.00    +0.000 C 
ENDBRANCH  11  12
ENDBRANCH   8  11
ENDBRANCH   5   7
BRANCH   1  16
ATOM     16  O   UNL     1       3.946   4.715  19.620  0.00  0.00    +0.000 OA
BRANCH  16  17
ATOM     17  C   UNL     1       2.867   5.502  19.106  0.00  0.00    +0.000 C 
BRANCH  17  18
ATOM     18  C   UNL     1       1.784   4.559  18.582  0.00  0.00    +0.000 C 
BRANCH  18  20
ATOM     19  C   UNL     1       1.000   3.322  20.642  0.00  0.00    +0.000 C 
ATOM     20  C   UNL     1       1.791   3.236  19.347  0.00  0.00    +0.000 C 
ENDBRANCH  18  20
ENDBRANCH  17  18
ENDBRANCH  16  17
ENDBRANCH   1  16
TORSDOF 7
ENDMDL
MODEL 4
REMARK VINA RESULT:      -6.8      1.951      2.824
REMARK  Name = 
REMARK  10 active torsions:
REMARK  status: ('A' for Active; 'I' for Inactive)
REMARK    1  A    between atoms: C_1  and  C_2
REMARK    2  A    between atoms: C_2  and  C_3
REMARK    3  A    between atoms: C_3  and  C_4
REMARK    4  A    between atoms: C_4  and  O_5
REMARK    5  A    between atoms: O_5  and  C_6
REMARK    6  A    between atoms: C_10  and  N_11
REMARK    7  A    between atoms: C_12  and  O_14
REMARK    8  A    between atoms: O_14  and  N_15
REMARK    9  A    between atoms: C_16  and  C_17
REMARK   10  A    between atoms: C_16  and  C_18
REMARK                            x       y       z     vdW  Elec       q    Type
REMARK                         _______ _______ _______ _____ _____    ______ ____
ROOT
ATOM      1  C   UNL     1       3.034   5.691  19.725  0.00  0.00    +0.000 A 
ATOM      2  C   UNL     1       2.449   6.876  19.279  0.00  0.00    +0.000 A 
ATOM      3  C   UNL     1       2.916   7.497  18.120  0.00  0.00    +0.000 A 
ATOM      4  C   UNL     1       3.965   6.929  17.396  0.00  0.00    +0.000 A 
ATOM      5  C   UNL     1       4.533   5.723  17.809  0.00  0.00    +0.000 A 
ATOM      6  C   UNL     1       4.055   5.101  18.971  0.00  0.00    +0.000 A 
ENDROOT
BRANCH   5   7
ATOM      7  N   UNL     1       5.536   5.066  17.071  0.00  0.00    +0.000 N 
ATOM      8  C   UNL     1       6.794   5.542  16.778  0.00  0.00    +0.000 C 
ATOM      9  O   UNL     1       7.320   6.559  17.207  0.00  0.00    +0.000 OA
ATOM     10  H   UNL     1       5.398   4.096  16.826  0.00  0.00    +0.000 HD
BRANCH   8  11
ATOM     11  O   UNL     1       7.413   4.675  15.905  0.00  0.00    +0.000 OA
BRANCH  11  12
ATOM     12  N   UNL     1       7.762   5.362  14.731  0.00  0.00    +0.000 NA
ATOM     13  C   UNL     1       7.209   4.865  13.668  0.00  0.00    +0.000 C 
ATOM     14  C   UNL     1       6.187   3.754  13.627  0.00  0.00    +0.000 C 
ATOM     15  C   UNL     1       7.619   5.453  12.339  0.00  0.00    +0.000 C 
ENDBRANCH  11  12
ENDBRANCH   8  11
ENDBRANCH   5   7
BRANCH   1  16
ATOM     16  O   UNL     1       2.496   5.164  20.870  0.00  0.00    +0.000 OA
BRANCH  16  17
ATOM     17  C   UNL     1       1.339   4.344  20.678  0.00  0.00    +0.000 C 
BRANCH  17  18
ATOM     18  C   UNL     1       1.736   2.884  20.897  0.00  0.00    +0.000 C 
BRANCH  18  20
ATOM     19  C   UNL     1       1.113   2.928  18.447  0.00  0.00    +0.000 C 
ATOM     20  C   UNL     1       1.506   2.059  19.631  0.00  0.00    +0.000 C 
ENDBRANCH  18  20
ENDBRANCH  17  18
ENDBRANCH  16  17
ENDBRANCH   1  16
TORSDOF 7
ENDMDL
MODEL 5
REMARK VINA RESULT:      -6.8      1.890      2.839
REMARK  Name = 
REMARK  10 active torsions:
REMARK  status: ('A' for Active; 'I' for Inactive)
REMARK    1  A    between atoms: C_1  and  C_2
REMARK    2  A    between atoms: C_2  and  C_3
REMARK    3  A    between atoms: C_3  and  C_4
REMARK    4  A    between atoms: C_4  and  O_5
REMARK    5  A    between atoms: O_5  and  C_6
REMARK    6  A    between atoms: C_10  and  N_11
REMARK    7  A    between atoms: C_12  and  O_14
REMARK    8  A    between atoms: O_14  and  N_15
REMARK    9  A    between atoms: C_16  and  C_17
REMARK   10  A    between atoms: C_16  and  C_18
REMARK                            x       y       z     vdW  Elec       q    Type
REMARK                         _______ _______ _______ _____ _____    ______ ____
ROOT
ATOM      1  C   UNL     1       3.218   5.686  19.443  0.00  0.00    +0.000 A 
ATOM      2  C   UNL     1       2.442   6.823  19.217  0.00  0.00    +0.000 A 
ATOM      3  C   UNL     1       2.721   7.660  18.138  0.00  0.00    +0.000 A 
ATOM      4  C   UNL     1       3.774   7.360  17.272  0.00  0.00    +0.000 A 
ATOM      5  C   UNL     1       4.533   6.203  17.462  0.00  0.00    +0.000 A 
ATOM      6  C   UNL     1       4.242   5.362  18.546  0.00  0.00    +0.000 A 
ENDROOT
BRANCH   5   7
ATOM      7  N   UNL     1       5.549   5.810  16.572  0.00  0.00    +0.000 N 
ATOM      8  C   UNL     1       6.907   5.940  16.757  0.00  0.00    +0.000 C 
ATOM      9  O   UNL     1       7.486   6.298  17.773  0.00  0.00    +0.000 OA
ATOM     10  H   UNL     1       5.297   5.259  15.764  0.00  0.00    +0.000 HD
BRANCH   8  11
ATOM     11  O   UNL     1       7.557   5.585  15.596  0.00  0.00    +0.000 OA
BRANCH  11  12
ATOM     12  N   UNL     1       6.851   4.548  14.963  0.00  0.00    +0.000 NA
ATOM     13  C   UNL     1       6.990   4.553  13.673  0.00  0.00    +0.000 C 
ATOM     14  C   UNL     1       7.898   5.457  12.874  0.00  0.00    +0.000 C 
ATOM     15  C   UNL     1       6.171   3.557  12.887  0.00  0.00    +0.000 C 
ENDBRANCH  11  12
ENDBRANCH   8  11
ENDBRANCH   5   7
BRANCH   1  16
ATOM     16  O   UNL     1       2.855   4.931  20.527  0.00  0.00    +0.000 OA
BRANCH  16  17
ATOM     17  C   UNL     1       2.681   3.535  20.268  0.00  0.00    +0.000 C 
BRANCH  17  18
ATOM     18  C   UNL     1       1.185   3.243  20.155  0.00  0.00    +0.000 C 
BRANCH  18  20
ATOM     19  C   UNL     1       2.095   2.266  18.009  0.00  0.00    +0.000 C 
ATOM     20  C   UNL     1       0.847   2.633  18.795  0.00  0.00    +0.000 C 
ENDBRANCH  18  20
ENDBRANCH  17  18
ENDBRANCH  16  17
ENDBRANCH   1  16
TORSDOF 7
ENDMDL
MODEL 6
REMARK VINA RESULT:      -6.7      2.089      6.877
REMARK  Name = 
REMARK  10 active torsions:
REMARK  status: ('A' for Active; 'I' for Inactive)
REMARK    1  A    between atoms: C_1  and  C_2
REMARK    2  A    between atoms: C_2  and  C_3
REMARK    3  A    between atoms: C_3  and  C_4
REMARK    4  A    between atoms: C_4  and  O_5
REMARK    5  A    between atoms: O_5  and  C_6
REMARK    6  A    between atoms: C_10  and  N_11
REMARK    7  A    between atoms: C_12  and  O_14
REMARK    8  A    between atoms: O_14  and  N_15
REMARK    9  A    between atoms: C_16  and  C_17
REMARK   10  A    between atoms: C_16  and  C_18
REMARK                            x       y       z     vdW  Elec       q    Type
REMARK                         _______ _______ _______ _____ _____    ______ ____
ROOT
ATOM      1  C   UNL     1       7.003   5.426  16.391  0.00  0.00    +0.000 A 
ATOM      2  C   UNL     1       7.484   6.312  17.355  0.00  0.00    +0.000 A 
ATOM      3  C   UNL     1       7.056   6.209  18.678  0.00  0.00    +0.000 A 
ATOM      4  C   UNL     1       6.152   5.211  19.046  0.00  0.00    +0.000 A 
ATOM      5  C   UNL     1       5.694   4.293  18.100  0.00  0.00    +0.000 A 
ATOM      6  C   UNL     1       6.133   4.399  16.772  0.00  0.00    +0.000 A 
ENDROOT
BRANCH   5   7
ATOM      7  N   UNL     1       4.849   3.219  18.435  0.00  0.00    +0.000 N 
ATOM      8  C   UNL     1       3.609   2.944  17.903  0.00  0.00    +0.000 C 
ATOM      9  O   UNL     1       3.070   3.500  16.957  0.00  0.00    +0.000 OA
ATOM     10  H   UNL     1       5.211   2.486  19.028  0.00  0.00    +0.000 HD
BRANCH   8  11
ATOM     11  O   UNL     1       3.037   1.905  18.602  0.00  0.00    +0.000 OA
BRANCH  11  12
ATOM     12  N   UNL     1       3.066   2.195  19.977  0.00  0.00    +0.000 NA
ATOM     13  C   UNL     1       1.952   2.699  20.413  0.00  0.00    +0.000 C 
ATOM     14  C   UNL     1       0.676   2.864  19.623  0.00  0.00    +0.000 C 
ATOM     15  C   UNL     1       1.922   3.162  21.849  0.00  0.00    +0.000 C 
ENDBRANCH  11  12
ENDBRANCH   8  11
ENDBRANCH   5   7
BRANCH   1  16
ATOM     16  O   UNL     1       7.491   5.613  15.124  0.00  0.00    +0.000 OA
BRANCH  16  17
ATOM     17  C   UNL     1       6.898   4.792  14.114  0.00  0.00    +0.000 C 
BRANCH  17  18
ATOM     18  C   UNL     1       7.656   5.007  12.804  0.00  0.00    +0.000 C 
BRANCH  18  20
ATOM     19  C   UNL     1       5.941   3.260  12.178  0.00  0.00    +0.000 C 
ATOM     20  C   UNL     1       7.130   4.082  11.708  0.00  0.00    +0.000 C 
ENDBRANCH  18  20
ENDBRANCH  17  18
ENDBRANCH  16  17
ENDBRANCH   1  16
TORSDOF 7
ENDMDL
MODEL 7
REMARK VINA RESULT:      -6.7      3.998      6.066
REMARK  Name = 
REMARK  10 active torsions:
REMARK  status: ('A' for Active; 'I' for Inactive)
REMARK    1  A    between atoms: C_1  and  C_2
REMARK    2  A    between atoms: C_2  and  C_3
REMARK    3  A    between atoms: C_3  and  C_4
REMARK    4  A    between atoms: C_4  and  O_5
REMARK    5  A    between atoms: O_5  and  C_6
REMARK    6  A    between atoms: C_10  and  N_11
REMARK    7  A    between atoms: C_12  and  O_14
REMARK    8  A    between atoms: O_14  and  N_15
REMARK    9  A    between atoms: C_16  and  C_17
REMARK   10  A    between atoms: C_16  and  C_18
REMARK                            x       y       z     vdW  Elec       q    Type
REMARK                         _______ _______ _______ _____ _____    ______ ____
ROOT
ATOM      1  C   UNL     1       4.153   5.153  17.136  0.00  0.00    +0.000 A 
ATOM      2  C   UNL     1       4.737   4.008  16.594  0.00  0.00    +0.000 A 
ATOM      3  C   UNL     1       6.045   4.048  16.111  0.00  0.00    +0.000 A 
ATOM      4  C   UNL     1       6.778   5.234  16.175  0.00  0.00    +0.000 A 
ATOM      5  C   UNL     1       6.220   6.376  16.751  0.00  0.00    +0.000 A 
ATOM      6  C   UNL     1       4.907   6.327  17.242  0.00  0.00    +0.000 A 
ENDROOT
BRANCH   5   7
ATOM      7  N   UNL     1       6.944   7.572  16.917  0.00  0.00    +0.000 N 
ATOM      8  C   UNL     1       7.855   7.857  17.908  0.00  0.00    +0.000 C 
ATOM      9  O   UNL     1       8.300   7.089  18.749  0.00  0.00    +0.000 OA
ATOM     10  H   UNL     1       6.911   8.262  16.180  0.00  0.00    +0.000 HD
BRANCH   8  11
ATOM     11  O   UNL     1       8.224   9.181  17.816  0.00  0.00    +0.000 OA
BRANCH  11  12
ATOM     12  N   UNL     1       8.959   9.543  18.957  0.00  0.00    +0.000 NA
ATOM     13  C   UNL     1       9.333  10.785  18.947  0.00  0.00    +0.000 C 
ATOM     14  C   UNL     1       8.949  11.827  17.924  0.00  0.00    +0.000 C 
ATOM     15  C   UNL     1      10.237  11.241  20.068  0.00  0.00    +0.000 C 
ENDBRANCH  11  12
ENDBRANCH   8  11
ENDBRANCH   5   7
BRANCH   1  16
ATOM     16  O   UNL     1       2.867   5.001  17.586  0.00  0.00    +0.000 OA
BRANCH  16  17
ATOM     17  C   UNL     1       2.696   4.037  18.630  0.00  0.00    +0.000 C 
BRANCH  17  18
ATOM     18  C   UNL     1       2.656   4.772  19.969  0.00  0.00    +0.000 C 
BRANCH  18  20
ATOM     19  C   UNL     1       2.058   2.968  21.635  0.00  0.00    +0.000 C 
ATOM     20  C   UNL     1       1.573   4.195  20.879  0.00  0.00    +0.000 C 
ENDBRANCH  18  20
ENDBRANCH  17  18
ENDBRANCH  16  17
ENDBRANCH   1  16
TORSDOF 7
ENDMDL
MODEL 8
REMARK VINA RESULT:      -6.5      1.374      1.952
REMARK  Name = 
REMARK  10 active torsions:
REMARK  status: ('A' for Active; 'I' for Inactive)
REMARK    1  A    between atoms: C_1  and  C_2
REMARK    2  A    between atoms: C_2  and  C_3
REMARK    3  A    between atoms: C_3  and  C_4
REMARK    4  A    between atoms: C_4  and  O_5
REMARK    5  A    between atoms: O_5  and  C_6
REMARK    6  A    between atoms: C_10  and  N_11
REMARK    7  A    between atoms: C_12  and  O_14
REMARK    8  A    between atoms: O_14  and  N_15
REMARK    9  A    between atoms: C_16  and  C_17
REMARK   10  A    between atoms: C_16  and  C_18
REMARK                            x       y       z     vdW  Elec       q    Type
REMARK                         _______ _______ _______ _____ _____    ______ ____
ROOT
ATOM      1  C   UNL     1       3.885   4.846  19.344  0.00  0.00    +0.000 A 
ATOM      2  C   UNL     1       3.303   6.112  19.279  0.00  0.00    +0.000 A 
ATOM      3  C   UNL     1       3.469   6.903  18.142  0.00  0.00    +0.000 A 
ATOM      4  C   UNL     1       4.211   6.427  17.060  0.00  0.00    +0.000 A 
ATOM      5  C   UNL     1       4.765   5.147  17.095  0.00  0.00    +0.000 A 
ATOM      6  C   UNL     1       4.589   4.354  18.239  0.00  0.00    +0.000 A 
ENDROOT
BRANCH   5   7
ATOM      7  N   UNL     1       5.450   4.587  16.001  0.00  0.00    +0.000 N 
ATOM      8  C   UNL     1       6.659   4.996  15.484  0.00  0.00    +0.000 C 
ATOM      9  O   UNL     1       7.421   5.829  15.953  0.00  0.00    +0.000 OA
ATOM     10  H   UNL     1       5.111   3.719  15.612  0.00  0.00    +0.000 HD
BRANCH   8  11
ATOM     11  O   UNL     1       6.912   4.300  14.323  0.00  0.00    +0.000 OA
BRANCH  11  12
ATOM     12  N   UNL     1       5.696   3.915  13.734  0.00  0.00    +0.000 NA
ATOM     13  C   UNL     1       5.827   3.542  12.498  0.00  0.00    +0.000 C 
ATOM     14  C   UNL     1       7.125   3.384  11.743  0.00  0.00    +0.000 C 
ATOM     15  C   UNL     1       4.561   3.230  11.735  0.00  0.00    +0.000 C 
ENDBRANCH  11  12
ENDBRANCH   8  11
ENDBRANCH   5   7
BRANCH   1  16
ATOM     16  O   UNL     1       3.655   4.152  20.503  0.00  0.00    +0.000 OA
BRANCH  16  17
ATOM     17  C   UNL     1       3.108   2.841  20.331  0.00  0.00    +0.000 C 
BRANCH  17  18
ATOM     18  C   UNL     1       1.587   2.955  20.250  0.00  0.00    +0.000 C 
BRANCH  18  20
ATOM     19  C   UNL     1       0.979   3.674  17.904  0.00  0.00    +0.000 C 
ATOM     20  C   UNL     1       1.076   2.512  18.880  0.00  0.00    +0.000 C 
ENDBRANCH  18  20
ENDBRANCH  17  18
ENDBRANCH  16  17
ENDBRANCH   1  16
TORSDOF 7
ENDMDL
MODEL 9
REMARK VINA RESULT:      -6.5      1.707      2.142
REMARK  Name = 
REMARK  10 active torsions:
REMARK  status: ('A' for Active; 'I' for Inactive)
REMARK    1  A    between atoms: C_1  and  C_2
REMARK    2  A    between atoms: C_2  and  C_3
REMARK    3  A    between atoms: C_3  and  C_4
REMARK    4  A    between atoms: C_4  and  O_5
REMARK    5  A    between atoms: O_5  and  C_6
REMARK    6  A    between atoms: C_10  and  N_11
REMARK    7  A    between atoms: C_12  and  O_14
REMARK    8  A    between atoms: O_14  and  N_15
REMARK    9  A    between atoms: C_16  and  C_17
REMARK   10  A    between atoms: C_16  and  C_18
REMARK                            x       y       z     vdW  Elec       q    Type
REMARK                         _______ _______ _______ _____ _____    ______ ____
ROOT
ATOM      1  C   UNL     1       2.851   5.525  18.461  0.00  0.00    +0.000 A 
ATOM      2  C   UNL     1       2.550   6.885  18.545  0.00  0.00    +0.000 A 
ATOM      3  C   UNL     1       3.261   7.810  17.781  0.00  0.00    +0.000 A 
ATOM      4  C   UNL     1       4.271   7.378  16.921  0.00  0.00    +0.000 A 
ATOM      5  C   UNL     1       4.556   6.017  16.796  0.00  0.00    +0.000 A 
ATOM      6  C   UNL     1       3.832   5.091  17.564  0.00  0.00    +0.000 A 
ENDROOT
BRANCH   5   7
ATOM      7  N   UNL     1       5.505   5.521  15.884  0.00  0.00    +0.000 N 
ATOM      8  C   UNL     1       6.871   5.477  16.053  0.00  0.00    +0.000 C 
ATOM      9  O   UNL     1       7.501   5.737  17.068  0.00  0.00    +0.000 OA
ATOM     10  H   UNL     1       5.178   5.025  15.068  0.00  0.00    +0.000 HD
BRANCH   8  11
ATOM     11  O   UNL     1       7.459   5.072  14.875  0.00  0.00    +0.000 OA
BRANCH  11  12
ATOM     12  N   UNL     1       6.653   4.100  14.260  0.00  0.00    +0.000 NA
ATOM     13  C   UNL     1       6.716   4.133  12.965  0.00  0.00    +0.000 C 
ATOM     14  C   UNL     1       7.633   5.001  12.136  0.00  0.00    +0.000 C 
ATOM     15  C   UNL     1       5.790   3.212  12.205  0.00  0.00    +0.000 C 
ENDBRANCH  11  12
ENDBRANCH   8  11
ENDBRANCH   5   7
BRANCH   1  16
ATOM     16  O   UNL     1       2.088   4.704  19.251  0.00  0.00    +0.000 OA
BRANCH  16  17
ATOM     17  C   UNL     1       1.319   3.724  18.548  0.00  0.00    +0.000 C 
BRANCH  17  18
ATOM     18  C   UNL     1       0.997   2.579  19.507  0.00  0.00    +0.000 C 
BRANCH  18  20
ATOM     19  C   UNL     1       2.291   2.524  21.677  0.00  0.00    +0.000 C 
ATOM     20  C   UNL     1       1.057   3.047  20.960  0.00  0.00    +0.000 C 
ENDBRANCH  18  20
ENDBRANCH  17  18
ENDBRANCH  16  17
ENDBRANCH   1  16
TORSDOF 7
ENDMDL
