MODEL 1
REMARK VINA RESULT:      -6.9      0.000      0.000
REMARK  Name = 
REMARK  3 active torsions:
REMARK  status: ('A' for Active; 'I' for Inactive)
REMARK    1  A    between atoms: C_2  and  N_3
REMARK    2  A    between atoms: C_2  and  N_12
REMARK    3  A    between atoms: N_3  and  C_4
REMARK                            x       y       z     vdW  Elec       q    Type
REMARK                         _______ _______ _______ _____ _____    ______ ____
ROOT
ATOM      1  S   UNL     1       1.471   4.945  20.333  0.00  0.00    +0.000 S 
ATOM      2  C   UNL     1       2.382   6.278  19.844  0.00  0.00    +0.000 C 
ENDROOT
BRANCH   2   3
ATOM      3  N   UNL     1       1.907   7.603  19.846  0.00  0.00    +0.000 N 
ATOM      4  C   UNL     1       1.461   8.288  21.072  0.00  0.00    +0.000 C 
ATOM      5  C   UNL     1       0.187   9.090  20.829  0.00  0.00    +0.000 C 
ATOM      6  C   UNL     1       0.309  10.010  19.613  0.00  0.00    +0.000 C 
ATOM      7  C   UNL     1       0.852   9.266  18.395  0.00  0.00    +0.000 C 
ATOM      8  C   UNL     1       2.138   8.531  18.730  0.00  0.00    +0.000 C 
ATOM      9  O   UNL     1       1.171  11.117  19.931  0.00  0.00    +0.000 OA
ATOM     10  C   UNL     1       0.536  12.247  19.331  0.00  0.00    +0.000 C 
ATOM     11  C   UNL     1      -0.926  11.927  19.465  0.00  0.00    +0.000 C 
ATOM     12  O   UNL     1      -0.996  10.516  19.271  0.00  0.00    +0.000 OA
ENDBRANCH   2   3
BRANCH   2  13
ATOM     13  N   UNL     1       3.724   6.190  19.497  0.00  0.00    +0.000 N 
ATOM     14  H   UNL     1       4.349   6.142  20.298  0.00  0.00    +0.000 HD
BRANCH  13  15
ATOM     15  C   UNL     1       4.277   5.732  18.273  0.00  0.00    +0.000 A 
ATOM     16  C   UNL     1       4.498   6.616  17.210  0.00  0.00    +0.000 A 
ATOM     17  C   UNL     1       5.086   6.173  16.024  0.00  0.00    +0.000 A 
ATOM     18  C   UNL     1       5.471   4.842  15.900  0.00  0.00    +0.000 A 
ATOM     19 BR   UNL     1       6.278   4.250  14.296  0.00  0.00    +0.000 Br
ATOM     20  C   UNL     1       5.281   3.949  16.952  0.00  0.00    +0.000 A 
ATOM     21  C   UNL     1       4.694   4.398  18.139  0.00  0.00    +0.000 A 
ATOM     22 CL   UNL     1       4.469   3.259  19.422  0.00  0.00    +0.000 Cl
ENDBRANCH  13  15
ENDBRANCH   2  13
TORSDOF 3
ENDMDL
MODEL 2
REMARK VINA RESULT:      -6.7      4.064      7.088
REMARK  Name = 
REMARK  3 active torsions:
REMARK  status: ('A' for Active; 'I' for Inactive)
REMARK    1  A    between atoms: C_2  and  N_3
REMARK    2  A    between atoms: C_2  and  N_12
REMARK    3  A    between atoms: N_3  and  C_4
REMARK                            x       y       z     vdW  Elec       q    Type
REMARK                         _______ _______ _______ _____ _____    ______ ____
ROOT
ATOM      1  S   UNL     1       1.462   4.246  20.044  0.00  0.00    +0.000 S 
ATOM      2  C   UNL     1       2.708   5.319  19.660  0.00  0.00    +0.000 C 
ENDROOT
BRANCH   2   3
ATOM      3  N   UNL     1       3.698   5.065  18.694  0.00  0.00    +0.000 N 
ATOM      4  C   UNL     1       5.088   5.529  18.836  0.00  0.00    +0.000 C 
ATOM      5  C   UNL     1       5.629   6.080  17.520  0.00  0.00    +0.000 C 
ATOM      6  C   UNL     1       5.416   5.107  16.359  0.00  0.00    +0.000 C 
ATOM      7  C   UNL     1       3.978   4.595  16.309  0.00  0.00    +0.000 C 
ATOM      8  C   UNL     1       3.548   4.037  17.654  0.00  0.00    +0.000 C 
ATOM      9  O   UNL     1       6.323   3.998  16.486  0.00  0.00    +0.000 OA
ATOM     10  C   UNL     1       6.773   3.751  15.153  0.00  0.00    +0.000 C 
ATOM     11  C   UNL     1       6.805   5.125  14.545  0.00  0.00    +0.000 C 
ATOM     12  O   UNL     1       5.680   5.789  15.118  0.00  0.00    +0.000 OA
ENDBRANCH   2   3
BRANCH   2  13
ATOM     13  N   UNL     1       2.796   6.597  20.197  0.00  0.00    +0.000 N 
ATOM     14  H   UNL     1       3.749   6.886  20.405  0.00  0.00    +0.000 HD
BRANCH  13  15
ATOM     15  C   UNL     1       1.857   7.655  20.081  0.00  0.00    +0.000 A 
ATOM     16  C   UNL     1       0.954   7.929  21.116  0.00  0.00    +0.000 A 
ATOM     17  C   UNL     1       0.063   8.999  21.020  0.00  0.00    +0.000 A 
ATOM     18  C   UNL     1       0.082   9.814  19.892  0.00  0.00    +0.000 A 
ATOM     19 BR   UNL     1      -1.119  11.269  19.774  0.00  0.00    +0.000 Br
ATOM     20  C   UNL     1       0.986   9.574  18.861  0.00  0.00    +0.000 A 
ATOM     21  C   UNL     1       1.878   8.502  18.961  0.00  0.00    +0.000 A 
ATOM     22 CL   UNL     1       2.983   8.232  17.659  0.00  0.00    +0.000 Cl
ENDBRANCH  13  15
ENDBRANCH   2  13
TORSDOF 3
ENDMDL
MODEL 3
REMARK VINA RESULT:      -6.6      5.269      7.282
REMARK  Name = 
REMARK  3 active torsions:
REMARK  status: ('A' for Active; 'I' for Inactive)
REMARK    1  A    between atoms: C_2  and  N_3
REMARK    2  A    between atoms: C_2  and  N_12
REMARK    3  A    between atoms: N_3  and  C_4
REMARK                            x       y       z     vdW  Elec       q    Type
REMARK                         _______ _______ _______ _____ _____    ______ ____
ROOT
ATOM      1  S   UNL     1       8.055   5.724  19.632  0.00  0.00    +0.000 S 
ATOM      2  C   UNL     1       6.665   5.741  18.674  0.00  0.00    +0.000 C 
ENDROOT
BRANCH   2   3
ATOM      3  N   UNL     1       6.657   5.497  17.289  0.00  0.00    +0.000 N 
ATOM      4  C   UNL     1       6.136   6.467  16.312  0.00  0.00    +0.000 C 
ATOM      5  C   UNL     1       5.304   5.780  15.234  0.00  0.00    +0.000 C 
ATOM      6  C   UNL     1       6.043   4.599  14.602  0.00  0.00    +0.000 C 
ATOM      7  C   UNL     1       6.632   3.671  15.661  0.00  0.00    +0.000 C 
ATOM      8  C   UNL     1       7.471   4.444  16.664  0.00  0.00    +0.000 C 
ATOM      9  O   UNL     1       7.092   5.089  13.747  0.00  0.00    +0.000 OA
ATOM     10  C   UNL     1       7.042   4.239  12.600  0.00  0.00    +0.000 C 
ATOM     11  C   UNL     1       5.577   3.932  12.466  0.00  0.00    +0.000 C 
ATOM     12  O   UNL     1       5.116   3.830  13.812  0.00  0.00    +0.000 OA
ENDBRANCH   2   3
BRANCH   2  13
ATOM     13  N   UNL     1       5.388   5.893  19.200  0.00  0.00    +0.000 N 
ATOM     14  H   UNL     1       5.146   6.859  19.406  0.00  0.00    +0.000 HD
BRANCH  13  15
ATOM     15  C   UNL     1       4.285   5.008  19.075  0.00  0.00    +0.000 A 
ATOM     16  C   UNL     1       4.388   3.671  19.477  0.00  0.00    +0.000 A 
ATOM     17  C   UNL     1       3.288   2.815  19.397  0.00  0.00    +0.000 A 
ATOM     18  C   UNL     1       2.071   3.299  18.929  0.00  0.00    +0.000 A 
ATOM     19 BR   UNL     1       0.582   2.138  18.835  0.00  0.00    +0.000 Br
ATOM     20  C   UNL     1       1.938   4.630  18.544  0.00  0.00    +0.000 A 
ATOM     21  C   UNL     1       3.042   5.485  18.627  0.00  0.00    +0.000 A 
ATOM     22 CL   UNL     1       2.841   7.131  18.136  0.00  0.00    +0.000 Cl
ENDBRANCH  13  15
ENDBRANCH   2  13
TORSDOF 3
ENDMDL
MODEL 4
REMARK VINA RESULT:      -6.6      4.529      7.616
REMARK  Name = 
REMARK  3 active torsions:
REMARK  status: ('A' for Active; 'I' for Inactive)
REMARK    1  A    between atoms: C_2  and  N_3
REMARK    2  A    between atoms: C_2  and  N_12
REMARK    3  A    between atoms: N_3  and  C_4
REMARK                            x       y       z     vdW  Elec       q    Type
REMARK                         _______ _______ _______ _____ _____    ______ ____
ROOT
ATOM      1  S   UNL     1       1.573   5.514  20.639  0.00  0.00    +0.000 S 
ATOM      2  C   UNL     1       2.444   6.582  19.665  0.00  0.00    +0.000 C 
ENDROOT
BRANCH   2   3
ATOM      3  N   UNL     1       3.541   6.207  18.866  0.00  0.00    +0.000 N 
ATOM      4  C   UNL     1       4.138   7.103  17.862  0.00  0.00    +0.000 C 
ATOM      5  C   UNL     1       4.465   6.356  16.573  0.00  0.00    +0.000 C 
ATOM      6  C   UNL     1       5.278   5.087  16.834  0.00  0.00    +0.000 C 
ATOM      7  C   UNL     1       4.657   4.237  17.940  0.00  0.00    +0.000 C 
ATOM      8  C   UNL     1       4.404   5.062  19.190  0.00  0.00    +0.000 C 
ATOM      9  O   UNL     1       6.625   5.442  17.193  0.00  0.00    +0.000 OA
ATOM     10  C   UNL     1       7.439   4.489  16.507  0.00  0.00    +0.000 C 
ATOM     11  C   UNL     1       6.676   4.241  15.237  0.00  0.00    +0.000 C 
ATOM     12  O   UNL     1       5.307   4.290  15.635  0.00  0.00    +0.000 OA
ENDBRANCH   2   3
BRANCH   2  13
ATOM     13  N   UNL     1       2.081   7.911  19.488  0.00  0.00    +0.000 N 
ATOM     14  H   UNL     1       2.171   8.233  18.527  0.00  0.00    +0.000 HD
BRANCH  13  15
ATOM     15  C   UNL     1       1.231   8.696  20.310  0.00  0.00    +0.000 A 
ATOM     16  C   UNL     1       1.296   8.603  21.705  0.00  0.00    +0.000 A 
ATOM     17  C   UNL     1       0.493   9.411  22.512  0.00  0.00    +0.000 A 
ATOM     18  C   UNL     1      -0.371  10.331  21.926  0.00  0.00    +0.000 A 
ATOM     19 BR   UNL     1      -1.446  11.430  23.024  0.00  0.00    +0.000 Br
ATOM     20  C   UNL     1      -0.436  10.457  20.541  0.00  0.00    +0.000 A 
ATOM     21  C   UNL     1       0.371   9.647  19.736  0.00  0.00    +0.000 A 
ATOM     22 CL   UNL     1       0.259   9.827  18.019  0.00  0.00    +0.000 Cl
ENDBRANCH  13  15
ENDBRANCH   2  13
TORSDOF 3
ENDMDL
MODEL 5
REMARK VINA RESULT:      -6.5      4.043      6.938
REMARK  Name = 
REMARK  3 active torsions:
REMARK  status: ('A' for Active; 'I' for Inactive)
REMARK    1  A    between atoms: C_2  and  N_3
REMARK    2  A    between atoms: C_2  and  N_12
REMARK    3  A    between atoms: N_3  and  C_4
REMARK                            x       y       z     vdW  Elec       q    Type
REMARK                         _______ _______ _______ _____ _____    ______ ____
ROOT
ATOM      1  S   UNL     1       1.390   4.692  20.353  0.00  0.00    +0.000 S 
ATOM      2  C   UNL     1       2.577   5.775  19.838  0.00  0.00    +0.000 C 
ENDROOT
BRANCH   2   3
ATOM      3  N   UNL     1       3.572   5.465  18.893  0.00  0.00    +0.000 N 
ATOM      4  C   UNL     1       4.811   6.249  18.754  0.00  0.00    +0.000 C 
ATOM      5  C   UNL     1       5.165   6.476  17.288  0.00  0.00    +0.000 C 
ATOM      6  C   UNL     1       5.162   5.172  16.487  0.00  0.00    +0.000 C 
ATOM      7  C   UNL     1       3.891   4.362  16.732  0.00  0.00    +0.000 C 
ATOM      8  C   UNL     1       3.647   4.161  18.218  0.00  0.00    +0.000 C 
ATOM      9  O   UNL     1       6.315   4.387  16.840  0.00  0.00    +0.000 OA
ATOM     10  C   UNL     1       6.774   3.851  15.598  0.00  0.00    +0.000 C 
ATOM     11  C   UNL     1       6.455   4.943  14.616  0.00  0.00    +0.000 C 
ATOM     12  O   UNL     1       5.219   5.482  15.081  0.00  0.00    +0.000 OA
ENDBRANCH   2   3
BRANCH   2  13
ATOM     13  N   UNL     1       2.605   7.108  20.230  0.00  0.00    +0.000 N 
ATOM     14  H   UNL     1       3.486   7.389  20.652  0.00  0.00    +0.000 HD
BRANCH  13  15
ATOM     15  C   UNL     1       1.800   8.173  19.747  0.00  0.00    +0.000 A 
ATOM     16  C   UNL     1       1.711   8.440  18.376  0.00  0.00    +0.000 A 
ATOM     17  C   UNL     1       0.882   9.458  17.900  0.00  0.00    +0.000 A 
ATOM     18  C   UNL     1       0.122  10.204  18.795  0.00  0.00    +0.000 A 
ATOM     19 BR   UNL     1      -1.008  11.572  18.144  0.00  0.00    +0.000 Br
ATOM     20  C   UNL     1       0.177   9.941  20.162  0.00  0.00    +0.000 A 
ATOM     21  C   UNL     1       1.008   8.920  20.634  0.00  0.00    +0.000 A 
ATOM     22 CL   UNL     1       1.055   8.625  22.338  0.00  0.00    +0.000 Cl
ENDBRANCH  13  15
ENDBRANCH   2  13
TORSDOF 3
ENDMDL
MODEL 6
REMARK VINA RESULT:      -6.5      4.162      7.161
REMARK  Name = 
REMARK  3 active torsions:
REMARK  status: ('A' for Active; 'I' for Inactive)
REMARK    1  A    between atoms: C_2  and  N_3
REMARK    2  A    between atoms: C_2  and  N_12
REMARK    3  A    between atoms: N_3  and  C_4
REMARK                            x       y       z     vdW  Elec       q    Type
REMARK                         _______ _______ _______ _____ _____    ______ ____
ROOT
ATOM      1  S   UNL     1       1.445   5.271  20.515  0.00  0.00    +0.000 S 
ATOM      2  C   UNL     1       2.463   6.296  19.642  0.00  0.00    +0.000 C 
ENDROOT
BRANCH   2   3
ATOM      3  N   UNL     1       3.265   5.881  18.563  0.00  0.00    +0.000 N 
ATOM      4  C   UNL     1       3.215   4.516  18.012  0.00  0.00    +0.000 C 
ATOM      5  C   UNL     1       4.613   3.987  17.710  0.00  0.00    +0.000 C 
ATOM      6  C   UNL     1       5.430   4.967  16.866  0.00  0.00    +0.000 C 
ATOM      7  C   UNL     1       5.379   6.382  17.440  0.00  0.00    +0.000 C 
ATOM      8  C   UNL     1       3.946   6.829  17.671  0.00  0.00    +0.000 C 
ATOM      9  O   UNL     1       4.934   4.972  15.516  0.00  0.00    +0.000 OA
ATOM     10  C   UNL     1       6.109   5.021  14.705  0.00  0.00    +0.000 C 
ATOM     11  C   UNL     1       7.105   4.226  15.500  0.00  0.00    +0.000 C 
ATOM     12  O   UNL     1       6.808   4.548  16.858  0.00  0.00    +0.000 OA
ENDBRANCH   2   3
BRANCH   2  13
ATOM     13  N   UNL     1       2.512   7.668  19.852  0.00  0.00    +0.000 N 
ATOM     14  H   UNL     1       3.459   8.037  19.908  0.00  0.00    +0.000 HD
BRANCH  13  15
ATOM     15  C   UNL     1       1.506   8.628  19.566  0.00  0.00    +0.000 A 
ATOM     16  C   UNL     1       1.207   8.983  18.246  0.00  0.00    +0.000 A 
ATOM     17  C   UNL     1       0.185   9.892  17.965  0.00  0.00    +0.000 A 
ATOM     18  C   UNL     1      -0.556  10.440  19.007  0.00  0.00    +0.000 A 
ATOM     19 BR   UNL     1      -1.947  11.660  18.621  0.00  0.00    +0.000 Br
ATOM     20  C   UNL     1      -0.291  10.085  20.328  0.00  0.00    +0.000 A 
ATOM     21  C   UNL     1       0.733   9.172  20.604  0.00  0.00    +0.000 A 
ATOM     22 CL   UNL     1       1.036   8.759  22.256  0.00  0.00    +0.000 Cl
ENDBRANCH  13  15
ENDBRANCH   2  13
TORSDOF 3
ENDMDL
MODEL 7
REMARK VINA RESULT:      -6.5      4.064      5.450
REMARK  Name = 
REMARK  3 active torsions:
REMARK  status: ('A' for Active; 'I' for Inactive)
REMARK    1  A    between atoms: C_2  and  N_3
REMARK    2  A    between atoms: C_2  and  N_12
REMARK    3  A    between atoms: N_3  and  C_4
REMARK                            x       y       z     vdW  Elec       q    Type
REMARK                         _______ _______ _______ _____ _____    ______ ____
ROOT
ATOM      1  S   UNL     1      -1.676  10.534  18.133  0.00  0.00    +0.000 S 
ATOM      2  C   UNL     1      -0.773  11.024  19.472  0.00  0.00    +0.000 C 
ENDROOT
BRANCH   2   3
ATOM      3  N   UNL     1      -1.314  11.684  20.590  0.00  0.00    +0.000 N 
ATOM      4  C   UNL     1      -0.670  11.667  21.914  0.00  0.00    +0.000 C 
ATOM      5  C   UNL     1      -1.692  11.466  23.028  0.00  0.00    +0.000 C 
ATOM      6  C   UNL     1      -2.861  12.448  22.920  0.00  0.00    +0.000 C 
ATOM      7  C   UNL     1      -3.437  12.483  21.506  0.00  0.00    +0.000 C 
ATOM      8  C   UNL     1      -2.348  12.723  20.476  0.00  0.00    +0.000 C 
ATOM      9  O   UNL     1      -2.423  13.764  23.300  0.00  0.00    +0.000 OA
ATOM     10  C   UNL     1      -3.502  14.289  24.075  0.00  0.00    +0.000 C 
ATOM     11  C   UNL     1      -4.042  13.072  24.773  0.00  0.00    +0.000 C 
ATOM     12  O   UNL     1      -3.912  12.028  23.811  0.00  0.00    +0.000 OA
ENDBRANCH   2   3
BRANCH   2  13
ATOM     13  N   UNL     1       0.573  10.718  19.628  0.00  0.00    +0.000 N 
ATOM     14  H   UNL     1       1.029  11.252  20.363  0.00  0.00    +0.000 HD
BRANCH  13  15
ATOM     15  C   UNL     1       1.245   9.528  19.241  0.00  0.00    +0.000 A 
ATOM     16  C   UNL     1       1.797   9.400  17.961  0.00  0.00    +0.000 A 
ATOM     17  C   UNL     1       2.498   8.248  17.599  0.00  0.00    +0.000 A 
ATOM     18  C   UNL     1       2.665   7.223  18.524  0.00  0.00    +0.000 A 
ATOM     19 BR   UNL     1       3.626   5.671  18.032  0.00  0.00    +0.000 Br
ATOM     20  C   UNL     1       2.143   7.338  19.810  0.00  0.00    +0.000 A 
ATOM     21  C   UNL     1       1.443   8.494  20.170  0.00  0.00    +0.000 A 
ATOM     22 CL   UNL     1       0.805   8.599  21.774  0.00  0.00    +0.000 Cl
ENDBRANCH  13  15
ENDBRANCH   2  13
TORSDOF 3
ENDMDL
MODEL 8
REMARK VINA RESULT:      -6.4      4.605      7.459
REMARK  Name = 
REMARK  3 active torsions:
REMARK  status: ('A' for Active; 'I' for Inactive)
REMARK    1  A    between atoms: C_2  and  N_3
REMARK    2  A    between atoms: C_2  and  N_12
REMARK    3  A    between atoms: N_3  and  C_4
REMARK                            x       y       z     vdW  Elec       q    Type
REMARK                         _______ _______ _______ _____ _____    ______ ____
ROOT
ATOM      1  S   UNL     1       1.035   9.110  21.464  0.00  0.00    +0.000 S 
ATOM      2  C   UNL     1       1.436   8.988  19.829  0.00  0.00    +0.000 C 
ENDROOT
BRANCH   2   3
ATOM      3  N   UNL     1       2.045   7.861  19.247  0.00  0.00    +0.000 N 
ATOM      4  C   UNL     1       2.040   6.534  19.885  0.00  0.00    +0.000 C 
ATOM      5  C   UNL     1       3.399   5.852  19.764  0.00  0.00    +0.000 C 
ATOM      6  C   UNL     1       3.912   5.845  18.323  0.00  0.00    +0.000 C 
ATOM      7  C   UNL     1       3.819   7.230  17.685  0.00  0.00    +0.000 C 
ATOM      8  C   UNL     1       2.421   7.806  17.827  0.00  0.00    +0.000 C 
ATOM      9  O   UNL     1       3.157   4.900  17.546  0.00  0.00    +0.000 OA
ATOM     10  C   UNL     1       4.130   4.257  16.721  0.00  0.00    +0.000 C 
ATOM     11  C   UNL     1       5.350   4.224  17.598  0.00  0.00    +0.000 C 
ATOM     12  O   UNL     1       5.299   5.454  18.318  0.00  0.00    +0.000 OA
ENDBRANCH   2   3
BRANCH   2  13
ATOM     13  N   UNL     1       1.096   9.958  18.893  0.00  0.00    +0.000 N 
ATOM     14  H   UNL     1       1.842  10.164  18.233  0.00  0.00    +0.000 HD
BRANCH  13  15
ATOM     15  C   UNL     1      -0.204  10.346  18.477  0.00  0.00    +0.000 A 
ATOM     16  C   UNL     1      -0.931   9.563  17.573  0.00  0.00    +0.000 A 
ATOM     17  C   UNL     1      -2.228   9.922  17.201  0.00  0.00    +0.000 A 
ATOM     18  C   UNL     1      -2.812  11.062  17.746  0.00  0.00    +0.000 A 
ATOM     19 BR   UNL     1      -4.572  11.536  17.249  0.00  0.00    +0.000 Br
ATOM     20  C   UNL     1      -2.115  11.844  18.664  0.00  0.00    +0.000 A 
ATOM     21  C   UNL     1      -0.817  11.479  19.035  0.00  0.00    +0.000 A 
ATOM     22 CL   UNL     1       0.020  12.478  20.173  0.00  0.00    +0.000 Cl
ENDBRANCH  13  15
ENDBRANCH   2  13
TORSDOF 3
ENDMDL
MODEL 9
REMARK VINA RESULT:      -6.4      4.777      5.865
REMARK  Name = 
REMARK  3 active torsions:
REMARK  status: ('A' for Active; 'I' for Inactive)
REMARK    1  A    between atoms: C_2  and  N_3
REMARK    2  A    between atoms: C_2  and  N_12
REMARK    3  A    between atoms: N_3  and  C_4
REMARK                            x       y       z     vdW  Elec       q    Type
REMARK                         _______ _______ _______ _____ _____    ______ ____
ROOT
ATOM      1  S   UNL     1       7.520   7.851  17.278  0.00  0.00    +0.000 S 
ATOM      2  C   UNL     1       6.956   6.265  17.161  0.00  0.00    +0.000 C 
ENDROOT
BRANCH   2   3
ATOM      3  N   UNL     1       5.838   5.770  17.858  0.00  0.00    +0.000 N 
ATOM      4  C   UNL     1       5.955   4.841  18.994  0.00  0.00    +0.000 C 
ATOM      5  C   UNL     1       4.906   3.736  18.920  0.00  0.00    +0.000 C 
ATOM      6  C   UNL     1       3.496   4.295  18.718  0.00  0.00    +0.000 C 
ATOM      7  C   UNL     1       3.451   5.313  17.581  0.00  0.00    +0.000 C 
ATOM      8  C   UNL     1       4.508   6.388  17.765  0.00  0.00    +0.000 C 
ATOM      9  O   UNL     1       3.040   4.907  19.937  0.00  0.00    +0.000 OA
ATOM     10  C   UNL     1       1.670   4.516  20.042  0.00  0.00    +0.000 C 
ATOM     11  C   UNL     1       1.663   3.138  19.441  0.00  0.00    +0.000 C 
ATOM     12  O   UNL     1       2.606   3.216  18.375  0.00  0.00    +0.000 OA
ENDBRANCH   2   3
BRANCH   2  13
ATOM     13  N   UNL     1       7.490   5.337  16.275  0.00  0.00    +0.000 N 
ATOM     14  H   UNL     1       8.265   4.804  16.662  0.00  0.00    +0.000 HD
BRANCH  13  15
ATOM     15  C   UNL     1       6.861   4.752  15.145  0.00  0.00    +0.000 A 
ATOM     16  C   UNL     1       5.670   4.028  15.280  0.00  0.00    +0.000 A 
ATOM     17  C   UNL     1       5.029   3.494  14.161  0.00  0.00    +0.000 A 
ATOM     18  C   UNL     1       5.568   3.697  12.895  0.00  0.00    +0.000 A 
ATOM     19 BR   UNL     1       4.688   2.982  11.382  0.00  0.00    +0.000 Br
ATOM     20  C   UNL     1       6.740   4.432  12.733  0.00  0.00    +0.000 A 
ATOM     21  C   UNL     1       7.379   4.967  13.857  0.00  0.00    +0.000 A 
ATOM     22 CL   UNL     1       8.834   5.870  13.618  0.00  0.00    +0.000 Cl
ENDBRANCH  13  15
ENDBRANCH   2  13
TORSDOF 3
ENDMDL
