MODEL 1
REMARK VINA RESULT:      -8.6      0.000      0.000
REMARK  Name = 
REMARK  3 active torsions:
REMARK  status: ('A' for Active; 'I' for Inactive)
REMARK    1  A    between atoms: C_1  and  N_2
REMARK    2  A    between atoms: N_6  and  N_7
REMARK    3  A    between atoms: C_8  and  C_9
REMARK                            x       y       z     vdW  Elec       q    Type
REMARK                         _______ _______ _______ _____ _____    ______ ____
ROOT
ATOM      1  N   UNL     1       2.182   7.388  19.572  0.00  0.00    +0.000 NA
ATOM      2  C   UNL     1       2.623   6.178  19.704  0.00  0.00    +0.000 C 
ENDROOT
BRANCH   1   8
ATOM      3  C   UNL     1       0.500  12.265  18.661  0.00  0.00    +0.000 C 
ATOM      4  N   UNL     1       0.326  11.045  19.405  0.00  0.00    +0.000 N 
ATOM      5  C   UNL     1       1.018   9.877  19.114  0.00  0.00    +0.000 C 
ATOM      6  O   UNL     1       1.671   9.636  18.121  0.00  0.00    +0.000 OA
ATOM      7  C   UNL     1       0.864   8.992  20.374  0.00  0.00    +0.000 C 
ATOM      8  N   UNL     1       1.415   7.843  20.634  0.00  0.00    +0.000 NA
ATOM      9  C   UNL     1       0.034   9.763  21.302  0.00  0.00    +0.000 A 
ATOM     10  C   UNL     1      -0.313   9.508  22.616  0.00  0.00    +0.000 A 
ATOM     11  C   UNL     1      -0.956  10.532  23.323  0.00  0.00    +0.000 A 
ATOM     12  C   UNL     1      -1.251  11.762  22.702  0.00  0.00    +0.000 A 
ATOM     13  C   UNL     1      -0.904  11.993  21.367  0.00  0.00    +0.000 A 
ATOM     14  C   UNL     1      -0.242  10.985  20.686  0.00  0.00    +0.000 A 
ENDBRANCH   1   8
BRANCH   2  15
ATOM     15  C   UNL     1       3.457   5.521  18.670  0.00  0.00    +0.000 A 
ATOM     16  C   UNL     1       3.670   4.198  18.741  0.00  0.00    +0.000 A 
ATOM     17  O   UNL     1       4.410   3.437  17.869  0.00  0.00    +0.000 OA
ATOM     18  C   UNL     1       4.971   4.074  16.793  0.00  0.00    +0.000 A 
ATOM     19  C   UNL     1       5.684   3.278  15.891  0.00  0.00    +0.000 A 
ATOM     20  C   UNL     1       6.269   3.864  14.765  0.00  0.00    +0.000 A 
ATOM     21  C   UNL     1       6.148   5.237  14.545  0.00  0.00    +0.000 A 
ATOM     22  C   UNL     1       5.439   6.032  15.454  0.00  0.00    +0.000 A 
ATOM     23  C   UNL     1       4.847   5.446  16.578  0.00  0.00    +0.000 A 
ATOM     24  C   UNL     1       4.073   6.261  17.545  0.00  0.00    +0.000 A 
ATOM     25  O   UNL     1       3.948   7.469  17.412  0.00  0.00    +0.000 OA
ENDBRANCH   2  15
TORSDOF 2
ENDMDL
MODEL 2
REMARK VINA RESULT:      -8.6      1.673      8.875
REMARK  Name = 
REMARK  3 active torsions:
REMARK  status: ('A' for Active; 'I' for Inactive)
REMARK    1  A    between atoms: C_1  and  N_2
REMARK    2  A    between atoms: N_6  and  N_7
REMARK    3  A    between atoms: C_8  and  C_9
REMARK                            x       y       z     vdW  Elec       q    Type
REMARK                         _______ _______ _______ _____ _____    ______ ____
ROOT
ATOM      1  N   UNL     1       2.489   7.857  18.838  0.00  0.00    +0.000 NA
ATOM      2  C   UNL     1       1.844   8.975  18.728  0.00  0.00    +0.000 C 
ENDROOT
BRANCH   1   8
ATOM      3  C   UNL     1       4.394   3.003  19.338  0.00  0.00    +0.000 C 
ATOM      4  N   UNL     1       4.068   4.090  18.450  0.00  0.00    +0.000 N 
ATOM      5  C   UNL     1       3.361   5.213  18.858  0.00  0.00    +0.000 C 
ATOM      6  O   UNL     1       2.747   5.360  19.893  0.00  0.00    +0.000 OA
ATOM      7  C   UNL     1       3.611   6.270  17.756  0.00  0.00    +0.000 C 
ATOM      8  N   UNL     1       3.247   7.518  17.727  0.00  0.00    +0.000 NA
ATOM      9  C   UNL     1       4.457   5.610  16.758  0.00  0.00    +0.000 A 
ATOM     10  C   UNL     1       5.081   6.123  15.635  0.00  0.00    +0.000 A 
ATOM     11  C   UNL     1       6.000   5.296  14.976  0.00  0.00    +0.000 A 
ATOM     12  C   UNL     1       6.255   3.990  15.437  0.00  0.00    +0.000 A 
ATOM     13  C   UNL     1       5.602   3.487  16.567  0.00  0.00    +0.000 A 
ATOM     14  C   UNL     1       4.717   4.322  17.229  0.00  0.00    +0.000 A 
ENDBRANCH   1   8
BRANCH   2  15
ATOM     15  C   UNL     1       0.978   9.500  19.812  0.00  0.00    +0.000 A 
ATOM     16  C   UNL     1       1.056   8.957  21.036  0.00  0.00    +0.000 A 
ATOM     17  O   UNL     1       0.333   9.323  22.144  0.00  0.00    +0.000 OA
ATOM     18  C   UNL     1      -0.543  10.370  22.011  0.00  0.00    +0.000 A 
ATOM     19  C   UNL     1      -1.239  10.759  23.160  0.00  0.00    +0.000 A 
ATOM     20  C   UNL     1      -2.136  11.829  23.094  0.00  0.00    +0.000 A 
ATOM     21  C   UNL     1      -2.342  12.500  21.888  0.00  0.00    +0.000 A 
ATOM     22  C   UNL     1      -1.648  12.103  20.738  0.00  0.00    +0.000 A 
ATOM     23  C   UNL     1      -0.744  11.037  20.803  0.00  0.00    +0.000 A 
ATOM     24  C   UNL     1       0.019  10.610  19.606  0.00  0.00    +0.000 A 
ATOM     25  O   UNL     1      -0.132  11.149  18.522  0.00  0.00    +0.000 OA
ENDBRANCH   2  15
TORSDOF 2
ENDMDL
MODEL 3
REMARK VINA RESULT:      -8.4      6.576      8.128
REMARK  Name = 
REMARK  3 active torsions:
REMARK  status: ('A' for Active; 'I' for Inactive)
REMARK    1  A    between atoms: C_1  and  N_2
REMARK    2  A    between atoms: N_6  and  N_7
REMARK    3  A    between atoms: C_8  and  C_9
REMARK                            x       y       z     vdW  Elec       q    Type
REMARK                         _______ _______ _______ _____ _____    ______ ____
ROOT
ATOM      1  N   UNL     1       8.387   9.170  18.254  0.00  0.00    +0.000 NA
ATOM      2  C   UNL     1       8.118   8.192  17.450  0.00  0.00    +0.000 C 
ENDROOT
BRANCH   1   8
ATOM      3  C   UNL     1       9.698  12.682  21.913  0.00  0.00    +0.000 C 
ATOM      4  N   UNL     1       9.993  12.110  20.625  0.00  0.00    +0.000 N 
ATOM      5  C   UNL     1       9.361  10.972  20.141  0.00  0.00    +0.000 C 
ATOM      6  O   UNL     1       8.668  10.195  20.763  0.00  0.00    +0.000 OA
ATOM      7  C   UNL     1       9.644  10.969  18.620  0.00  0.00    +0.000 C 
ATOM      8  N   UNL     1       9.184  10.165  17.708  0.00  0.00    +0.000 NA
ATOM      9  C   UNL     1      10.476  12.149  18.369  0.00  0.00    +0.000 A 
ATOM     10  C   UNL     1      10.914  12.697  17.177  0.00  0.00    +0.000 A 
ATOM     11  C   UNL     1      11.530  13.954  17.235  0.00  0.00    +0.000 A 
ATOM     12  C   UNL     1      11.710  14.613  18.466  0.00  0.00    +0.000 A 
ATOM     13  C   UNL     1      11.272  14.033  19.661  0.00  0.00    +0.000 A 
ATOM     14  C   UNL     1      10.637  12.804  19.591  0.00  0.00    +0.000 A 
ENDBRANCH   1   8
BRANCH   2  15
ATOM     15  C   UNL     1       7.284   7.036  17.858  0.00  0.00    +0.000 A 
ATOM     16  C   UNL     1       7.631   6.327  18.943  0.00  0.00    +0.000 A 
ATOM     17  O   UNL     1       6.972   5.237  19.456  0.00  0.00    +0.000 OA
ATOM     18  C   UNL     1       5.823   4.837  18.825  0.00  0.00    +0.000 A 
ATOM     19  C   UNL     1       5.139   3.753  19.386  0.00  0.00    +0.000 A 
ATOM     20  C   UNL     1       3.953   3.305  18.798  0.00  0.00    +0.000 A 
ATOM     21  C   UNL     1       3.456   3.931  17.653  0.00  0.00    +0.000 A 
ATOM     22  C   UNL     1       4.146   5.012  17.091  0.00  0.00    +0.000 A 
ATOM     23  C   UNL     1       5.331   5.466  17.682  0.00  0.00    +0.000 A 
ATOM     24  C   UNL     1       6.070   6.621  17.119  0.00  0.00    +0.000 A 
ATOM     25  O   UNL     1       5.692   7.197  16.111  0.00  0.00    +0.000 OA
ENDBRANCH   2  15
TORSDOF 2
ENDMDL
MODEL 4
REMARK VINA RESULT:      -8.3      1.860      8.941
REMARK  Name = 
REMARK  3 active torsions:
REMARK  status: ('A' for Active; 'I' for Inactive)
REMARK    1  A    between atoms: C_1  and  N_2
REMARK    2  A    between atoms: N_6  and  N_7
REMARK    3  A    between atoms: C_8  and  C_9
REMARK                            x       y       z     vdW  Elec       q    Type
REMARK                         _______ _______ _______ _____ _____    ______ ____
ROOT
ATOM      1  N   UNL     1       1.968   8.517  19.099  0.00  0.00    +0.000 NA
ATOM      2  C   UNL     1       1.526   9.728  18.974  0.00  0.00    +0.000 C 
ENDROOT
BRANCH   1   8
ATOM      3  C   UNL     1       3.304   3.494  19.749  0.00  0.00    +0.000 C 
ATOM      4  N   UNL     1       3.203   4.612  18.847  0.00  0.00    +0.000 N 
ATOM      5  C   UNL     1       2.564   5.798  19.182  0.00  0.00    +0.000 C 
ATOM      6  O   UNL     1       1.841   6.001  20.134  0.00  0.00    +0.000 OA
ATOM      7  C   UNL     1       3.057   6.830  18.140  0.00  0.00    +0.000 C 
ATOM      8  N   UNL     1       2.824   8.109  18.087  0.00  0.00    +0.000 NA
ATOM      9  C   UNL     1       3.954   6.094  17.246  0.00  0.00    +0.000 A 
ATOM     10  C   UNL     1       4.764   6.547  16.220  0.00  0.00    +0.000 A 
ATOM     11  C   UNL     1       5.674   5.636  15.668  0.00  0.00    +0.000 A 
ATOM     12  C   UNL     1       5.737   4.308  16.134  0.00  0.00    +0.000 A 
ATOM     13  C   UNL     1       4.898   3.868  17.163  0.00  0.00    +0.000 A 
ATOM     14  C   UNL     1       4.023   4.784  17.722  0.00  0.00    +0.000 A 
ENDBRANCH   1   8
BRANCH   2  15
ATOM     15  C   UNL     1       0.596  10.337  19.956  0.00  0.00    +0.000 A 
ATOM     16  C   UNL     1       0.847  10.205  21.266  0.00  0.00    +0.000 A 
ATOM     17  O   UNL     1       0.096  10.707  22.301  0.00  0.00    +0.000 OA
ATOM     18  C   UNL     1      -1.013  11.446  21.978  0.00  0.00    +0.000 A 
ATOM     19  C   UNL     1      -1.742  11.986  23.041  0.00  0.00    +0.000 A 
ATOM     20  C   UNL     1      -2.875  12.761  22.778  0.00  0.00    +0.000 A 
ATOM     21  C   UNL     1      -3.280  12.990  21.462  0.00  0.00    +0.000 A 
ATOM     22  C   UNL     1      -2.551  12.442  20.400  0.00  0.00    +0.000 A 
ATOM     23  C   UNL     1      -1.413  11.670  20.661  0.00  0.00    +0.000 A 
ATOM     24  C   UNL     1      -0.610  11.096  19.554  0.00  0.00    +0.000 A 
ATOM     25  O   UNL     1      -0.926  11.249  18.385  0.00  0.00    +0.000 OA
ENDBRANCH   2  15
TORSDOF 2
ENDMDL
MODEL 5
REMARK VINA RESULT:      -8.3      0.933      1.047
REMARK  Name = 
REMARK  3 active torsions:
REMARK  status: ('A' for Active; 'I' for Inactive)
REMARK    1  A    between atoms: C_1  and  N_2
REMARK    2  A    between atoms: N_6  and  N_7
REMARK    3  A    between atoms: C_8  and  C_9
REMARK                            x       y       z     vdW  Elec       q    Type
REMARK                         _______ _______ _______ _____ _____    ______ ____
ROOT
ATOM      1  N   UNL     1       1.833   8.206  20.044  0.00  0.00    +0.000 NA
ATOM      2  C   UNL     1       2.053   6.936  20.175  0.00  0.00    +0.000 C 
ENDROOT
BRANCH   1   8
ATOM      3  C   UNL     1      -0.787  12.356  18.215  0.00  0.00    +0.000 C 
ATOM      4  N   UNL     1      -0.688  11.338  19.229  0.00  0.00    +0.000 N 
ATOM      5  C   UNL     1       0.197  10.273  19.146  0.00  0.00    +0.000 C 
ATOM      6  O   UNL     1       0.833   9.917  18.177  0.00  0.00    +0.000 OA
ATOM      7  C   UNL     1       0.277   9.702  20.582  0.00  0.00    +0.000 C 
ATOM      8  N   UNL     1       1.048   8.761  21.043  0.00  0.00    +0.000 NA
ATOM      9  C   UNL     1      -0.637  10.518  21.385  0.00  0.00    +0.000 A 
ATOM     10  C   UNL     1      -0.863  10.529  22.750  0.00  0.00    +0.000 A 
ATOM     11  C   UNL     1      -1.652  11.566  23.263  0.00  0.00    +0.000 A 
ATOM     12  C   UNL     1      -2.206  12.541  22.411  0.00  0.00    +0.000 A 
ATOM     13  C   UNL     1      -1.977  12.501  21.032  0.00  0.00    +0.000 A 
ATOM     14  C   UNL     1      -1.170  11.490  20.537  0.00  0.00    +0.000 A 
ENDBRANCH   1   8
BRANCH   2  15
ATOM     15  C   UNL     1       2.867   6.168  19.202  0.00  0.00    +0.000 A 
ATOM     16  C   UNL     1       3.010   4.845  19.367  0.00  0.00    +0.000 A 
ATOM     17  O   UNL     1       3.723   3.989  18.563  0.00  0.00    +0.000 OA
ATOM     18  C   UNL     1       4.332   4.522  17.456  0.00  0.00    +0.000 A 
ATOM     19  C   UNL     1       5.016   3.631  16.623  0.00  0.00    +0.000 A 
ATOM     20  C   UNL     1       5.647   4.108  15.471  0.00  0.00    +0.000 A 
ATOM     21  C   UNL     1       5.600   5.467  15.156  0.00  0.00    +0.000 A 
ATOM     22  C   UNL     1       4.919   6.357  15.996  0.00  0.00    +0.000 A 
ATOM     23  C   UNL     1       4.282   5.880  17.147  0.00  0.00    +0.000 A 
ATOM     24  C   UNL     1       3.536   6.798  18.041  0.00  0.00    +0.000 A 
ATOM     25  O   UNL     1       3.475   7.998  17.825  0.00  0.00    +0.000 OA
ENDBRANCH   2  15
TORSDOF 2
ENDMDL
MODEL 6
REMARK VINA RESULT:      -8.2      1.798      8.889
REMARK  Name = 
REMARK  3 active torsions:
REMARK  status: ('A' for Active; 'I' for Inactive)
REMARK    1  A    between atoms: C_1  and  N_2
REMARK    2  A    between atoms: N_6  and  N_7
REMARK    3  A    between atoms: C_8  and  C_9
REMARK                            x       y       z     vdW  Elec       q    Type
REMARK                         _______ _______ _______ _____ _____    ______ ____
ROOT
ATOM      1  N   UNL     1       1.924   8.674  18.618  0.00  0.00    +0.000 NA
ATOM      2  C   UNL     1       1.495   9.866  18.351  0.00  0.00    +0.000 C 
ENDROOT
BRANCH   1   8
ATOM      3  C   UNL     1       3.404   3.836  19.976  0.00  0.00    +0.000 C 
ATOM      4  N   UNL     1       3.325   4.830  18.937  0.00  0.00    +0.000 N 
ATOM      5  C   UNL     1       2.618   6.017  19.079  0.00  0.00    +0.000 C 
ATOM      6  O   UNL     1       1.822   6.299  19.948  0.00  0.00    +0.000 OA
ATOM      7  C   UNL     1       3.143   6.937  17.951  0.00  0.00    +0.000 C 
ATOM      8  N   UNL     1       2.866   8.187  17.724  0.00  0.00    +0.000 NA
ATOM      9  C   UNL     1       4.130   6.141  17.217  0.00  0.00    +0.000 A 
ATOM     10  C   UNL     1       4.993   6.503  16.198  0.00  0.00    +0.000 A 
ATOM     11  C   UNL     1       5.974   5.575  15.825  0.00  0.00    +0.000 A 
ATOM     12  C   UNL     1       6.055   4.319  16.456  0.00  0.00    +0.000 A 
ATOM     13  C   UNL     1       5.163   3.968  17.474  0.00  0.00    +0.000 A 
ATOM     14  C   UNL     1       4.215   4.903  17.856  0.00  0.00    +0.000 A 
ENDBRANCH   1   8
BRANCH   2  15
ATOM     15  C   UNL     1       0.483  10.551  19.192  0.00  0.00    +0.000 A 
ATOM     16  C   UNL     1      -0.387  11.393  18.617  0.00  0.00    +0.000 A 
ATOM     17  O   UNL     1      -1.382  12.102  19.245  0.00  0.00    +0.000 OA
ATOM     18  C   UNL     1      -1.534  11.919  20.595  0.00  0.00    +0.000 A 
ATOM     19  C   UNL     1      -2.579  12.613  21.212  0.00  0.00    +0.000 A 
ATOM     20  C   UNL     1      -2.796  12.458  22.584  0.00  0.00    +0.000 A 
ATOM     21  C   UNL     1      -1.970  11.621  23.336  0.00  0.00    +0.000 A 
ATOM     22  C   UNL     1      -0.921  10.932  22.716  0.00  0.00    +0.000 A 
ATOM     23  C   UNL     1      -0.706  11.081  21.341  0.00  0.00    +0.000 A 
ATOM     24  C   UNL     1       0.385  10.346  20.656  0.00  0.00    +0.000 A 
ATOM     25  O   UNL     1       1.148   9.613  21.265  0.00  0.00    +0.000 OA
ENDBRANCH   2  15
TORSDOF 2
ENDMDL
MODEL 7
REMARK VINA RESULT:      -8.1      1.578      8.829
REMARK  Name = 
REMARK  3 active torsions:
REMARK  status: ('A' for Active; 'I' for Inactive)
REMARK    1  A    between atoms: C_1  and  N_2
REMARK    2  A    between atoms: N_6  and  N_7
REMARK    3  A    between atoms: C_8  and  C_9
REMARK                            x       y       z     vdW  Elec       q    Type
REMARK                         _______ _______ _______ _____ _____    ______ ____
ROOT
ATOM      1  N   UNL     1       2.716   8.231  18.320  0.00  0.00    +0.000 NA
ATOM      2  C   UNL     1       1.990   9.260  18.019  0.00  0.00    +0.000 C 
ENDROOT
BRANCH   1   8
ATOM      3  C   UNL     1       4.362   3.378  19.403  0.00  0.00    +0.000 C 
ATOM      4  N   UNL     1       4.105   4.370  18.392  0.00  0.00    +0.000 N 
ATOM      5  C   UNL     1       3.450   5.566  18.656  0.00  0.00    +0.000 C 
ATOM      6  O   UNL     1       2.831   5.860  19.657  0.00  0.00    +0.000 OA
ATOM      7  C   UNL     1       3.769   6.477  17.447  0.00  0.00    +0.000 C 
ATOM      8  N   UNL     1       3.470   7.730  17.270  0.00  0.00    +0.000 NA
ATOM      9  C   UNL     1       4.594   5.667  16.547  0.00  0.00    +0.000 A 
ATOM     10  C   UNL     1       5.258   6.016  15.385  0.00  0.00    +0.000 A 
ATOM     11  C   UNL     1       6.143   5.076  14.842  0.00  0.00    +0.000 A 
ATOM     12  C   UNL     1       6.324   3.819  15.452  0.00  0.00    +0.000 A 
ATOM     13  C   UNL     1       5.631   3.482  16.619  0.00  0.00    +0.000 A 
ATOM     14  C   UNL     1       4.781   4.429  17.165  0.00  0.00    +0.000 A 
ENDBRANCH   1   8
BRANCH   2  15
ATOM     15  C   UNL     1       1.114   9.930  19.010  0.00  0.00    +0.000 A 
ATOM     16  C   UNL     1       0.448  11.038  18.654  0.00  0.00    +0.000 A 
ATOM     17  O   UNL     1      -0.401  11.775  19.444  0.00  0.00    +0.000 OA
ATOM     18  C   UNL     1      -0.625  11.329  20.721  0.00  0.00    +0.000 A 
ATOM     19  C   UNL     1      -1.526  12.065  21.497  0.00  0.00    +0.000 A 
ATOM     20  C   UNL     1      -1.808  11.655  22.802  0.00  0.00    +0.000 A 
ATOM     21  C   UNL     1      -1.191  10.520  23.332  0.00  0.00    +0.000 A 
ATOM     22  C   UNL     1      -0.285   9.789  22.554  0.00  0.00    +0.000 A 
ATOM     23  C   UNL     1      -0.005  10.195  21.244  0.00  0.00    +0.000 A 
ATOM     24  C   UNL     1       0.934   9.427  20.391  0.00  0.00    +0.000 A 
ATOM     25  O   UNL     1       1.516   8.437  20.806  0.00  0.00    +0.000 OA
ENDBRANCH   2  15
TORSDOF 2
ENDMDL
MODEL 8
REMARK VINA RESULT:      -8.0      1.820      2.920
REMARK  Name = 
REMARK  3 active torsions:
REMARK  status: ('A' for Active; 'I' for Inactive)
REMARK    1  A    between atoms: C_1  and  N_2
REMARK    2  A    between atoms: N_6  and  N_7
REMARK    3  A    between atoms: C_8  and  C_9
REMARK                            x       y       z     vdW  Elec       q    Type
REMARK                         _______ _______ _______ _____ _____    ______ ____
ROOT
ATOM      1  N   UNL     1       1.449   8.503  20.612  0.00  0.00    +0.000 NA
ATOM      2  C   UNL     1       1.349   7.227  20.812  0.00  0.00    +0.000 C 
ENDROOT
BRANCH   1   8
ATOM      3  C   UNL     1      -1.357  12.151  18.111  0.00  0.00    +0.000 C 
ATOM      4  N   UNL     1      -1.160  11.395  19.320  0.00  0.00    +0.000 N 
ATOM      5  C   UNL     1      -0.277  10.327  19.408  0.00  0.00    +0.000 C 
ATOM      6  O   UNL     1       0.272   9.749  18.495  0.00  0.00    +0.000 OA
ATOM      7  C   UNL     1      -0.065  10.103  20.925  0.00  0.00    +0.000 C 
ATOM      8  N   UNL     1       0.752   9.285  21.521  0.00  0.00    +0.000 NA
ATOM      9  C   UNL     1      -0.909  11.095  21.595  0.00  0.00    +0.000 A 
ATOM     10  C   UNL     1      -1.012  11.425  22.934  0.00  0.00    +0.000 A 
ATOM     11  C   UNL     1      -1.760  12.563  23.261  0.00  0.00    +0.000 A 
ATOM     12  C   UNL     1      -2.395  13.321  22.259  0.00  0.00    +0.000 A 
ATOM     13  C   UNL     1      -2.291  12.961  20.912  0.00  0.00    +0.000 A 
ATOM     14  C   UNL     1      -1.524  11.852  20.595  0.00  0.00    +0.000 A 
ENDBRANCH   1   8
BRANCH   2  15
ATOM     15  C   UNL     1       2.021   6.233  19.940  0.00  0.00    +0.000 A 
ATOM     16  C   UNL     1       2.884   6.657  19.006  0.00  0.00    +0.000 A 
ATOM     17  O   UNL     1       3.589   5.875  18.124  0.00  0.00    +0.000 OA
ATOM     18  C   UNL     1       3.428   4.516  18.215  0.00  0.00    +0.000 A 
ATOM     19  C   UNL     1       4.187   3.732  17.340  0.00  0.00    +0.000 A 
ATOM     20  C   UNL     1       4.079   2.340  17.391  0.00  0.00    +0.000 A 
ATOM     21  C   UNL     1       3.215   1.735  18.305  0.00  0.00    +0.000 A 
ATOM     22  C   UNL     1       2.453   2.524  19.176  0.00  0.00    +0.000 A 
ATOM     23  C   UNL     1       2.564   3.918  19.130  0.00  0.00    +0.000 A 
ATOM     24  C   UNL     1       1.784   4.776  20.055  0.00  0.00    +0.000 A 
ATOM     25  O   UNL     1       1.001   4.303  20.863  0.00  0.00    +0.000 OA
ENDBRANCH   2  15
TORSDOF 2
ENDMDL
MODEL 9
REMARK VINA RESULT:      -8.0      2.372      8.821
REMARK  Name = 
REMARK  3 active torsions:
REMARK  status: ('A' for Active; 'I' for Inactive)
REMARK    1  A    between atoms: C_1  and  N_2
REMARK    2  A    between atoms: N_6  and  N_7
REMARK    3  A    between atoms: C_8  and  C_9
REMARK                            x       y       z     vdW  Elec       q    Type
REMARK                         _______ _______ _______ _____ _____    ______ ____
ROOT
ATOM      1  N   UNL     1       2.066   9.255  18.350  0.00  0.00    +0.000 NA
ATOM      2  C   UNL     1       1.009   9.704  17.751  0.00  0.00    +0.000 C 
ENDROOT
BRANCH   1   8
ATOM      3  C   UNL     1       3.214   4.538  20.319  0.00  0.00    +0.000 C 
ATOM      4  N   UNL     1       3.192   5.393  19.160  0.00  0.00    +0.000 N 
ATOM      5  C   UNL     1       2.573   6.636  19.149  0.00  0.00    +0.000 C 
ATOM      6  O   UNL     1       1.811   7.086  19.977  0.00  0.00    +0.000 OA
ATOM      7  C   UNL     1       3.148   7.362  17.909  0.00  0.00    +0.000 C 
ATOM      8  N   UNL     1       2.958   8.589  17.523  0.00  0.00    +0.000 NA
ATOM      9  C   UNL     1       4.066   6.409  17.281  0.00  0.00    +0.000 A 
ATOM     10  C   UNL     1       4.939   6.573  16.220  0.00  0.00    +0.000 A 
ATOM     11  C   UNL     1       5.846   5.536  15.967  0.00  0.00    +0.000 A 
ATOM     12  C   UNL     1       5.846   4.369  16.756  0.00  0.00    +0.000 A 
ATOM     13  C   UNL     1       4.944   4.218  17.814  0.00  0.00    +0.000 A 
ATOM     14  C   UNL     1       4.071   5.261  18.075  0.00  0.00    +0.000 A 
ENDBRANCH   1   8
BRANCH   2  15
ATOM     15  C   UNL     1      -0.059  10.438  18.472  0.00  0.00    +0.000 A 
ATOM     16  C   UNL     1       0.235  11.064  19.621  0.00  0.00    +0.000 A 
ATOM     17  O   UNL     1      -0.628  11.786  20.408  0.00  0.00    +0.000 OA
ATOM     18  C   UNL     1      -1.922  11.916  19.973  0.00  0.00    +0.000 A 
ATOM     19  C   UNL     1      -2.778  12.691  20.762  0.00  0.00    +0.000 A 
ATOM     20  C   UNL     1      -4.106  12.874  20.367  0.00  0.00    +0.000 A 
ATOM     21  C   UNL     1      -4.578  12.281  19.195  0.00  0.00    +0.000 A 
ATOM     22  C   UNL     1      -3.720  11.500  18.410  0.00  0.00    +0.000 A 
ATOM     23  C   UNL     1      -2.388  11.321  18.801  0.00  0.00    +0.000 A 
ATOM     24  C   UNL     1      -1.453  10.517  17.978  0.00  0.00    +0.000 A 
ATOM     25  O   UNL     1      -1.814   9.962  16.952  0.00  0.00    +0.000 OA
ENDBRANCH   2  15
TORSDOF 2
ENDMDL
