MODEL 1
REMARK VINA RESULT:      -7.6      0.000      0.000
REMARK  Name = 
REMARK  2 active torsions:
REMARK  status: ('A' for Active; 'I' for Inactive)
REMARK    1  A    between atoms: C_8  and  C_9
REMARK    2  A    between atoms: C_17  and  C_18
REMARK                            x       y       z     vdW  Elec       q    Type
REMARK                         _______ _______ _______ _____ _____    ______ ____
ROOT
ATOM      1  O   UNL     1      -3.882  13.303  21.735  0.00  0.00    +0.000 OA
ATOM      2  C   UNL     1      -2.843  12.655  21.799  0.00  0.00    +0.000 C 
ATOM      3  C   UNL     1      -2.231  12.270  23.123  0.00  0.00    +0.000 C 
ATOM      4  S   UNL     1      -0.873  11.172  22.703  0.00  0.00    +0.000 S 
ATOM      5  C   UNL     1      -1.145  11.464  20.988  0.00  0.00    +0.000 C 
ATOM      6  N   UNL     1      -0.262  10.888  20.101  0.00  0.00    +0.000 N 
ATOM      7  N   UNL     1       0.371   9.682  20.286  0.00  0.00    +0.000 NA
ATOM      8  C   UNL     1       1.135   9.474  19.260  0.00  0.00    +0.000 C 
ATOM      9  C   UNL     1       1.151  10.581  18.243  0.00  0.00    +0.000 C 
ATOM     10  C   UNL     1       0.091  11.517  18.827  0.00  0.00    +0.000 C 
ATOM     11  N   UNL     1      -2.140  12.236  20.690  0.00  0.00    +0.000 NA
ENDROOT
BRANCH  10  12
ATOM     12  C   UNL     1       0.632  12.921  19.034  0.00  0.00    +0.000 A 
ATOM     13  C   UNL     1       1.920  13.110  19.546  0.00  0.00    +0.000 A 
ATOM     14  C   UNL     1       2.447  14.397  19.686  0.00  0.00    +0.000 A 
ATOM     15  C   UNL     1       1.697  15.525  19.316  0.00  0.00    +0.000 A 
ATOM     16  C   UNL     1       2.223  16.822  19.427  0.00  0.00    +0.000 A 
ATOM     17  C   UNL     1       1.466  17.931  19.047  0.00  0.00    +0.000 A 
ATOM     18  C   UNL     1       0.175  17.762  18.559  0.00  0.00    +0.000 A 
ATOM     19  C   UNL     1      -0.362  16.477  18.443  0.00  0.00    +0.000 A 
ATOM     20  C   UNL     1       0.390  15.350  18.813  0.00  0.00    +0.000 A 
ATOM     21  C   UNL     1      -0.127  14.053  18.681  0.00  0.00    +0.000 A 
ENDBRANCH  10  12
BRANCH   8  22
ATOM     22  C   UNL     1       1.957   8.259  19.093  0.00  0.00    +0.000 A 
ATOM     23  C   UNL     1       2.768   8.119  17.953  0.00  0.00    +0.000 A 
ATOM     24  C   UNL     1       3.546   6.973  17.779  0.00  0.00    +0.000 A 
ATOM     25  C   UNL     1       3.518   5.965  18.742  0.00  0.00    +0.000 A 
ATOM     26 BR   UNL     1       4.563   4.409  18.509  0.00  0.00    +0.000 Br
ATOM     27  C   UNL     1       2.723   6.095  19.879  0.00  0.00    +0.000 A 
ATOM     28  C   UNL     1       1.943   7.240  20.055  0.00  0.00    +0.000 A 
ENDBRANCH   8  22
TORSDOF 2
ENDMDL
MODEL 2
REMARK VINA RESULT:      -7.4      0.789      1.687
REMARK  Name = 
REMARK  2 active torsions:
REMARK  status: ('A' for Active; 'I' for Inactive)
REMARK    1  A    between atoms: C_8  and  C_9
REMARK    2  A    between atoms: C_17  and  C_18
REMARK                            x       y       z     vdW  Elec       q    Type
REMARK                         _______ _______ _______ _____ _____    ______ ____
ROOT
ATOM      1  O   UNL     1      -3.603  12.847  21.782  0.00  0.00    +0.000 OA
ATOM      2  C   UNL     1      -2.536  12.244  21.795  0.00  0.00    +0.000 C 
ATOM      3  C   UNL     1      -1.799  11.967  23.082  0.00  0.00    +0.000 C 
ATOM      4  S   UNL     1      -0.435  10.897  22.613  0.00  0.00    +0.000 S 
ATOM      5  C   UNL     1      -0.862  11.069  20.914  0.00  0.00    +0.000 C 
ATOM      6  N   UNL     1      -0.032  10.472  19.991  0.00  0.00    +0.000 N 
ATOM      7  N   UNL     1       0.666   9.304  20.192  0.00  0.00    +0.000 NA
ATOM      8  C   UNL     1       1.350   9.061  19.118  0.00  0.00    +0.000 C 
ATOM      9  C   UNL     1       1.233  10.101  18.040  0.00  0.00    +0.000 C 
ATOM     10  C   UNL     1       0.186  11.031  18.656  0.00  0.00    +0.000 C 
ATOM     11  N   UNL     1      -1.910  11.782  20.657  0.00  0.00    +0.000 NA
ENDROOT
BRANCH  10  12
ATOM     12  C   UNL     1       0.681  12.465  18.731  0.00  0.00    +0.000 A 
ATOM     13  C   UNL     1      -0.189  13.525  18.453  0.00  0.00    +0.000 A 
ATOM     14  C   UNL     1       0.243  14.848  18.575  0.00  0.00    +0.000 A 
ATOM     15  C   UNL     1       1.555  15.142  18.980  0.00  0.00    +0.000 A 
ATOM     16  C   UNL     1       1.995  16.467  19.131  0.00  0.00    +0.000 A 
ATOM     17  C   UNL     1       3.301  16.741  19.542  0.00  0.00    +0.000 A 
ATOM     18  C   UNL     1       4.185  15.699  19.799  0.00  0.00    +0.000 A 
ATOM     19  C   UNL     1       3.762  14.375  19.652  0.00  0.00    +0.000 A 
ATOM     20  C   UNL     1       2.448  14.083  19.248  0.00  0.00    +0.000 A 
ATOM     21  C   UNL     1       2.002  12.760  19.118  0.00  0.00    +0.000 A 
ENDBRANCH  10  12
BRANCH   8  22
ATOM     22  C   UNL     1       2.207   7.870  18.955  0.00  0.00    +0.000 A 
ATOM     23  C   UNL     1       3.035   7.759  17.825  0.00  0.00    +0.000 A 
ATOM     24  C   UNL     1       3.847   6.635  17.653  0.00  0.00    +0.000 A 
ATOM     25  C   UNL     1       3.834   5.621  18.610  0.00  0.00    +0.000 A 
ATOM     26 BR   UNL     1       4.924   4.096  18.381  0.00  0.00    +0.000 Br
ATOM     27  C   UNL     1       3.021   5.722  19.737  0.00  0.00    +0.000 A 
ATOM     28  C   UNL     1       2.208   6.845  19.911  0.00  0.00    +0.000 A 
ENDBRANCH   8  22
TORSDOF 2
ENDMDL
MODEL 3
REMARK VINA RESULT:      -7.4      2.617      5.291
REMARK  Name = 
REMARK  2 active torsions:
REMARK  status: ('A' for Active; 'I' for Inactive)
REMARK    1  A    between atoms: C_8  and  C_9
REMARK    2  A    between atoms: C_17  and  C_18
REMARK                            x       y       z     vdW  Elec       q    Type
REMARK                         _______ _______ _______ _____ _____    ______ ____
ROOT
ATOM      1  O   UNL     1       0.067  16.879  23.223  0.00  0.00    +0.000 OA
ATOM      2  C   UNL     1       0.131  16.016  22.355  0.00  0.00    +0.000 C 
ATOM      3  C   UNL     1       0.359  16.367  20.906  0.00  0.00    +0.000 C 
ATOM      4  S   UNL     1       0.586  14.789  20.077  0.00  0.00    +0.000 S 
ATOM      5  C   UNL     1       0.216  13.933  21.570  0.00  0.00    +0.000 C 
ATOM      6  N   UNL     1       0.154  12.558  21.512  0.00  0.00    +0.000 N 
ATOM      7  N   UNL     1       0.915  11.767  20.683  0.00  0.00    +0.000 NA
ATOM      8  C   UNL     1       0.573  10.534  20.891  0.00  0.00    +0.000 C 
ATOM      9  C   UNL     1      -0.537  10.339  21.884  0.00  0.00    +0.000 C 
ATOM     10  C   UNL     1      -0.744  11.777  22.363  0.00  0.00    +0.000 C 
ATOM     11  N   UNL     1      -0.010  14.669  22.611  0.00  0.00    +0.000 NA
ENDROOT
BRANCH  10  12
ATOM     12  C   UNL     1      -2.187  12.223  22.199  0.00  0.00    +0.000 A 
ATOM     13  C   UNL     1      -2.701  12.491  20.925  0.00  0.00    +0.000 A 
ATOM     14  C   UNL     1      -4.042  12.846  20.761  0.00  0.00    +0.000 A 
ATOM     15  C   UNL     1      -4.902  12.939  21.866  0.00  0.00    +0.000 A 
ATOM     16  C   UNL     1      -6.258  13.270  21.713  0.00  0.00    +0.000 A 
ATOM     17  C   UNL     1      -7.100  13.351  22.823  0.00  0.00    +0.000 A 
ATOM     18  C   UNL     1      -6.600  13.111  24.098  0.00  0.00    +0.000 A 
ATOM     19  C   UNL     1      -5.253  12.781  24.267  0.00  0.00    +0.000 A 
ATOM     20  C   UNL     1      -4.394  12.687  23.159  0.00  0.00    +0.000 A 
ATOM     21  C   UNL     1      -3.046  12.335  23.310  0.00  0.00    +0.000 A 
ENDBRANCH  10  12
BRANCH   8  22
ATOM     22  C   UNL     1       1.198   9.391  20.194  0.00  0.00    +0.000 A 
ATOM     23  C   UNL     1       1.569   9.519  18.844  0.00  0.00    +0.000 A 
ATOM     24  C   UNL     1       2.156   8.445  18.170  0.00  0.00    +0.000 A 
ATOM     25  C   UNL     1       2.373   7.243  18.842  0.00  0.00    +0.000 A 
ATOM     26 BR   UNL     1       3.159   5.785  17.935  0.00  0.00    +0.000 Br
ATOM     27  C   UNL     1       2.014   7.106  20.181  0.00  0.00    +0.000 A 
ATOM     28  C   UNL     1       1.427   8.178  20.858  0.00  0.00    +0.000 A 
ENDBRANCH   8  22
TORSDOF 2
ENDMDL
MODEL 4
REMARK VINA RESULT:      -7.4      2.324      5.047
REMARK  Name = 
REMARK  2 active torsions:
REMARK  status: ('A' for Active; 'I' for Inactive)
REMARK    1  A    between atoms: C_8  and  C_9
REMARK    2  A    between atoms: C_17  and  C_18
REMARK                            x       y       z     vdW  Elec       q    Type
REMARK                         _______ _______ _______ _____ _____    ______ ____
ROOT
ATOM      1  O   UNL     1       0.631  16.891  21.435  0.00  0.00    +0.000 OA
ATOM      2  C   UNL     1       0.565  15.876  20.750  0.00  0.00    +0.000 C 
ATOM      3  C   UNL     1       0.491  15.941  19.245  0.00  0.00    +0.000 C 
ATOM      4  S   UNL     1       0.625  14.233  18.702  0.00  0.00    +0.000 S 
ATOM      5  C   UNL     1       0.592  13.681  20.374  0.00  0.00    +0.000 C 
ATOM      6  N   UNL     1       0.584  12.321  20.590  0.00  0.00    +0.000 N 
ATOM      7  N   UNL     1       1.204  11.390  19.792  0.00  0.00    +0.000 NA
ATOM      8  C   UNL     1       0.967  10.218  20.292  0.00  0.00    +0.000 C 
ATOM      9  C   UNL     1       0.081  10.211  21.506  0.00  0.00    +0.000 C 
ATOM     10  C   UNL     1      -0.096  11.714  21.735  0.00  0.00    +0.000 C 
ATOM     11  N   UNL     1       0.538  14.604  21.280  0.00  0.00    +0.000 NA
ENDROOT
BRANCH  10  12
ATOM     12  C   UNL     1      -1.562  12.108  21.781  0.00  0.00    +0.000 A 
ATOM     13  C   UNL     1      -2.267  12.333  20.594  0.00  0.00    +0.000 A 
ATOM     14  C   UNL     1      -3.630  12.640  20.625  0.00  0.00    +0.000 A 
ATOM     15  C   UNL     1      -4.320  12.727  21.845  0.00  0.00    +0.000 A 
ATOM     16  C   UNL     1      -5.695  13.009  21.890  0.00  0.00    +0.000 A 
ATOM     17  C   UNL     1      -6.366  13.084  23.112  0.00  0.00    +0.000 A 
ATOM     18  C   UNL     1      -5.674  12.887  24.302  0.00  0.00    +0.000 A 
ATOM     19  C   UNL     1      -4.306  12.605  24.273  0.00  0.00    +0.000 A 
ATOM     20  C   UNL     1      -3.617  12.517  23.051  0.00  0.00    +0.000 A 
ATOM     21  C   UNL     1      -2.250  12.213  23.005  0.00  0.00    +0.000 A 
ENDBRANCH  10  12
BRANCH   8  22
ATOM     22  C   UNL     1       1.496   8.966  19.714  0.00  0.00    +0.000 A 
ATOM     23  C   UNL     1       1.837   8.920  18.351  0.00  0.00    +0.000 A 
ATOM     24  C   UNL     1       2.334   7.742  17.789  0.00  0.00    +0.000 A 
ATOM     25  C   UNL     1       2.492   6.609  18.585  0.00  0.00    +0.000 A 
ATOM     26 BR   UNL     1       3.156   5.010  17.830  0.00  0.00    +0.000 Br
ATOM     27  C   UNL     1       2.163   6.644  19.939  0.00  0.00    +0.000 A 
ATOM     28  C   UNL     1       1.666   7.821  20.504  0.00  0.00    +0.000 A 
ENDBRANCH   8  22
TORSDOF 2
ENDMDL
MODEL 5
REMARK VINA RESULT:      -7.3      0.639      1.908
REMARK  Name = 
REMARK  2 active torsions:
REMARK  status: ('A' for Active; 'I' for Inactive)
REMARK    1  A    between atoms: C_8  and  C_9
REMARK    2  A    between atoms: C_17  and  C_18
REMARK                            x       y       z     vdW  Elec       q    Type
REMARK                         _______ _______ _______ _____ _____    ______ ____
ROOT
ATOM      1  O   UNL     1      -3.819  13.297  21.679  0.00  0.00    +0.000 OA
ATOM      2  C   UNL     1      -2.789  12.636  21.752  0.00  0.00    +0.000 C 
ATOM      3  C   UNL     1      -2.184  12.260  23.082  0.00  0.00    +0.000 C 
ATOM      4  S   UNL     1      -0.840  11.138  22.677  0.00  0.00    +0.000 S 
ATOM      5  C   UNL     1      -1.106  11.412  20.959  0.00  0.00    +0.000 C 
ATOM      6  N   UNL     1      -0.230  10.814  20.080  0.00  0.00    +0.000 N 
ATOM      7  N   UNL     1       0.386   9.601  20.281  0.00  0.00    +0.000 NA
ATOM      8  C   UNL     1       1.149   9.371  19.258  0.00  0.00    +0.000 C 
ATOM      9  C   UNL     1       1.180  10.464  18.228  0.00  0.00    +0.000 C 
ATOM     10  C   UNL     1       0.132  11.421  18.799  0.00  0.00    +0.000 C 
ATOM     11  N   UNL     1      -2.091  12.193  20.650  0.00  0.00    +0.000 NA
ENDROOT
BRANCH  10  12
ATOM     12  C   UNL     1       0.691  12.820  18.989  0.00  0.00    +0.000 A 
ATOM     13  C   UNL     1      -0.041  13.934  18.563  0.00  0.00    +0.000 A 
ATOM     14  C   UNL     1       0.440  15.227  18.785  0.00  0.00    +0.000 A 
ATOM     15  C   UNL     1       1.665  15.436  19.440  0.00  0.00    +0.000 A 
ATOM     16  C   UNL     1       2.148  16.730  19.693  0.00  0.00    +0.000 A 
ATOM     17  C   UNL     1       3.364  16.919  20.352  0.00  0.00    +0.000 A 
ATOM     18  C   UNL     1       4.116  15.822  20.759  0.00  0.00    +0.000 A 
ATOM     19  C   UNL     1       3.648  14.528  20.514  0.00  0.00    +0.000 A 
ATOM     20  C   UNL     1       2.421  14.321  19.861  0.00  0.00    +0.000 A 
ATOM     21  C   UNL     1       1.928  13.030  19.628  0.00  0.00    +0.000 A 
ENDBRANCH  10  12
BRANCH   8  22
ATOM     22  C   UNL     1       1.955   8.142  19.108  0.00  0.00    +0.000 A 
ATOM     23  C   UNL     1       1.921   7.162  20.114  0.00  0.00    +0.000 A 
ATOM     24  C   UNL     1       2.682   5.997  19.989  0.00  0.00    +0.000 A 
ATOM     25  C   UNL     1       3.478   5.810  18.860  0.00  0.00    +0.000 A 
ATOM     26 BR   UNL     1       4.516   4.241  18.688  0.00  0.00    +0.000 Br
ATOM     27  C   UNL     1       3.516   6.773  17.854  0.00  0.00    +0.000 A 
ATOM     28  C   UNL     1       2.756   7.938  17.976  0.00  0.00    +0.000 A 
ENDBRANCH   8  22
TORSDOF 2
ENDMDL
MODEL 6
REMARK VINA RESULT:      -7.3      5.567     10.172
REMARK  Name = 
REMARK  2 active torsions:
REMARK  status: ('A' for Active; 'I' for Inactive)
REMARK    1  A    between atoms: C_8  and  C_9
REMARK    2  A    between atoms: C_17  and  C_18
REMARK                            x       y       z     vdW  Elec       q    Type
REMARK                         _______ _______ _______ _____ _____    ______ ____
ROOT
ATOM      1  O   UNL     1       5.364   1.211  20.188  0.00  0.00    +0.000 OA
ATOM      2  C   UNL     1       4.487   1.977  19.805  0.00  0.00    +0.000 C 
ATOM      3  C   UNL     1       3.065   1.514  19.608  0.00  0.00    +0.000 C 
ATOM      4  S   UNL     1       2.136   3.012  19.256  0.00  0.00    +0.000 S 
ATOM      5  C   UNL     1       3.625   3.952  19.243  0.00  0.00    +0.000 C 
ATOM      6  N   UNL     1       3.527   5.285  18.913  0.00  0.00    +0.000 N 
ATOM      7  N   UNL     1       2.454   6.095  19.201  0.00  0.00    +0.000 NA
ATOM      8  C   UNL     1       2.708   7.273  18.724  0.00  0.00    +0.000 C 
ATOM      9  C   UNL     1       4.009   7.394  17.984  0.00  0.00    +0.000 C 
ATOM     10  C   UNL     1       4.596   6.000  18.214  0.00  0.00    +0.000 C 
ATOM     11  N   UNL     1       4.713   3.304  19.509  0.00  0.00    +0.000 NA
ENDROOT
BRANCH  10  12
ATOM     12  C   UNL     1       4.954   5.317  16.905  0.00  0.00    +0.000 A 
ATOM     13  C   UNL     1       4.131   4.310  16.389  0.00  0.00    +0.000 A 
ATOM     14  C   UNL     1       4.422   3.716  15.158  0.00  0.00    +0.000 A 
ATOM     15  C   UNL     1       5.542   4.118  14.413  0.00  0.00    +0.000 A 
ATOM     16  C   UNL     1       5.832   3.548  13.163  0.00  0.00    +0.000 A 
ATOM     17  C   UNL     1       6.946   3.965  12.432  0.00  0.00    +0.000 A 
ATOM     18  C   UNL     1       7.788   4.948  12.942  0.00  0.00    +0.000 A 
ATOM     19  C   UNL     1       7.512   5.524  14.185  0.00  0.00    +0.000 A 
ATOM     20  C   UNL     1       6.390   5.122  14.928  0.00  0.00    +0.000 A 
ATOM     21  C   UNL     1       6.088   5.706  16.166  0.00  0.00    +0.000 A 
ENDBRANCH  10  12
BRANCH   8  22
ATOM     22  C   UNL     1       1.788   8.420  18.865  0.00  0.00    +0.000 A 
ATOM     23  C   UNL     1       1.256   8.734  20.128  0.00  0.00    +0.000 A 
ATOM     24  C   UNL     1       0.381   9.812  20.276  0.00  0.00    +0.000 A 
ATOM     25  C   UNL     1       0.034  10.579  19.164  0.00  0.00    +0.000 A 
ATOM     26 BR   UNL     1      -1.155  12.033  19.355  0.00  0.00    +0.000 Br
ATOM     27  C   UNL     1       0.559  10.280  17.908  0.00  0.00    +0.000 A 
ATOM     28  C   UNL     1       1.435   9.203  17.757  0.00  0.00    +0.000 A 
ENDBRANCH   8  22
TORSDOF 2
ENDMDL
MODEL 7
REMARK VINA RESULT:      -7.3      2.961      5.771
REMARK  Name = 
REMARK  2 active torsions:
REMARK  status: ('A' for Active; 'I' for Inactive)
REMARK    1  A    between atoms: C_8  and  C_9
REMARK    2  A    between atoms: C_17  and  C_18
REMARK                            x       y       z     vdW  Elec       q    Type
REMARK                         _______ _______ _______ _____ _____    ______ ____
ROOT
ATOM      1  O   UNL     1      -0.800  16.683  24.793  0.00  0.00    +0.000 OA
ATOM      2  C   UNL     1      -0.614  15.983  23.803  0.00  0.00    +0.000 C 
ATOM      3  C   UNL     1      -0.188  16.577  22.484  0.00  0.00    +0.000 C 
ATOM      4  S   UNL     1       0.155  15.164  21.429  0.00  0.00    +0.000 S 
ATOM      5  C   UNL     1      -0.416  14.068  22.684  0.00  0.00    +0.000 C 
ATOM      6  N   UNL     1      -0.466  12.726  22.376  0.00  0.00    +0.000 N 
ATOM      7  N   UNL     1       0.403  12.076  21.533  0.00  0.00    +0.000 NA
ATOM      8  C   UNL     1       0.039  10.833  21.471  0.00  0.00    +0.000 C 
ATOM      9  C   UNL     1      -1.197  10.492  22.254  0.00  0.00    +0.000 C 
ATOM     10  C   UNL     1      -1.472  11.829  22.946  0.00  0.00    +0.000 C 
ATOM     11  N   UNL     1      -0.786  14.616  23.797  0.00  0.00    +0.000 NA
ENDROOT
BRANCH  10  12
ATOM     12  C   UNL     1      -2.880  12.328  22.667  0.00  0.00    +0.000 A 
ATOM     13  C   UNL     1      -3.273  12.631  21.359  0.00  0.00    +0.000 A 
ATOM     14  C   UNL     1      -4.582  13.035  21.087  0.00  0.00    +0.000 A 
ATOM     15  C   UNL     1      -5.530  13.145  22.117  0.00  0.00    +0.000 A 
ATOM     16  C   UNL     1      -6.855  13.526  21.855  0.00  0.00    +0.000 A 
ATOM     17  C   UNL     1      -7.786  13.623  22.891  0.00  0.00    +0.000 A 
ATOM     18  C   UNL     1      -7.405  13.349  24.200  0.00  0.00    +0.000 A 
ATOM     19  C   UNL     1      -6.089  12.969  24.477  0.00  0.00    +0.000 A 
ATOM     20  C   UNL     1      -5.143  12.858  23.444  0.00  0.00    +0.000 A 
ATOM     21  C   UNL     1      -3.825  12.456  23.703  0.00  0.00    +0.000 A 
ENDBRANCH  10  12
BRANCH   8  22
ATOM     22  C   UNL     1       0.757   9.816  20.676  0.00  0.00    +0.000 A 
ATOM     23  C   UNL     1       1.117   8.595  21.272  0.00  0.00    +0.000 A 
ATOM     24  C   UNL     1       1.801   7.626  20.535  0.00  0.00    +0.000 A 
ATOM     25  C   UNL     1       2.127   7.874  19.202  0.00  0.00    +0.000 A 
ATOM     26 BR   UNL     1       3.058   6.570  18.201  0.00  0.00    +0.000 Br
ATOM     27  C   UNL     1       1.771   9.078  18.599  0.00  0.00    +0.000 A 
ATOM     28  C   UNL     1       1.086  10.049  19.334  0.00  0.00    +0.000 A 
ENDBRANCH   8  22
TORSDOF 2
ENDMDL
MODEL 8
REMARK VINA RESULT:      -7.2      2.627      5.047
REMARK  Name = 
REMARK  2 active torsions:
REMARK  status: ('A' for Active; 'I' for Inactive)
REMARK    1  A    between atoms: C_8  and  C_9
REMARK    2  A    between atoms: C_17  and  C_18
REMARK                            x       y       z     vdW  Elec       q    Type
REMARK                         _______ _______ _______ _____ _____    ______ ____
ROOT
ATOM      1  O   UNL     1      -0.092  16.810  23.719  0.00  0.00    +0.000 OA
ATOM      2  C   UNL     1      -0.031  15.979  22.820  0.00  0.00    +0.000 C 
ATOM      3  C   UNL     1       0.177  16.383  21.381  0.00  0.00    +0.000 C 
ATOM      4  S   UNL     1       0.408  14.838  20.495  0.00  0.00    +0.000 S 
ATOM      5  C   UNL     1       0.063  13.926  21.961  0.00  0.00    +0.000 C 
ATOM      6  N   UNL     1       0.013  12.554  21.855  0.00  0.00    +0.000 N 
ATOM      7  N   UNL     1       0.770  11.799  20.990  0.00  0.00    +0.000 NA
ATOM      8  C   UNL     1       0.442  10.556  21.158  0.00  0.00    +0.000 C 
ATOM      9  C   UNL     1      -0.654  10.316  22.157  0.00  0.00    +0.000 C 
ATOM     10  C   UNL     1      -0.869  11.735  22.688  0.00  0.00    +0.000 C 
ATOM     11  N   UNL     1      -0.157  14.623  23.030  0.00  0.00    +0.000 NA
ENDROOT
BRANCH  10  12
ATOM     12  C   UNL     1      -2.317  12.172  22.557  0.00  0.00    +0.000 A 
ATOM     13  C   UNL     1      -3.064  12.484  23.699  0.00  0.00    +0.000 A 
ATOM     14  C   UNL     1      -4.379  12.942  23.584  0.00  0.00    +0.000 A 
ATOM     15  C   UNL     1      -4.977  13.101  22.324  0.00  0.00    +0.000 A 
ATOM     16  C   UNL     1      -6.289  13.584  22.192  0.00  0.00    +0.000 A 
ATOM     17  C   UNL     1      -6.865  13.743  20.930  0.00  0.00    +0.000 A 
ATOM     18  C   UNL     1      -6.145  13.415  19.787  0.00  0.00    +0.000 A 
ATOM     19  C   UNL     1      -4.839  12.933  19.902  0.00  0.00    +0.000 A 
ATOM     20  C   UNL     1      -4.241  12.776  21.164  0.00  0.00    +0.000 A 
ATOM     21  C   UNL     1      -2.924  12.314  21.295  0.00  0.00    +0.000 A 
ENDBRANCH  10  12
BRANCH   8  22
ATOM     22  C   UNL     1       1.068   9.445  20.414  0.00  0.00    +0.000 A 
ATOM     23  C   UNL     1       1.391   9.612  19.056  0.00  0.00    +0.000 A 
ATOM     24  C   UNL     1       1.978   8.568  18.338  0.00  0.00    +0.000 A 
ATOM     25  C   UNL     1       2.245   7.356  18.973  0.00  0.00    +0.000 A 
ATOM     26 BR   UNL     1       3.033   5.938  18.006  0.00  0.00    +0.000 Br
ATOM     27  C   UNL     1       1.934   7.180  20.320  0.00  0.00    +0.000 A 
ATOM     28  C   UNL     1       1.347   8.223  21.041  0.00  0.00    +0.000 A 
ENDBRANCH   8  22
TORSDOF 2
ENDMDL
MODEL 9
REMARK VINA RESULT:      -7.1      0.787      1.213
REMARK  Name = 
REMARK  2 active torsions:
REMARK  status: ('A' for Active; 'I' for Inactive)
REMARK    1  A    between atoms: C_8  and  C_9
REMARK    2  A    between atoms: C_17  and  C_18
REMARK                            x       y       z     vdW  Elec       q    Type
REMARK                         _______ _______ _______ _____ _____    ______ ____
ROOT
ATOM      1  O   UNL     1      -4.474  13.891  21.771  0.00  0.00    +0.000 OA
ATOM      2  C   UNL     1      -3.449  13.227  21.876  0.00  0.00    +0.000 C 
ATOM      3  C   UNL     1      -2.909  12.813  23.223  0.00  0.00    +0.000 C 
ATOM      4  S   UNL     1      -1.548  11.701  22.853  0.00  0.00    +0.000 S 
ATOM      5  C   UNL     1      -1.729  12.024  21.132  0.00  0.00    +0.000 C 
ATOM      6  N   UNL     1      -0.810  11.449  20.281  0.00  0.00    +0.000 N 
ATOM      7  N   UNL     1      -0.205  10.231  20.477  0.00  0.00    +0.000 NA
ATOM      8  C   UNL     1       0.607  10.028  19.487  0.00  0.00    +0.000 C 
ATOM      9  C   UNL     1       0.689  11.150  18.491  0.00  0.00    +0.000 C 
ATOM     10  C   UNL     1      -0.386  12.092  19.037  0.00  0.00    +0.000 C 
ATOM     11  N   UNL     1      -2.697  12.815  20.797  0.00  0.00    +0.000 NA
ENDROOT
BRANCH  10  12
ATOM     12  C   UNL     1       0.164  13.485  19.293  0.00  0.00    +0.000 A 
ATOM     13  C   UNL     1       1.324  13.654  20.056  0.00  0.00    +0.000 A 
ATOM     14  C   UNL     1       1.868  14.926  20.250  0.00  0.00    +0.000 A 
ATOM     15  C   UNL     1       1.265  16.059  19.682  0.00  0.00    +0.000 A 
ATOM     16  C   UNL     1       1.815  17.341  19.847  0.00  0.00    +0.000 A 
ATOM     17  C   UNL     1       1.205  18.456  19.269  0.00  0.00    +0.000 A 
ATOM     18  C   UNL     1       0.038  18.309  18.529  0.00  0.00    +0.000 A 
ATOM     19  C   UNL     1      -0.522  17.040  18.356  0.00  0.00    +0.000 A 
ATOM     20  C   UNL     1       0.085  15.906  18.923  0.00  0.00    +0.000 A 
ATOM     21  C   UNL     1      -0.452  14.624  18.741  0.00  0.00    +0.000 A 
ENDBRANCH  10  12
BRANCH   8  22
ATOM     22  C   UNL     1       1.420   8.803  19.342  0.00  0.00    +0.000 A 
ATOM     23  C   UNL     1       1.479   7.880  20.400  0.00  0.00    +0.000 A 
ATOM     24  C   UNL     1       2.247   6.719  20.280  0.00  0.00    +0.000 A 
ATOM     25  C   UNL     1       2.958   6.479  19.104  0.00  0.00    +0.000 A 
ATOM     26 BR   UNL     1       4.005   4.916  18.938  0.00  0.00    +0.000 Br
ATOM     27  C   UNL     1       2.903   7.385  18.047  0.00  0.00    +0.000 A 
ATOM     28  C   UNL     1       2.135   8.546  18.164  0.00  0.00    +0.000 A 
ENDBRANCH   8  22
TORSDOF 2
ENDMDL
