MODEL 1
REMARK VINA RESULT:      -7.7      0.000      0.000
REMARK  Name = 
REMARK  2 active torsions:
REMARK  status: ('A' for Active; 'I' for Inactive)
REMARK    1  A    between atoms: C_21  and  C_22
REMARK    2  A    between atoms: C_25  and  O_26
REMARK                            x       y       z     vdW  Elec       q    Type
REMARK                         _______ _______ _______ _____ _____    ______ ____
ROOT
ATOM      1  O   UNL     1       2.890  11.895  18.208  0.00  0.00    +0.000 OA
ATOM      2  C   UNL     1       2.061  12.628  18.729  0.00  0.00    +0.000 A 
ATOM      3  O   UNL     1       2.459  13.806  19.339  0.00  0.00    +0.000 OA
ATOM      4  C   UNL     1       1.608  14.911  19.259  0.00  0.00    +0.000 A 
ATOM      5  C   UNL     1       2.218  16.161  19.401  0.00  0.00    +0.000 A 
ATOM      6  C   UNL     1       1.444  17.305  19.276  0.00  0.00    +0.000 A 
ATOM      7  C   UNL     1       0.079  17.184  19.019  0.00  0.00    +0.000 A 
ATOM      8  C   UNL     1      -0.517  15.918  18.894  0.00  0.00    +0.000 A 
ATOM      9  C   UNL     1       0.243  14.749  19.008  0.00  0.00    +0.000 A 
ATOM     10  C   UNL     1      -0.285  13.384  18.858  0.00  0.00    +0.000 A 
ATOM     11  N   UNL     1      -1.632  13.224  18.781  0.00  0.00    +0.000 NA
ATOM     12  C   UNL     1      -2.094  11.961  18.558  0.00  0.00    +0.000 A 
ATOM     13  C   UNL     1      -1.291  10.807  18.492  0.00  0.00    +0.000 A 
ATOM     14  C   UNL     1      -1.951   9.573  18.248  0.00  0.00    +0.000 A 
ATOM     15  C   UNL     1      -3.287   9.480  17.865  0.00  0.00    +0.000 A 
ATOM     16  C   UNL     1      -4.080  10.620  17.980  0.00  0.00    +0.000 A 
ATOM     17  C   UNL     1      -5.467  10.843  17.795  0.00  0.00    +0.000 A 
ATOM     18  C   UNL     1      -5.737  12.083  18.319  0.00  0.00    +0.000 A 
ATOM     19  N   UNL     1      -4.540  12.686  18.621  0.00  0.00    +0.000 N 
ATOM     20  C   UNL     1      -3.492  11.816  18.399  0.00  0.00    +0.000 A 
ATOM     21  C   UNL     1       0.123  10.975  18.674  0.00  0.00    +0.000 A 
ATOM     22  C   UNL     1       0.611  12.302  18.785  0.00  0.00    +0.000 A 
ATOM     23  H   UNL     1      -4.430  13.594  19.048  0.00  0.00    +0.000 HD
ENDROOT
BRANCH  21  24
ATOM     24  C   UNL     1       1.022   9.776  18.804  0.00  0.00    +0.000 A 
ATOM     25  C   UNL     1       1.658   9.196  17.689  0.00  0.00    +0.000 A 
ATOM     26  C   UNL     1       2.244   7.927  17.749  0.00  0.00    +0.000 A 
ATOM     27  C   UNL     1       2.349   7.286  18.972  0.00  0.00    +0.000 A 
ATOM     28  C   UNL     1       1.883   7.898  20.124  0.00  0.00    +0.000 A 
ATOM     29  C   UNL     1       1.188   9.111  20.035  0.00  0.00    +0.000 A 
BRANCH  27  30
ATOM     30  O   UNL     1       2.896   6.044  19.080  0.00  0.00    +0.000 OA
ATOM     31  H   UNL     1       2.965   5.818  20.022  0.00  0.00    +0.000 HD
ENDBRANCH  27  30
ENDBRANCH  21  24
TORSDOF 2
ENDMDL
MODEL 2
REMARK VINA RESULT:      -7.7      1.739      1.764
REMARK  Name = 
REMARK  2 active torsions:
REMARK  status: ('A' for Active; 'I' for Inactive)
REMARK    1  A    between atoms: C_21  and  C_22
REMARK    2  A    between atoms: C_25  and  O_26
REMARK                            x       y       z     vdW  Elec       q    Type
REMARK                         _______ _______ _______ _____ _____    ______ ____
ROOT
ATOM      1  O   UNL     1       2.339  12.445  20.039  0.00  0.00    +0.000 OA
ATOM      2  C   UNL     1       1.343  12.872  20.606  0.00  0.00    +0.000 A 
ATOM      3  O   UNL     1       1.472  13.729  21.687  0.00  0.00    +0.000 OA
ATOM      4  C   UNL     1       0.516  14.735  21.849  0.00  0.00    +0.000 A 
ATOM      5  C   UNL     1       0.927  15.853  22.581  0.00  0.00    +0.000 A 
ATOM      6  C   UNL     1       0.050  16.915  22.735  0.00  0.00    +0.000 A 
ATOM      7  C   UNL     1      -1.220  16.844  22.164  0.00  0.00    +0.000 A 
ATOM      8  C   UNL     1      -1.618  15.706  21.444  0.00  0.00    +0.000 A 
ATOM      9  C   UNL     1      -0.750  14.622  21.268  0.00  0.00    +0.000 A 
ATOM     10  C   UNL     1      -1.065  13.406  20.503  0.00  0.00    +0.000 A 
ATOM     11  N   UNL     1      -2.344  13.229  20.083  0.00  0.00    +0.000 NA
ATOM     12  C   UNL     1      -2.595  12.137  19.305  0.00  0.00    +0.000 A 
ATOM     13  C   UNL     1      -1.653  11.143  18.982  0.00  0.00    +0.000 A 
ATOM     14  C   UNL     1      -2.097  10.077  18.154  0.00  0.00    +0.000 A 
ATOM     15  C   UNL     1      -3.319  10.082  17.486  0.00  0.00    +0.000 A 
ATOM     16  C   UNL     1      -4.258  11.045  17.849  0.00  0.00    +0.000 A 
ATOM     17  C   UNL     1      -5.606  11.260  17.469  0.00  0.00    +0.000 A 
ATOM     18  C   UNL     1      -6.121  12.176  18.351  0.00  0.00    +0.000 A 
ATOM     19  N   UNL     1      -5.084  12.665  19.109  0.00  0.00    +0.000 N 
ATOM     20  C   UNL     1      -3.911  12.003  18.806  0.00  0.00    +0.000 A 
ATOM     21  C   UNL     1      -0.328  11.289  19.514  0.00  0.00    +0.000 A 
ATOM     22  C   UNL     1      -0.041  12.484  20.221  0.00  0.00    +0.000 A 
ATOM     23  H   UNL     1      -5.168  13.333  19.861  0.00  0.00    +0.000 HD
ENDROOT
BRANCH  21  24
ATOM     24  C   UNL     1       0.677  10.179  19.371  0.00  0.00    +0.000 A 
ATOM     25  C   UNL     1       1.394   9.971  18.176  0.00  0.00    +0.000 A 
ATOM     26  C   UNL     1       2.096   8.787  17.931  0.00  0.00    +0.000 A 
ATOM     27  C   UNL     1       2.231   7.856  18.948  0.00  0.00    +0.000 A 
ATOM     28  C   UNL     1       1.680   8.099  20.196  0.00  0.00    +0.000 A 
ATOM     29  C   UNL     1       0.875   9.229  20.392  0.00  0.00    +0.000 A 
BRANCH  27  30
ATOM     30  O   UNL     1       2.891   6.681  18.755  0.00  0.00    +0.000 OA
ATOM     31  H   UNL     1       3.774   6.878  18.402  0.00  0.00    +0.000 HD
ENDBRANCH  27  30
ENDBRANCH  21  24
TORSDOF 2
ENDMDL
MODEL 3
REMARK VINA RESULT:      -7.7      3.322      3.802
REMARK  Name = 
REMARK  2 active torsions:
REMARK  status: ('A' for Active; 'I' for Inactive)
REMARK    1  A    between atoms: C_21  and  C_22
REMARK    2  A    between atoms: C_25  and  O_26
REMARK                            x       y       z     vdW  Elec       q    Type
REMARK                         _______ _______ _______ _____ _____    ______ ____
ROOT
ATOM      1  O   UNL     1       0.741  13.085  21.662  0.00  0.00    +0.000 OA
ATOM      2  C   UNL     1      -0.370  13.166  22.167  0.00  0.00    +0.000 A 
ATOM      3  O   UNL     1      -0.507  13.546  23.491  0.00  0.00    +0.000 OA
ATOM      4  C   UNL     1      -1.618  14.317  23.845  0.00  0.00    +0.000 A 
ATOM      5  C   UNL     1      -1.474  15.098  24.995  0.00  0.00    +0.000 A 
ATOM      6  C   UNL     1      -2.515  15.932  25.376  0.00  0.00    +0.000 A 
ATOM      7  C   UNL     1      -3.679  15.969  24.609  0.00  0.00    +0.000 A 
ATOM      8  C   UNL     1      -3.808  15.166  23.464  0.00  0.00    +0.000 A 
ATOM      9  C   UNL     1      -2.770  14.321  23.055  0.00  0.00    +0.000 A 
ATOM     10  C   UNL     1      -2.800  13.471  21.855  0.00  0.00    +0.000 A 
ATOM     11  N   UNL     1      -3.976  13.351  21.185  0.00  0.00    +0.000 NA
ATOM     12  C   UNL     1      -3.960  12.627  20.030  0.00  0.00    +0.000 A 
ATOM     13  C   UNL     1      -2.845  11.927  19.531  0.00  0.00    +0.000 A 
ATOM     14  C   UNL     1      -3.016  11.229  18.306  0.00  0.00    +0.000 A 
ATOM     15  C   UNL     1      -4.133  11.377  17.487  0.00  0.00    +0.000 A 
ATOM     16  C   UNL     1      -5.244  12.033  18.012  0.00  0.00    +0.000 A 
ATOM     17  C   UNL     1      -6.552  12.252  17.511  0.00  0.00    +0.000 A 
ATOM     18  C   UNL     1      -7.305  12.704  18.565  0.00  0.00    +0.000 A 
ATOM     19  N   UNL     1      -6.456  12.956  19.616  0.00  0.00    +0.000 N 
ATOM     20  C   UNL     1      -5.168  12.575  19.298  0.00  0.00    +0.000 A 
ATOM     21  C   UNL     1      -1.634  11.980  20.299  0.00  0.00    +0.000 A 
ATOM     22  C   UNL     1      -1.621  12.830  21.434  0.00  0.00    +0.000 A 
ATOM     23  H   UNL     1      -6.733  13.270  20.534  0.00  0.00    +0.000 HD
ENDROOT
BRANCH  21  24
ATOM     24  C   UNL     1      -0.462  11.110  19.933  0.00  0.00    +0.000 A 
ATOM     25  C   UNL     1       0.363  11.396  18.827  0.00  0.00    +0.000 A 
ATOM     26  C   UNL     1       1.255  10.453  18.307  0.00  0.00    +0.000 A 
ATOM     27  C   UNL     1       1.457   9.263  18.987  0.00  0.00    +0.000 A 
ATOM     28  C   UNL     1       0.786   9.014  20.173  0.00  0.00    +0.000 A 
ATOM     29  C   UNL     1      -0.195   9.909  20.618  0.00  0.00    +0.000 A 
BRANCH  27  30
ATOM     30  O   UNL     1       2.303   8.308  18.513  0.00  0.00    +0.000 OA
ATOM     31  H   UNL     1       3.213   8.637  18.587  0.00  0.00    +0.000 HD
ENDBRANCH  27  30
ENDBRANCH  21  24
TORSDOF 2
ENDMDL
MODEL 4
REMARK VINA RESULT:      -7.5      2.601      2.855
REMARK  Name = 
REMARK  2 active torsions:
REMARK  status: ('A' for Active; 'I' for Inactive)
REMARK    1  A    between atoms: C_21  and  C_22
REMARK    2  A    between atoms: C_25  and  O_26
REMARK                            x       y       z     vdW  Elec       q    Type
REMARK                         _______ _______ _______ _____ _____    ______ ____
ROOT
ATOM      1  O   UNL     1       1.477  11.823  21.580  0.00  0.00    +0.000 OA
ATOM      2  C   UNL     1       0.305  12.124  21.757  0.00  0.00    +0.000 A 
ATOM      3  O   UNL     1      -0.084  12.742  22.933  0.00  0.00    +0.000 OA
ATOM      4  C   UNL     1      -1.108  13.692  22.873  0.00  0.00    +0.000 A 
ATOM      5  C   UNL     1      -1.122  14.637  23.902  0.00  0.00    +0.000 A 
ATOM      6  C   UNL     1      -2.074  15.645  23.877  0.00  0.00    +0.000 A 
ATOM      7  C   UNL     1      -2.997  15.689  22.832  0.00  0.00    +0.000 A 
ATOM      8  C   UNL     1      -2.974  14.722  21.815  0.00  0.00    +0.000 A 
ATOM      9  C   UNL     1      -2.019  13.699  21.813  0.00  0.00    +0.000 A 
ATOM     10  C   UNL     1      -1.894  12.664  20.775  0.00  0.00    +0.000 A 
ATOM     11  N   UNL     1      -2.877  12.574  19.842  0.00  0.00    +0.000 NA
ATOM     12  C   UNL     1      -2.700  11.665  18.841  0.00  0.00    +0.000 A 
ATOM     13  C   UNL     1      -1.626  10.758  18.755  0.00  0.00    +0.000 A 
ATOM     14  C   UNL     1      -1.607   9.884  17.635  0.00  0.00    +0.000 A 
ATOM     15  C   UNL     1      -2.453  10.023  16.538  0.00  0.00    +0.000 A 
ATOM     16  C   UNL     1      -3.537  10.890  16.656  0.00  0.00    +0.000 A 
ATOM     17  C   UNL     1      -4.632  11.176  15.802  0.00  0.00    +0.000 A 
ATOM     18  C   UNL     1      -5.535  11.892  16.549  0.00  0.00    +0.000 A 
ATOM     19  N   UNL     1      -4.935  12.217  17.742  0.00  0.00    +0.000 N 
ATOM     20  C   UNL     1      -3.688  11.633  17.830  0.00  0.00    +0.000 A 
ATOM     21  C   UNL     1      -0.645  10.796  19.801  0.00  0.00    +0.000 A 
ATOM     22  C   UNL     1      -0.769  11.821  20.772  0.00  0.00    +0.000 A 
ATOM     23  H   UNL     1      -5.371  12.717  18.502  0.00  0.00    +0.000 HD
ENDROOT
BRANCH  21  24
ATOM     24  C   UNL     1       0.425   9.740  19.880  0.00  0.00    +0.000 A 
ATOM     25  C   UNL     1       1.372   9.559  18.853  0.00  0.00    +0.000 A 
ATOM     26  C   UNL     1       2.168   8.412  18.775  0.00  0.00    +0.000 A 
ATOM     27  C   UNL     1       2.147   7.499  19.817  0.00  0.00    +0.000 A 
ATOM     28  C   UNL     1       1.350   7.725  20.928  0.00  0.00    +0.000 A 
ATOM     29  C   UNL     1       0.465   8.811  20.939  0.00  0.00    +0.000 A 
BRANCH  27  30
ATOM     30  O   UNL     1       2.891   6.360  19.781  0.00  0.00    +0.000 OA
ATOM     31  H   UNL     1       3.731   6.526  20.239  0.00  0.00    +0.000 HD
ENDBRANCH  27  30
ENDBRANCH  21  24
TORSDOF 2
ENDMDL
MODEL 5
REMARK VINA RESULT:      -7.3      3.920      6.452
REMARK  Name = 
REMARK  2 active torsions:
REMARK  status: ('A' for Active; 'I' for Inactive)
REMARK    1  A    between atoms: C_21  and  C_22
REMARK    2  A    between atoms: C_25  and  O_26
REMARK                            x       y       z     vdW  Elec       q    Type
REMARK                         _______ _______ _______ _____ _____    ______ ____
ROOT
ATOM      1  O   UNL     1      -0.320  16.465  22.242  0.00  0.00    +0.000 OA
ATOM      2  C   UNL     1      -0.006  15.867  21.223  0.00  0.00    +0.000 A 
ATOM      3  O   UNL     1       0.317  16.570  20.075  0.00  0.00    +0.000 OA
ATOM      4  C   UNL     1       1.310  16.051  19.239  0.00  0.00    +0.000 A 
ATOM      5  C   UNL     1       1.965  16.978  18.423  0.00  0.00    +0.000 A 
ATOM      6  C   UNL     1       3.000  16.545  17.609  0.00  0.00    +0.000 A 
ATOM      7  C   UNL     1       3.361  15.198  17.619  0.00  0.00    +0.000 A 
ATOM      8  C   UNL     1       2.681  14.280  18.436  0.00  0.00    +0.000 A 
ATOM      9  C   UNL     1       1.637  14.693  19.272  0.00  0.00    +0.000 A 
ATOM     10  C   UNL     1       0.893  13.814  20.186  0.00  0.00    +0.000 A 
ATOM     11  N   UNL     1       1.099  12.475  20.094  0.00  0.00    +0.000 NA
ATOM     12  C   UNL     1       0.462  11.686  21.006  0.00  0.00    +0.000 A 
ATOM     13  C   UNL     1      -0.455  12.145  21.971  0.00  0.00    +0.000 A 
ATOM     14  C   UNL     1      -1.018  11.175  22.841  0.00  0.00    +0.000 A 
ATOM     15  C   UNL     1      -0.557   9.863  22.929  0.00  0.00    +0.000 A 
ATOM     16  C   UNL     1       0.314   9.410  21.941  0.00  0.00    +0.000 A 
ATOM     17  C   UNL     1       0.870   8.135  21.665  0.00  0.00    +0.000 A 
ATOM     18  C   UNL     1       1.426   8.213  20.413  0.00  0.00    +0.000 A 
ATOM     19  N   UNL     1       1.404   9.530  20.020  0.00  0.00    +0.000 N 
ATOM     20  C   UNL     1       0.744  10.301  20.955  0.00  0.00    +0.000 A 
ATOM     21  C   UNL     1      -0.740  13.552  21.993  0.00  0.00    +0.000 A 
ATOM     22  C   UNL     1       0.013  14.382  21.125  0.00  0.00    +0.000 A 
ATOM     23  H   UNL     1       1.721   9.883  19.129  0.00  0.00    +0.000 HD
ENDROOT
BRANCH  21  24
ATOM     24  C   UNL     1      -1.843  14.091  22.864  0.00  0.00    +0.000 A 
ATOM     25  C   UNL     1      -3.111  14.419  22.345  0.00  0.00    +0.000 A 
ATOM     26  C   UNL     1      -4.030  15.187  23.067  0.00  0.00    +0.000 A 
ATOM     27  C   UNL     1      -3.760  15.500  24.390  0.00  0.00    +0.000 A 
ATOM     28  C   UNL     1      -2.595  15.053  24.990  0.00  0.00    +0.000 A 
ATOM     29  C   UNL     1      -1.627  14.392  24.223  0.00  0.00    +0.000 A 
BRANCH  27  30
ATOM     30  O   UNL     1      -4.615  16.258  25.130  0.00  0.00    +0.000 OA
ATOM     31  H   UNL     1      -4.539  15.990  26.060  0.00  0.00    +0.000 HD
ENDBRANCH  27  30
ENDBRANCH  21  24
TORSDOF 2
ENDMDL
MODEL 6
REMARK VINA RESULT:      -7.2      3.292      5.654
REMARK  Name = 
REMARK  2 active torsions:
REMARK  status: ('A' for Active; 'I' for Inactive)
REMARK    1  A    between atoms: C_21  and  C_22
REMARK    2  A    between atoms: C_25  and  O_26
REMARK                            x       y       z     vdW  Elec       q    Type
REMARK                         _______ _______ _______ _____ _____    ______ ____
ROOT
ATOM      1  O   UNL     1      -0.664  15.351  21.640  0.00  0.00    +0.000 OA
ATOM      2  C   UNL     1      -0.180  15.056  20.556  0.00  0.00    +0.000 A 
ATOM      3  O   UNL     1       0.097  16.044  19.626  0.00  0.00    +0.000 OA
ATOM      4  C   UNL     1       1.221  15.886  18.810  0.00  0.00    +0.000 A 
ATOM      5  C   UNL     1       1.763  17.062  18.285  0.00  0.00    +0.000 A 
ATOM      6  C   UNL     1       2.912  16.988  17.513  0.00  0.00    +0.000 A 
ATOM      7  C   UNL     1       3.497  15.745  17.273  0.00  0.00    +0.000 A 
ATOM      8  C   UNL     1       2.929  14.573  17.799  0.00  0.00    +0.000 A 
ATOM      9  C   UNL     1       1.774  14.622  18.587  0.00  0.00    +0.000 A 
ATOM     10  C   UNL     1       1.129  13.455  19.208  0.00  0.00    +0.000 A 
ATOM     11  N   UNL     1       1.568  12.219  18.855  0.00  0.00    +0.000 NA
ATOM     12  C   UNL     1       1.013  11.156  19.504  0.00  0.00    +0.000 A 
ATOM     13  C   UNL     1      -0.035  11.239  20.441  0.00  0.00    +0.000 A 
ATOM     14  C   UNL     1      -0.483  10.021  21.019  0.00  0.00    +0.000 A 
ATOM     15  C   UNL     1       0.189   8.809  20.874  0.00  0.00    +0.000 A 
ATOM     16  C   UNL     1       1.193   8.731  19.911  0.00  0.00    +0.000 A 
ATOM     17  C   UNL     1       1.977   7.652  19.431  0.00  0.00    +0.000 A 
ATOM     18  C   UNL     1       2.599   8.097  18.291  0.00  0.00    +0.000 A 
ATOM     19  N   UNL     1       2.379   9.450  18.188  0.00  0.00    +0.000 N 
ATOM     20  C   UNL     1       1.532   9.878  19.189  0.00  0.00    +0.000 A 
ATOM     21  C   UNL     1      -0.558  12.543  20.732  0.00  0.00    +0.000 A 
ATOM     22  C   UNL     1       0.100  13.653  20.146  0.00  0.00    +0.000 A 
ATOM     23  H   UNL     1       2.693  10.040  17.432  0.00  0.00    +0.000 HD
ENDROOT
BRANCH  21  24
ATOM     24  C   UNL     1      -1.796  12.696  21.575  0.00  0.00    +0.000 A 
ATOM     25  C   UNL     1      -1.763  12.573  22.978  0.00  0.00    +0.000 A 
ATOM     26  C   UNL     1      -2.929  12.418  23.734  0.00  0.00    +0.000 A 
ATOM     27  C   UNL     1      -4.162  12.548  23.115  0.00  0.00    +0.000 A 
ATOM     28  C   UNL     1      -4.237  12.835  21.761  0.00  0.00    +0.000 A 
ATOM     29  C   UNL     1      -3.067  12.865  20.991  0.00  0.00    +0.000 A 
BRANCH  27  30
ATOM     30  O   UNL     1      -5.325  12.389  23.804  0.00  0.00    +0.000 OA
ATOM     31  H   UNL     1      -5.399  11.459  24.073  0.00  0.00    +0.000 HD
ENDBRANCH  27  30
ENDBRANCH  21  24
TORSDOF 2
ENDMDL
MODEL 7
REMARK VINA RESULT:      -7.1      3.480      5.621
REMARK  Name = 
REMARK  2 active torsions:
REMARK  status: ('A' for Active; 'I' for Inactive)
REMARK    1  A    between atoms: C_21  and  C_22
REMARK    2  A    between atoms: C_25  and  O_26
REMARK                            x       y       z     vdW  Elec       q    Type
REMARK                         _______ _______ _______ _____ _____    ______ ____
ROOT
ATOM      1  O   UNL     1      -0.793  13.743  22.928  0.00  0.00    +0.000 OA
ATOM      2  C   UNL     1      -0.415  13.946  21.783  0.00  0.00    +0.000 A 
ATOM      3  O   UNL     1       0.718  14.707  21.548  0.00  0.00    +0.000 OA
ATOM      4  C   UNL     1       1.534  14.360  20.468  0.00  0.00    +0.000 A 
ATOM      5  C   UNL     1       2.868  14.768  20.557  0.00  0.00    +0.000 A 
ATOM      6  C   UNL     1       3.750  14.411  19.549  0.00  0.00    +0.000 A 
ATOM      7  C   UNL     1       3.288  13.658  18.470  0.00  0.00    +0.000 A 
ATOM      8  C   UNL     1       1.941  13.269  18.393  0.00  0.00    +0.000 A 
ATOM      9  C   UNL     1       1.032  13.612  19.400  0.00  0.00    +0.000 A 
ATOM     10  C   UNL     1      -0.386  13.221  19.423  0.00  0.00    +0.000 A 
ATOM     11  N   UNL     1      -0.908  12.641  18.311  0.00  0.00    +0.000 NA
ATOM     12  C   UNL     1      -2.200  12.211  18.384  0.00  0.00    +0.000 A 
ATOM     13  C   UNL     1      -3.053  12.403  19.487  0.00  0.00    +0.000 A 
ATOM     14  C   UNL     1      -4.370  11.882  19.384  0.00  0.00    +0.000 A 
ATOM     15  C   UNL     1      -4.779  11.025  18.364  0.00  0.00    +0.000 A 
ATOM     16  C   UNL     1      -3.943  10.881  17.259  0.00  0.00    +0.000 A 
ATOM     17  C   UNL     1      -4.097  10.201  16.025  0.00  0.00    +0.000 A 
ATOM     18  C   UNL     1      -3.082  10.635  15.209  0.00  0.00    +0.000 A 
ATOM     19  N   UNL     1      -2.218  11.386  15.970  0.00  0.00    +0.000 N 
ATOM     20  C   UNL     1      -2.709  11.536  17.251  0.00  0.00    +0.000 A 
ATOM     21  C   UNL     1      -2.521  13.106  20.620  0.00  0.00    +0.000 A 
ATOM     22  C   UNL     1      -1.144  13.444  20.587  0.00  0.00    +0.000 A 
ATOM     23  H   UNL     1      -1.394  11.859  15.630  0.00  0.00    +0.000 HD
ENDROOT
BRANCH  21  24
ATOM     24  C   UNL     1      -3.421  13.514  21.755  0.00  0.00    +0.000 A 
ATOM     25  C   UNL     1      -3.758  12.626  22.796  0.00  0.00    +0.000 A 
ATOM     26  C   UNL     1      -4.810  12.888  23.679  0.00  0.00    +0.000 A 
ATOM     27  C   UNL     1      -5.438  14.123  23.639  0.00  0.00    +0.000 A 
ATOM     28  C   UNL     1      -5.023  15.089  22.737  0.00  0.00    +0.000 A 
ATOM     29  C   UNL     1      -4.054  14.772  21.776  0.00  0.00    +0.000 A 
BRANCH  27  30
ATOM     30  O   UNL     1      -6.477  14.420  24.467  0.00  0.00    +0.000 OA
ATOM     31  H   UNL     1      -7.089  15.007  23.994  0.00  0.00    +0.000 HD
ENDBRANCH  27  30
ENDBRANCH  21  24
TORSDOF 2
ENDMDL
MODEL 8
REMARK VINA RESULT:      -7.1      3.454      5.808
REMARK  Name = 
REMARK  2 active torsions:
REMARK  status: ('A' for Active; 'I' for Inactive)
REMARK    1  A    between atoms: C_21  and  C_22
REMARK    2  A    between atoms: C_25  and  O_26
REMARK                            x       y       z     vdW  Elec       q    Type
REMARK                         _______ _______ _______ _____ _____    ______ ____
ROOT
ATOM      1  O   UNL     1      -2.034  15.563  22.289  0.00  0.00    +0.000 OA
ATOM      2  C   UNL     1      -1.568  15.512  21.159  0.00  0.00    +0.000 A 
ATOM      3  O   UNL     1      -1.510  16.653  20.377  0.00  0.00    +0.000 OA
ATOM      4  C   UNL     1      -0.422  16.808  19.514  0.00  0.00    +0.000 A 
ATOM      5  C   UNL     1      -0.114  18.123  19.152  0.00  0.00    +0.000 A 
ATOM      6  C   UNL     1       0.987  18.358  18.344  0.00  0.00    +0.000 A 
ATOM      7  C   UNL     1       1.757  17.281  17.905  0.00  0.00    +0.000 A 
ATOM      8  C   UNL     1       1.422  15.966  18.269  0.00  0.00    +0.000 A 
ATOM      9  C   UNL     1       0.320  15.703  19.090  0.00  0.00    +0.000 A 
ATOM     10  C   UNL     1      -0.086  14.367  19.550  0.00  0.00    +0.000 A 
ATOM     11  N   UNL     1       0.532  13.287  19.005  0.00  0.00    +0.000 NA
ATOM     12  C   UNL     1       0.199  12.063  19.507  0.00  0.00    +0.000 A 
ATOM     13  C   UNL     1      -0.794  11.831  20.476  0.00  0.00    +0.000 A 
ATOM     14  C   UNL     1      -1.001  10.486  20.881  0.00  0.00    +0.000 A 
ATOM     15  C   UNL     1      -0.146   9.441  20.539  0.00  0.00    +0.000 A 
ATOM     16  C   UNL     1       0.803   9.674  19.545  0.00  0.00    +0.000 A 
ATOM     17  C   UNL     1       1.729   8.825  18.887  0.00  0.00    +0.000 A 
ATOM     18  C   UNL     1       2.204   9.526  17.808  0.00  0.00    +0.000 A 
ATOM     19  N   UNL     1       1.756  10.821  17.912  0.00  0.00    +0.000 N 
ATOM     20  C   UNL     1       0.906  10.952  18.991  0.00  0.00    +0.000 A 
ATOM     21  C   UNL     1      -1.512  12.971  20.973  0.00  0.00    +0.000 A 
ATOM     22  C   UNL     1      -1.081  14.250  20.538  0.00  0.00    +0.000 A 
ATOM     23  H   UNL     1       1.925  11.558  17.243  0.00  0.00    +0.000 HD
ENDROOT
BRANCH  21  24
ATOM     24  C   UNL     1      -2.709  12.788  21.866  0.00  0.00    +0.000 A 
ATOM     25  C   UNL     1      -4.026  12.920  21.384  0.00  0.00    +0.000 A 
ATOM     26  C   UNL     1      -5.120  13.047  22.246  0.00  0.00    +0.000 A 
ATOM     27  C   UNL     1      -4.933  12.877  23.608  0.00  0.00    +0.000 A 
ATOM     28  C   UNL     1      -3.676  12.579  24.109  0.00  0.00    +0.000 A 
ATOM     29  C   UNL     1      -2.569  12.578  23.252  0.00  0.00    +0.000 A 
BRANCH  27  30
ATOM     30  O   UNL     1      -5.963  13.006  24.489  0.00  0.00    +0.000 OA
ATOM     31  H   UNL     1      -6.742  13.326  24.007  0.00  0.00    +0.000 HD
ENDBRANCH  27  30
ENDBRANCH  21  24
TORSDOF 2
ENDMDL
MODEL 9
REMARK VINA RESULT:      -7.0      4.007      6.567
REMARK  Name = 
REMARK  2 active torsions:
REMARK  status: ('A' for Active; 'I' for Inactive)
REMARK    1  A    between atoms: C_21  and  C_22
REMARK    2  A    between atoms: C_25  and  O_26
REMARK                            x       y       z     vdW  Elec       q    Type
REMARK                         _______ _______ _______ _____ _____    ______ ____
ROOT
ATOM      1  O   UNL     1      -0.097  16.936  21.894  0.00  0.00    +0.000 OA
ATOM      2  C   UNL     1       0.199  16.229  20.941  0.00  0.00    +0.000 A 
ATOM      3  O   UNL     1       0.617  16.803  19.752  0.00  0.00    +0.000 OA
ATOM      4  C   UNL     1       1.589  16.136  19.002  0.00  0.00    +0.000 A 
ATOM      5  C   UNL     1       2.345  16.933  18.138  0.00  0.00    +0.000 A 
ATOM      6  C   UNL     1       3.366  16.350  17.404  0.00  0.00    +0.000 A 
ATOM      7  C   UNL     1       3.613  14.984  17.539  0.00  0.00    +0.000 A 
ATOM      8  C   UNL     1       2.833  14.198  18.403  0.00  0.00    +0.000 A 
ATOM      9  C   UNL     1       1.801  14.764  19.160  0.00  0.00    +0.000 A 
ATOM     10  C   UNL     1       0.956  14.029  20.114  0.00  0.00    +0.000 A 
ATOM     11  N   UNL     1       1.052  12.674  20.142  0.00  0.00    +0.000 NA
ATOM     12  C   UNL     1       0.323  12.021  21.091  0.00  0.00    +0.000 A 
ATOM     13  C   UNL     1      -0.583  12.634  21.977  0.00  0.00    +0.000 A 
ATOM     14  C   UNL     1      -1.253  11.790  22.902  0.00  0.00    +0.000 A 
ATOM     15  C   UNL     1      -0.907  10.458  23.117  0.00  0.00    +0.000 A 
ATOM     16  C   UNL     1      -0.044   9.853  22.205  0.00  0.00    +0.000 A 
ATOM     17  C   UNL     1       0.411   8.519  22.058  0.00  0.00    +0.000 A 
ATOM     18  C   UNL     1       1.013   8.444  20.826  0.00  0.00    +0.000 A 
ATOM     19  N   UNL     1       1.113   9.719  20.325  0.00  0.00    +0.000 N 
ATOM     20  C   UNL     1       0.490  10.619  21.166  0.00  0.00    +0.000 A 
ATOM     21  C   UNL     1      -0.750  14.055  21.872  0.00  0.00    +0.000 A 
ATOM     22  C   UNL     1       0.097  14.745  20.967  0.00  0.00    +0.000 A 
ATOM     23  H   UNL     1       1.487   9.968  19.421  0.00  0.00    +0.000 HD
ENDROOT
BRANCH  21  24
ATOM     24  C   UNL     1      -1.832  14.754  22.651  0.00  0.00    +0.000 A 
ATOM     25  C   UNL     1      -1.707  15.019  24.029  0.00  0.00    +0.000 A 
ATOM     26  C   UNL     1      -2.803  15.390  24.813  0.00  0.00    +0.000 A 
ATOM     27  C   UNL     1      -4.014  15.665  24.199  0.00  0.00    +0.000 A 
ATOM     28  C   UNL     1      -4.135  15.578  22.822  0.00  0.00    +0.000 A 
ATOM     29  C   UNL     1      -3.067  15.086  22.060  0.00  0.00    +0.000 A 
BRANCH  27  30
ATOM     30  O   UNL     1      -5.115  16.014  24.920  0.00  0.00    +0.000 OA
ATOM     31  H   UNL     1      -5.011  15.674  25.824  0.00  0.00    +0.000 HD
ENDBRANCH  27  30
ENDBRANCH  21  24
TORSDOF 2
ENDMDL
