MODEL 1
REMARK VINA RESULT:      -7.9      0.000      0.000
REMARK  Name = 
REMARK  9 active torsions:
REMARK  status: ('A' for Active; 'I' for Inactive)
REMARK    1  A    between atoms: C_1  and  O_2
REMARK    2  A    between atoms: O_2  and  C_3
REMARK    3  A    between atoms: C_7  and  O_8
REMARK    4  A    between atoms: O_8  and  C_9
REMARK    5  A    between atoms: C_9  and  C_10
REMARK    6  A    between atoms: C_12  and  C_13
REMARK    7  A    between atoms: N_18  and  C_19
REMARK    8  A    between atoms: C_24  and  O_25
REMARK    9  A    between atoms: O_25  and  C_26
REMARK                            x       y       z     vdW  Elec       q    Type
REMARK                         _______ _______ _______ _____ _____    ______ ____
ROOT
ATOM      1  C   UNL     1       2.323   6.208  19.727  0.00  0.00    +0.000 C 
ATOM      2  O   UNL     1       1.964   5.623  20.746  0.00  0.00    +0.000 OA
ATOM      3  N   UNL     1       1.937   7.522  19.463  0.00  0.00    +0.000 N 
ATOM      4  C   UNL     1       2.341   8.244  18.247  0.00  0.00    +0.000 C 
ATOM      5  C   UNL     1       1.402   9.388  17.905  0.00  0.00    +0.000 C 
ATOM      6  N   UNL     1       1.307  10.271  19.072  0.00  0.00    +0.000 N 
ATOM      7  C   UNL     1       0.695   9.596  20.231  0.00  0.00    +0.000 C 
ATOM      8  C   UNL     1       1.556   8.360  20.609  0.00  0.00    +0.000 C 
ENDROOT
BRANCH   6   9
ATOM      9  C   UNL     1       1.100  11.629  18.839  0.00  0.00    +0.000 A 
ATOM     10  C   UNL     1       2.203  12.521  18.854  0.00  0.00    +0.000 A 
ATOM     11  C   UNL     1       2.054  13.906  18.798  0.00  0.00    +0.000 A 
ATOM     12  C   UNL     1       0.789  14.455  18.698  0.00  0.00    +0.000 A 
ATOM     13  C   UNL     1      -0.315  13.611  18.616  0.00  0.00    +0.000 A 
ATOM     14  C   UNL     1      -0.175  12.213  18.683  0.00  0.00    +0.000 A 
BRANCH  14  15
ATOM     15  O   UNL     1      -1.379  11.567  18.545  0.00  0.00    +0.000 OA
ATOM     16  C   UNL     1      -2.396  11.888  19.480  0.00  0.00    +0.000 C 
ENDBRANCH  14  15
ENDBRANCH   6   9
BRANCH   1  19
ATOM     17  C   UNL     1       4.819   4.718  17.556  0.00  0.00    +0.000 A 
ATOM     18  C   UNL     1       4.548   5.548  18.611  0.00  0.00    +0.000 A 
ATOM     19  C   UNL     1       3.139   5.510  18.726  0.00  0.00    +0.000 A 
ATOM     20  N   UNL     1       2.609   4.761  17.742  0.00  0.00    +0.000 NA
ATOM     21  O   UNL     1       3.664   4.234  17.044  0.00  0.00    +0.000 OA
BRANCH  17  22
ATOM     22  C   UNL     1       6.043   4.316  16.862  0.00  0.00    +0.000 C 
BRANCH  22  23
ATOM     23  O   UNL     1       6.255   5.325  15.880  0.00  0.00    +0.000 OA
BRANCH  23  28
ATOM     24  C   UNL     1       5.982   3.544  12.659  0.00  0.00    +0.000 A 
ATOM     25  C   UNL     1       7.063   4.129  12.003  0.00  0.00    +0.000 A 
ATOM     26  C   UNL     1       7.836   5.099  12.639  0.00  0.00    +0.000 A 
ATOM     27  C   UNL     1       7.531   5.480  13.944  0.00  0.00    +0.000 A 
ATOM     28  C   UNL     1       6.454   4.893  14.606  0.00  0.00    +0.000 A 
ATOM     29  C   UNL     1       5.678   3.930  13.956  0.00  0.00    +0.000 A 
BRANCH  24  31
ATOM     30  C   UNL     1       4.165   3.085  11.202  0.00  0.00    +0.000 C 
ATOM     31  O   UNL     1       5.292   2.603  11.934  0.00  0.00    +0.000 OA
ENDBRANCH  24  31
ENDBRANCH  23  28
ENDBRANCH  22  23
ENDBRANCH  17  22
ENDBRANCH   1  19
TORSDOF 7
ENDMDL
MODEL 2
REMARK VINA RESULT:      -7.4      5.658      9.344
REMARK  Name = 
REMARK  9 active torsions:
REMARK  status: ('A' for Active; 'I' for Inactive)
REMARK    1  A    between atoms: C_1  and  O_2
REMARK    2  A    between atoms: O_2  and  C_3
REMARK    3  A    between atoms: C_7  and  O_8
REMARK    4  A    between atoms: O_8  and  C_9
REMARK    5  A    between atoms: C_9  and  C_10
REMARK    6  A    between atoms: C_12  and  C_13
REMARK    7  A    between atoms: N_18  and  C_19
REMARK    8  A    between atoms: C_24  and  O_25
REMARK    9  A    between atoms: O_25  and  C_26
REMARK                            x       y       z     vdW  Elec       q    Type
REMARK                         _______ _______ _______ _____ _____    ______ ____
ROOT
ATOM      1  C   UNL     1       7.206   6.372  16.808  0.00  0.00    +0.000 C 
ATOM      2  O   UNL     1       7.673   6.144  15.695  0.00  0.00    +0.000 OA
ATOM      3  N   UNL     1       6.045   5.742  17.258  0.00  0.00    +0.000 N 
ATOM      4  C   UNL     1       5.456   6.003  18.580  0.00  0.00    +0.000 C 
ATOM      5  C   UNL     1       3.976   5.668  18.640  0.00  0.00    +0.000 C 
ATOM      6  N   UNL     1       3.802   4.274  18.217  0.00  0.00    +0.000 N 
ATOM      7  C   UNL     1       4.193   4.067  16.811  0.00  0.00    +0.000 C 
ATOM      8  C   UNL     1       5.687   4.458  16.639  0.00  0.00    +0.000 C 
ENDROOT
BRANCH   6   9
ATOM      9  C   UNL     1       2.754   3.554  18.785  0.00  0.00    +0.000 A 
ATOM     10  C   UNL     1       1.498   3.504  18.127  0.00  0.00    +0.000 A 
ATOM     11  C   UNL     1       0.361   2.948  18.713  0.00  0.00    +0.000 A 
ATOM     12  C   UNL     1       0.442   2.395  19.977  0.00  0.00    +0.000 A 
ATOM     13  C   UNL     1       1.672   2.367  20.630  0.00  0.00    +0.000 A 
ATOM     14  C   UNL     1       2.821   2.935  20.052  0.00  0.00    +0.000 A 
BRANCH  14  15
ATOM     15  O   UNL     1       3.932   2.767  20.842  0.00  0.00    +0.000 OA
ATOM     16  C   UNL     1       4.794   1.687  20.524  0.00  0.00    +0.000 C 
ENDBRANCH  14  15
ENDBRANCH   6   9
BRANCH   1  19
ATOM     17  C   UNL     1       8.594   9.231  18.558  0.00  0.00    +0.000 A 
ATOM     18  C   UNL     1       7.959   8.751  17.443  0.00  0.00    +0.000 A 
ATOM     19  C   UNL     1       7.842   7.363  17.684  0.00  0.00    +0.000 A 
ATOM     20  N   UNL     1       8.447   7.036  18.841  0.00  0.00    +0.000 NA
ATOM     21  O   UNL     1       8.873   8.211  19.403  0.00  0.00    +0.000 OA
BRANCH  17  22
ATOM     22  C   UNL     1       9.066  10.552  18.975  0.00  0.00    +0.000 C 
BRANCH  22  23
ATOM     23  O   UNL     1       8.786  11.406  17.870  0.00  0.00    +0.000 OA
BRANCH  23  28
ATOM     24  C   UNL     1      10.079  14.860  17.744  0.00  0.00    +0.000 A 
ATOM     25  C   UNL     1      11.388  14.581  17.357  0.00  0.00    +0.000 A 
ATOM     26  C   UNL     1      11.803  13.264  17.163  0.00  0.00    +0.000 A 
ATOM     27  C   UNL     1      10.899  12.220  17.350  0.00  0.00    +0.000 A 
ATOM     28  C   UNL     1       9.587  12.495  17.732  0.00  0.00    +0.000 A 
ATOM     29  C   UNL     1       9.184  13.817  17.935  0.00  0.00    +0.000 A 
BRANCH  24  31
ATOM     30  C   UNL     1      10.599  17.104  17.171  0.00  0.00    +0.000 C 
ATOM     31  O   UNL     1       9.784  16.192  17.908  0.00  0.00    +0.000 OA
ENDBRANCH  24  31
ENDBRANCH  23  28
ENDBRANCH  22  23
ENDBRANCH  17  22
ENDBRANCH   1  19
TORSDOF 7
ENDMDL
MODEL 3
REMARK VINA RESULT:      -7.3      3.095      5.097
REMARK  Name = 
REMARK  9 active torsions:
REMARK  status: ('A' for Active; 'I' for Inactive)
REMARK    1  A    between atoms: C_1  and  O_2
REMARK    2  A    between atoms: O_2  and  C_3
REMARK    3  A    between atoms: C_7  and  O_8
REMARK    4  A    between atoms: O_8  and  C_9
REMARK    5  A    between atoms: C_9  and  C_10
REMARK    6  A    between atoms: C_12  and  C_13
REMARK    7  A    between atoms: N_18  and  C_19
REMARK    8  A    between atoms: C_24  and  O_25
REMARK    9  A    between atoms: O_25  and  C_26
REMARK                            x       y       z     vdW  Elec       q    Type
REMARK                         _______ _______ _______ _____ _____    ______ ____
ROOT
ATOM      1  C   UNL     1       1.599   9.947  18.541  0.00  0.00    +0.000 C 
ATOM      2  O   UNL     1       2.147  10.570  17.635  0.00  0.00    +0.000 OA
ATOM      3  N   UNL     1       0.661  10.547  19.382  0.00  0.00    +0.000 N 
ATOM      4  C   UNL     1      -0.002   9.829  20.480  0.00  0.00    +0.000 C 
ATOM      5  C   UNL     1      -0.523  10.762  21.560  0.00  0.00    +0.000 C 
ATOM      6  N   UNL     1      -1.403  11.751  20.929  0.00  0.00    +0.000 N 
ATOM      7  C   UNL     1      -0.676  12.617  19.982  0.00  0.00    +0.000 C 
ATOM      8  C   UNL     1      -0.043  11.733  18.874  0.00  0.00    +0.000 C 
ENDROOT
BRANCH   6   9
ATOM      9  C   UNL     1      -2.465  12.244  21.683  0.00  0.00    +0.000 A 
ATOM     10  C   UNL     1      -2.385  12.238  23.100  0.00  0.00    +0.000 A 
ATOM     11  C   UNL     1      -3.468  12.555  23.919  0.00  0.00    +0.000 A 
ATOM     12  C   UNL     1      -4.674  12.918  23.349  0.00  0.00    +0.000 A 
ATOM     13  C   UNL     1      -4.775  12.998  21.962  0.00  0.00    +0.000 A 
ATOM     14  C   UNL     1      -3.692  12.669  21.129  0.00  0.00    +0.000 A 
BRANCH  14  15
ATOM     15  O   UNL     1      -3.990  12.851  19.800  0.00  0.00    +0.000 OA
ATOM     16  C   UNL     1      -5.343  12.681  19.411  0.00  0.00    +0.000 C 
ENDBRANCH  14  15
ENDBRANCH   6   9
BRANCH   1  19
ATOM     17  C   UNL     1       2.591   6.457  18.560  0.00  0.00    +0.000 A 
ATOM     18  C   UNL     1       2.320   7.580  17.825  0.00  0.00    +0.000 A 
ATOM     19  C   UNL     1       1.960   8.546  18.793  0.00  0.00    +0.000 A 
ATOM     20  N   UNL     1       1.943   7.994  20.020  0.00  0.00    +0.000 NA
ATOM     21  O   UNL     1       2.382   6.705  19.873  0.00  0.00    +0.000 OA
BRANCH  17  22
ATOM     22  C   UNL     1       2.982   5.087  18.223  0.00  0.00    +0.000 C 
BRANCH  22  23
ATOM     23  O   UNL     1       3.975   5.228  17.213  0.00  0.00    +0.000 OA
BRANCH  23  28
ATOM     24  C   UNL     1       7.136   7.102  17.556  0.00  0.00    +0.000 A 
ATOM     25  C   UNL     1       7.702   6.371  18.599  0.00  0.00    +0.000 A 
ATOM     26  C   UNL     1       7.018   5.294  19.161  0.00  0.00    +0.000 A 
ATOM     27  C   UNL     1       5.762   4.941  18.670  0.00  0.00    +0.000 A 
ATOM     28  C   UNL     1       5.195   5.667  17.625  0.00  0.00    +0.000 A 
ATOM     29  C   UNL     1       5.883   6.751  17.076  0.00  0.00    +0.000 A 
BRANCH  24  31
ATOM     30  C   UNL     1       8.340   9.085  18.062  0.00  0.00    +0.000 C 
ATOM     31  O   UNL     1       7.899   8.142  17.084  0.00  0.00    +0.000 OA
ENDBRANCH  24  31
ENDBRANCH  23  28
ENDBRANCH  22  23
ENDBRANCH  17  22
ENDBRANCH   1  19
TORSDOF 7
ENDMDL
MODEL 4
REMARK VINA RESULT:      -7.2      2.495     10.546
REMARK  Name = 
REMARK  9 active torsions:
REMARK  status: ('A' for Active; 'I' for Inactive)
REMARK    1  A    between atoms: C_1  and  O_2
REMARK    2  A    between atoms: O_2  and  C_3
REMARK    3  A    between atoms: C_7  and  O_8
REMARK    4  A    between atoms: O_8  and  C_9
REMARK    5  A    between atoms: C_9  and  C_10
REMARK    6  A    between atoms: C_12  and  C_13
REMARK    7  A    between atoms: N_18  and  C_19
REMARK    8  A    between atoms: C_24  and  O_25
REMARK    9  A    between atoms: O_25  and  C_26
REMARK                            x       y       z     vdW  Elec       q    Type
REMARK                         _______ _______ _______ _____ _____    ______ ____
ROOT
ATOM      1  C   UNL     1       1.000   8.791  20.453  0.00  0.00    +0.000 C 
ATOM      2  O   UNL     1       0.743   8.492  21.617  0.00  0.00    +0.000 OA
ATOM      3  N   UNL     1       1.882   8.034  19.680  0.00  0.00    +0.000 N 
ATOM      4  C   UNL     1       2.217   8.373  18.289  0.00  0.00    +0.000 C 
ATOM      5  C   UNL     1       3.547   7.788  17.847  0.00  0.00    +0.000 C 
ATOM      6  N   UNL     1       3.512   6.340  18.075  0.00  0.00    +0.000 N 
ATOM      7  C   UNL     1       3.395   6.006  19.506  0.00  0.00    +0.000 C 
ATOM      8  C   UNL     1       2.087   6.631  20.065  0.00  0.00    +0.000 C 
ENDROOT
BRANCH   6   9
ATOM      9  C   UNL     1       4.242   5.532  17.206  0.00  0.00    +0.000 A 
ATOM     10  C   UNL     1       5.252   6.108  16.392  0.00  0.00    +0.000 A 
ATOM     11  C   UNL     1       5.903   5.399  15.383  0.00  0.00    +0.000 A 
ATOM     12  C   UNL     1       5.586   4.071  15.165  0.00  0.00    +0.000 A 
ATOM     13  C   UNL     1       4.646   3.452  15.985  0.00  0.00    +0.000 A 
ATOM     14  C   UNL     1       3.976   4.162  16.996  0.00  0.00    +0.000 A 
BRANCH  14  15
ATOM     15  O   UNL     1       3.121   3.359  17.711  0.00  0.00    +0.000 OA
ATOM     16  C   UNL     1       3.705   2.373  18.546  0.00  0.00    +0.000 C 
ENDBRANCH  14  15
ENDBRANCH   6   9
BRANCH   1  19
ATOM     17  C   UNL     1      -0.937  11.414  18.863  0.00  0.00    +0.000 A 
ATOM     18  C   UNL     1      -0.841  10.093  19.209  0.00  0.00    +0.000 A 
ATOM     19  C   UNL     1       0.413   9.996  19.856  0.00  0.00    +0.000 A 
ATOM     20  N   UNL     1       1.051  11.181  19.818  0.00  0.00    +0.000 NA
ATOM     21  O   UNL     1       0.184  12.071  19.239  0.00  0.00    +0.000 OA
BRANCH  17  22
ATOM     22  C   UNL     1      -1.934  12.211  18.146  0.00  0.00    +0.000 C 
BRANCH  22  23
ATOM     23  O   UNL     1      -2.969  11.291  17.815  0.00  0.00    +0.000 OA
BRANCH  23  28
ATOM     24  C   UNL     1      -5.652  12.326  20.127  0.00  0.00    +0.000 A 
ATOM     25  C   UNL     1      -6.743  11.813  19.427  0.00  0.00    +0.000 A 
ATOM     26  C   UNL     1      -6.557  11.155  18.212  0.00  0.00    +0.000 A 
ATOM     27  C   UNL     1      -5.271  11.002  17.698  0.00  0.00    +0.000 A 
ATOM     28  C   UNL     1      -4.178  11.510  18.397  0.00  0.00    +0.000 A 
ATOM     29  C   UNL     1      -4.375  12.177  19.608  0.00  0.00    +0.000 A 
BRANCH  24  31
ATOM     30  C   UNL     1      -4.902  13.016  22.270  0.00  0.00    +0.000 C 
ATOM     31  O   UNL     1      -5.956  12.956  21.309  0.00  0.00    +0.000 OA
ENDBRANCH  24  31
ENDBRANCH  23  28
ENDBRANCH  22  23
ENDBRANCH  17  22
ENDBRANCH   1  19
TORSDOF 7
ENDMDL
MODEL 5
REMARK VINA RESULT:      -7.1      2.939     10.602
REMARK  Name = 
REMARK  9 active torsions:
REMARK  status: ('A' for Active; 'I' for Inactive)
REMARK    1  A    between atoms: C_1  and  O_2
REMARK    2  A    between atoms: O_2  and  C_3
REMARK    3  A    between atoms: C_7  and  O_8
REMARK    4  A    between atoms: O_8  and  C_9
REMARK    5  A    between atoms: C_9  and  C_10
REMARK    6  A    between atoms: C_12  and  C_13
REMARK    7  A    between atoms: N_18  and  C_19
REMARK    8  A    between atoms: C_24  and  O_25
REMARK    9  A    between atoms: O_25  and  C_26
REMARK                            x       y       z     vdW  Elec       q    Type
REMARK                         _______ _______ _______ _____ _____    ______ ____
ROOT
ATOM      1  C   UNL     1       0.573   9.161  20.404  0.00  0.00    +0.000 C 
ATOM      2  O   UNL     1       0.485   9.039  21.623  0.00  0.00    +0.000 OA
ATOM      3  N   UNL     1       1.495   8.425  19.658  0.00  0.00    +0.000 N 
ATOM      4  C   UNL     1       1.630   8.558  18.200  0.00  0.00    +0.000 C 
ATOM      5  C   UNL     1       2.994   8.118  17.695  0.00  0.00    +0.000 C 
ATOM      6  N   UNL     1       3.236   6.747  18.156  0.00  0.00    +0.000 N 
ATOM      7  C   UNL     1       3.316   6.660  19.626  0.00  0.00    +0.000 C 
ATOM      8  C   UNL     1       1.979   7.163  20.235  0.00  0.00    +0.000 C 
ENDROOT
BRANCH   6   9
ATOM      9  C   UNL     1       4.009   5.921  17.344  0.00  0.00    +0.000 A 
ATOM     10  C   UNL     1       4.870   6.495  16.374  0.00  0.00    +0.000 A 
ATOM     11  C   UNL     1       5.542   5.735  15.417  0.00  0.00    +0.000 A 
ATOM     12  C   UNL     1       5.399   4.360  15.410  0.00  0.00    +0.000 A 
ATOM     13  C   UNL     1       4.614   3.753  16.387  0.00  0.00    +0.000 A 
ATOM     14  C   UNL     1       3.923   4.512  17.348  0.00  0.00    +0.000 A 
BRANCH  14  15
ATOM     15  O   UNL     1       3.240   3.719  18.237  0.00  0.00    +0.000 OA
ATOM     16  C   UNL     1       2.915   2.404  17.815  0.00  0.00    +0.000 C 
ENDBRANCH  14  15
ENDBRANCH   6   9
BRANCH   1  19
ATOM     17  C   UNL     1      -1.743  11.074  18.369  0.00  0.00    +0.000 A 
ATOM     18  C   UNL     1      -1.195   9.855  18.664  0.00  0.00    +0.000 A 
ATOM     19  C   UNL     1      -0.272  10.133  19.698  0.00  0.00    +0.000 A 
ATOM     20  N   UNL     1      -0.224  11.456  19.939  0.00  0.00    +0.000 NA
ATOM     21  O   UNL     1      -1.177  12.031  19.140  0.00  0.00    +0.000 OA
BRANCH  17  22
ATOM     22  C   UNL     1      -2.727  11.542  17.391  0.00  0.00    +0.000 C 
BRANCH  22  23
ATOM     23  O   UNL     1      -3.849  10.683  17.562  0.00  0.00    +0.000 OA
BRANCH  23  28
ATOM     24  C   UNL     1      -7.001  11.673  19.206  0.00  0.00    +0.000 A 
ATOM     25  C   UNL     1      -7.436  12.616  18.277  0.00  0.00    +0.000 A 
ATOM     26  C   UNL     1      -6.670  12.902  17.148  0.00  0.00    +0.000 A 
ATOM     27  C   UNL     1      -5.464  12.234  16.943  0.00  0.00    +0.000 A 
ATOM     28  C   UNL     1      -5.029  11.286  17.867  0.00  0.00    +0.000 A 
ATOM     29  C   UNL     1      -5.798  11.015  19.001  0.00  0.00    +0.000 A 
BRANCH  24  31
ATOM     30  C   UNL     1      -7.897  10.141  20.782  0.00  0.00    +0.000 C 
ATOM     31  O   UNL     1      -7.836  11.475  20.279  0.00  0.00    +0.000 OA
ENDBRANCH  24  31
ENDBRANCH  23  28
ENDBRANCH  22  23
ENDBRANCH  17  22
ENDBRANCH   1  19
TORSDOF 7
ENDMDL
MODEL 6
REMARK VINA RESULT:      -7.1      2.731      4.553
REMARK  Name = 
REMARK  9 active torsions:
REMARK  status: ('A' for Active; 'I' for Inactive)
REMARK    1  A    between atoms: C_1  and  O_2
REMARK    2  A    between atoms: O_2  and  C_3
REMARK    3  A    between atoms: C_7  and  O_8
REMARK    4  A    between atoms: O_8  and  C_9
REMARK    5  A    between atoms: C_9  and  C_10
REMARK    6  A    between atoms: C_12  and  C_13
REMARK    7  A    between atoms: N_18  and  C_19
REMARK    8  A    between atoms: C_24  and  O_25
REMARK    9  A    between atoms: O_25  and  C_26
REMARK                            x       y       z     vdW  Elec       q    Type
REMARK                         _______ _______ _______ _____ _____    ______ ____
ROOT
ATOM      1  C   UNL     1       1.873   8.932  18.450  0.00  0.00    +0.000 C 
ATOM      2  O   UNL     1       2.379   9.393  17.430  0.00  0.00    +0.000 OA
ATOM      3  N   UNL     1       1.037   9.697  19.264  0.00  0.00    +0.000 N 
ATOM      4  C   UNL     1       0.426   9.176  20.495  0.00  0.00    +0.000 C 
ATOM      5  C   UNL     1       0.040  10.275  21.470  0.00  0.00    +0.000 C 
ATOM      6  N   UNL     1      -0.834  11.224  20.772  0.00  0.00    +0.000 N 
ATOM      7  C   UNL     1      -0.140  11.908  19.665  0.00  0.00    +0.000 C 
ATOM      8  C   UNL     1       0.358  10.845  18.647  0.00  0.00    +0.000 C 
ENDROOT
BRANCH   6   9
ATOM      9  C   UNL     1      -1.806  11.878  21.523  0.00  0.00    +0.000 A 
ATOM     10  C   UNL     1      -1.765  11.809  22.940  0.00  0.00    +0.000 A 
ATOM     11  C   UNL     1      -2.792  12.292  23.750  0.00  0.00    +0.000 A 
ATOM     12  C   UNL     1      -3.896  12.891  23.172  0.00  0.00    +0.000 A 
ATOM     13  C   UNL     1      -3.945  13.036  21.787  0.00  0.00    +0.000 A 
ATOM     14  C   UNL     1      -2.919  12.541  20.963  0.00  0.00    +0.000 A 
BRANCH  14  15
ATOM     15  O   UNL     1      -3.144  12.820  19.637  0.00  0.00    +0.000 OA
ATOM     16  C   UNL     1      -3.884  11.868  18.891  0.00  0.00    +0.000 C 
ENDBRANCH  14  15
ENDBRANCH   6   9
BRANCH   1  19
ATOM     17  C   UNL     1       2.692   5.424  18.881  0.00  0.00    +0.000 A 
ATOM     18  C   UNL     1       2.431   6.455  18.019  0.00  0.00    +0.000 A 
ATOM     19  C   UNL     1       2.179   7.558  18.867  0.00  0.00    +0.000 A 
ATOM     20  N   UNL     1       2.212   7.174  20.156  0.00  0.00    +0.000 NA
ATOM     21  O   UNL     1       2.577   5.853  20.159  0.00  0.00    +0.000 OA
BRANCH  17  22
ATOM     22  C   UNL     1       2.994   4.002  18.710  0.00  0.00    +0.000 C 
BRANCH  22  23
ATOM     23  O   UNL     1       4.333   3.854  19.170  0.00  0.00    +0.000 OA
BRANCH  23  28
ATOM     24  C   UNL     1       7.123   6.014  18.087  0.00  0.00    +0.000 A 
ATOM     25  C   UNL     1       7.158   5.652  16.741  0.00  0.00    +0.000 A 
ATOM     26  C   UNL     1       6.271   4.701  16.240  0.00  0.00    +0.000 A 
ATOM     27  C   UNL     1       5.336   4.113  17.090  0.00  0.00    +0.000 A 
ATOM     28  C   UNL     1       5.294   4.475  18.435  0.00  0.00    +0.000 A 
ATOM     29  C   UNL     1       6.194   5.422  18.930  0.00  0.00    +0.000 A 
BRANCH  24  31
ATOM     30  C   UNL     1       7.988   8.201  17.767  0.00  0.00    +0.000 C 
ATOM     31  O   UNL     1       8.045   6.958  18.467  0.00  0.00    +0.000 OA
ENDBRANCH  24  31
ENDBRANCH  23  28
ENDBRANCH  22  23
ENDBRANCH  17  22
ENDBRANCH   1  19
TORSDOF 7
ENDMDL
MODEL 7
REMARK VINA RESULT:      -7.1      5.507      9.795
REMARK  Name = 
REMARK  9 active torsions:
REMARK  status: ('A' for Active; 'I' for Inactive)
REMARK    1  A    between atoms: C_1  and  O_2
REMARK    2  A    between atoms: O_2  and  C_3
REMARK    3  A    between atoms: C_7  and  O_8
REMARK    4  A    between atoms: O_8  and  C_9
REMARK    5  A    between atoms: C_9  and  C_10
REMARK    6  A    between atoms: C_12  and  C_13
REMARK    7  A    between atoms: N_18  and  C_19
REMARK    8  A    between atoms: C_24  and  O_25
REMARK    9  A    between atoms: O_25  and  C_26
REMARK                            x       y       z     vdW  Elec       q    Type
REMARK                         _______ _______ _______ _____ _____    ______ ____
ROOT
ATOM      1  C   UNL     1       7.088   6.313  16.978  0.00  0.00    +0.000 C 
ATOM      2  O   UNL     1       7.452   5.968  15.856  0.00  0.00    +0.000 OA
ATOM      3  N   UNL     1       6.013   5.699  17.621  0.00  0.00    +0.000 N 
ATOM      4  C   UNL     1       5.548   6.098  18.957  0.00  0.00    +0.000 C 
ATOM      5  C   UNL     1       4.101   5.714  19.214  0.00  0.00    +0.000 C 
ATOM      6  N   UNL     1       3.958   4.273  18.981  0.00  0.00    +0.000 N 
ATOM      7  C   UNL     1       4.215   3.910  17.575  0.00  0.00    +0.000 C 
ATOM      8  C   UNL     1       5.661   4.335  17.200  0.00  0.00    +0.000 C 
ENDROOT
BRANCH   6   9
ATOM      9  C   UNL     1       3.011   3.588  19.738  0.00  0.00    +0.000 A 
ATOM     10  C   UNL     1       1.631   3.860  19.551  0.00  0.00    +0.000 A 
ATOM     11  C   UNL     1       0.640   3.342  20.385  0.00  0.00    +0.000 A 
ATOM     12  C   UNL     1       0.991   2.505  21.428  0.00  0.00    +0.000 A 
ATOM     13  C   UNL     1       2.329   2.163  21.605  0.00  0.00    +0.000 A 
ATOM     14  C   UNL     1       3.336   2.690  20.777  0.00  0.00    +0.000 A 
BRANCH  14  15
ATOM     15  O   UNL     1       4.578   2.197  21.097  0.00  0.00    +0.000 OA
ATOM     16  C   UNL     1       5.039   1.078  20.358  0.00  0.00    +0.000 C 
ENDBRANCH  14  15
ENDBRANCH   6   9
BRANCH   1  19
ATOM     17  C   UNL     1       8.494   9.418  18.220  0.00  0.00    +0.000 A 
ATOM     18  C   UNL     1       7.775   8.781  17.245  0.00  0.00    +0.000 A 
ATOM     19  C   UNL     1       7.758   7.429  17.658  0.00  0.00    +0.000 A 
ATOM     20  N   UNL     1       8.495   7.271  18.772  0.00  0.00    +0.000 NA
ATOM     21  O   UNL     1       8.913   8.522  19.143  0.00  0.00    +0.000 OA
BRANCH  17  22
ATOM     22  C   UNL     1       8.936  10.799  18.425  0.00  0.00    +0.000 C 
BRANCH  22  23
ATOM     23  O   UNL     1       9.770  10.749  19.578  0.00  0.00    +0.000 OA
BRANCH  23  28
ATOM     24  C   UNL     1       9.193  13.267  22.213  0.00  0.00    +0.000 A 
ATOM     25  C   UNL     1      10.020  14.277  21.724  0.00  0.00    +0.000 A 
ATOM     26  C   UNL     1      10.748  14.088  20.551  0.00  0.00    +0.000 A 
ATOM     27  C   UNL     1      10.642  12.884  19.857  0.00  0.00    +0.000 A 
ATOM     28  C   UNL     1       9.812  11.874  20.340  0.00  0.00    +0.000 A 
ATOM     29  C   UNL     1       9.095  12.069  21.523  0.00  0.00    +0.000 A 
BRANCH  24  31
ATOM     30  C   UNL     1       7.603  14.650  23.306  0.00  0.00    +0.000 C 
ATOM     31  O   UNL     1       8.527  13.564  23.377  0.00  0.00    +0.000 OA
ENDBRANCH  24  31
ENDBRANCH  23  28
ENDBRANCH  22  23
ENDBRANCH  17  22
ENDBRANCH   1  19
TORSDOF 7
ENDMDL
MODEL 8
REMARK VINA RESULT:      -7.1      2.055      3.233
REMARK  Name = 
REMARK  9 active torsions:
REMARK  status: ('A' for Active; 'I' for Inactive)
REMARK    1  A    between atoms: C_1  and  O_2
REMARK    2  A    between atoms: O_2  and  C_3
REMARK    3  A    between atoms: C_7  and  O_8
REMARK    4  A    between atoms: O_8  and  C_9
REMARK    5  A    between atoms: C_9  and  C_10
REMARK    6  A    between atoms: C_12  and  C_13
REMARK    7  A    between atoms: N_18  and  C_19
REMARK    8  A    between atoms: C_24  and  O_25
REMARK    9  A    between atoms: O_25  and  C_26
REMARK                            x       y       z     vdW  Elec       q    Type
REMARK                         _______ _______ _______ _____ _____    ______ ____
ROOT
ATOM      1  C   UNL     1       4.691   4.364  18.809  0.00  0.00    +0.000 C 
ATOM      2  O   UNL     1       4.577   3.360  19.508  0.00  0.00    +0.000 OA
ATOM      3  N   UNL     1       3.814   5.442  18.926  0.00  0.00    +0.000 N 
ATOM      4  C   UNL     1       3.919   6.651  18.096  0.00  0.00    +0.000 C 
ATOM      5  C   UNL     1       2.606   7.408  17.994  0.00  0.00    +0.000 C 
ATOM      6  N   UNL     1       2.137   7.704  19.352  0.00  0.00    +0.000 N 
ATOM      7  C   UNL     1       1.824   6.478  20.110  0.00  0.00    +0.000 C 
ATOM      8  C   UNL     1       3.102   5.601  20.202  0.00  0.00    +0.000 C 
ENDROOT
BRANCH   6   9
ATOM      9  C   UNL     1       1.405   8.873  19.542  0.00  0.00    +0.000 A 
ATOM     10  C   UNL     1       0.968   9.620  18.417  0.00  0.00    +0.000 A 
ATOM     11  C   UNL     1       0.382  10.880  18.529  0.00  0.00    +0.000 A 
ATOM     12  C   UNL     1       0.185  11.435  19.780  0.00  0.00    +0.000 A 
ATOM     13  C   UNL     1       0.542  10.706  20.912  0.00  0.00    +0.000 A 
ATOM     14  C   UNL     1       1.144   9.440  20.808  0.00  0.00    +0.000 A 
BRANCH  14  15
ATOM     15  O   UNL     1       1.380   8.878  22.039  0.00  0.00    +0.000 OA
ATOM     16  C   UNL     1       0.449   9.164  23.070  0.00  0.00    +0.000 C 
ENDBRANCH  14  15
ENDBRANCH   6   9
BRANCH   1  19
ATOM     17  C   UNL     1       6.823   4.521  15.878  0.00  0.00    +0.000 A 
ATOM     18  C   UNL     1       5.557   4.393  16.384  0.00  0.00    +0.000 A 
ATOM     19  C   UNL     1       5.741   4.432  17.785  0.00  0.00    +0.000 A 
ATOM     20  N   UNL     1       7.052   4.499  18.083  0.00  0.00    +0.000 NA
ATOM     21  O   UNL     1       7.717   4.600  16.890  0.00  0.00    +0.000 OA
BRANCH  17  22
ATOM     22  C   UNL     1       7.387   4.526  14.526  0.00  0.00    +0.000 C 
BRANCH  22  23
ATOM     23  O   UNL     1       6.308   4.913  13.682  0.00  0.00    +0.000 OA
BRANCH  23  28
ATOM     24  C   UNL     1       4.321   3.008  11.223  0.00  0.00    +0.000 A 
ATOM     25  C   UNL     1       5.212   1.960  10.999  0.00  0.00    +0.000 A 
ATOM     26  C   UNL     1       6.441   1.924  11.656  0.00  0.00    +0.000 A 
ATOM     27  C   UNL     1       6.778   2.939  12.550  0.00  0.00    +0.000 A 
ATOM     28  C   UNL     1       5.887   3.986  12.780  0.00  0.00    +0.000 A 
ATOM     29  C   UNL     1       4.663   4.019  12.109  0.00  0.00    +0.000 A 
BRANCH  24  31
ATOM     30  C   UNL     1       2.860   4.051   9.671  0.00  0.00    +0.000 C 
ATOM     31  O   UNL     1       3.143   2.939  10.520  0.00  0.00    +0.000 OA
ENDBRANCH  24  31
ENDBRANCH  23  28
ENDBRANCH  22  23
ENDBRANCH  17  22
ENDBRANCH   1  19
TORSDOF 7
ENDMDL
MODEL 9
REMARK VINA RESULT:      -7.0      5.504      9.208
REMARK  Name = 
REMARK  9 active torsions:
REMARK  status: ('A' for Active; 'I' for Inactive)
REMARK    1  A    between atoms: C_1  and  O_2
REMARK    2  A    between atoms: O_2  and  C_3
REMARK    3  A    between atoms: C_7  and  O_8
REMARK    4  A    between atoms: O_8  and  C_9
REMARK    5  A    between atoms: C_9  and  C_10
REMARK    6  A    between atoms: C_12  and  C_13
REMARK    7  A    between atoms: N_18  and  C_19
REMARK    8  A    between atoms: C_24  and  O_25
REMARK    9  A    between atoms: O_25  and  C_26
REMARK                            x       y       z     vdW  Elec       q    Type
REMARK                         _______ _______ _______ _____ _____    ______ ____
ROOT
ATOM      1  C   UNL     1       7.184   6.639  16.867  0.00  0.00    +0.000 C 
ATOM      2  O   UNL     1       7.768   6.182  15.888  0.00  0.00    +0.000 OA
ATOM      3  N   UNL     1       6.067   6.007  17.415  0.00  0.00    +0.000 N 
ATOM      4  C   UNL     1       5.342   6.536  18.579  0.00  0.00    +0.000 C 
ATOM      5  C   UNL     1       3.909   6.037  18.654  0.00  0.00    +0.000 C 
ATOM      6  N   UNL     1       3.930   4.570  18.628  0.00  0.00    +0.000 N 
ATOM      7  C   UNL     1       4.461   4.045  17.357  0.00  0.00    +0.000 C 
ATOM      8  C   UNL     1       5.910   4.568  17.161  0.00  0.00    +0.000 C 
ENDROOT
BRANCH   6   9
ATOM      9  C   UNL     1       2.924   3.898  19.319  0.00  0.00    +0.000 A 
ATOM     10  C   UNL     1       1.697   4.556  19.589  0.00  0.00    +0.000 A 
ATOM     11  C   UNL     1       0.715   4.012  20.417  0.00  0.00    +0.000 A 
ATOM     12  C   UNL     1       0.913   2.770  20.989  0.00  0.00    +0.000 A 
ATOM     13  C   UNL     1       2.078   2.064  20.697  0.00  0.00    +0.000 A 
ATOM     14  C   UNL     1       3.078   2.610  19.873  0.00  0.00    +0.000 A 
BRANCH  14  15
ATOM     15  O   UNL     1       4.122   1.737  19.683  0.00  0.00    +0.000 OA
ATOM     16  C   UNL     1       5.075   1.632  20.728  0.00  0.00    +0.000 C 
ENDBRANCH  14  15
ENDBRANCH   6   9
BRANCH   1  19
ATOM     17  C   UNL     1       8.656   9.417  18.678  0.00  0.00    +0.000 A 
ATOM     18  C   UNL     1       8.566   8.061  18.511  0.00  0.00    +0.000 A 
ATOM     19  C   UNL     1       7.628   7.905  17.465  0.00  0.00    +0.000 A 
ATOM     20  N   UNL     1       7.135   9.101  17.095  0.00  0.00    +0.000 NA
ATOM     21  O   UNL     1       7.814  10.043  17.824  0.00  0.00    +0.000 OA
BRANCH  17  22
ATOM     22  C   UNL     1       9.396  10.286  19.595  0.00  0.00    +0.000 C 
BRANCH  22  23
ATOM     23  O   UNL     1      10.552  10.685  18.866  0.00  0.00    +0.000 OA
BRANCH  23  28
ATOM     24  C   UNL     1       9.763  14.241  18.274  0.00  0.00    +0.000 A 
ATOM     25  C   UNL     1      10.756  14.524  17.338  0.00  0.00    +0.000 A 
ATOM     26  C   UNL     1      11.658  13.537  16.944  0.00  0.00    +0.000 A 
ATOM     27  C   UNL     1      11.562  12.256  17.484  0.00  0.00    +0.000 A 
ATOM     28  C   UNL     1      10.567  11.968  18.417  0.00  0.00    +0.000 A 
ATOM     29  C   UNL     1       9.675  12.967  18.814  0.00  0.00    +0.000 A 
BRANCH  24  31
ATOM     30  C   UNL     1       8.210  15.167  19.812  0.00  0.00    +0.000 C 
ATOM     31  O   UNL     1       8.934  15.290  18.588  0.00  0.00    +0.000 OA
ENDBRANCH  24  31
ENDBRANCH  23  28
ENDBRANCH  22  23
ENDBRANCH  17  22
ENDBRANCH   1  19
TORSDOF 7
ENDMDL
