MODEL 1
REMARK VINA RESULT:      -9.3      0.000      0.000
REMARK  Name = 
REMARK  6 active torsions:
REMARK  status: ('A' for Active; 'I' for Inactive)
REMARK    1  A    between atoms: C_2  and  O_3
REMARK    2  A    between atoms: C_2  and  C_4
REMARK    3  A    between atoms: N_7  and  C_8
REMARK    4  A    between atoms: C_13  and  C_14
REMARK    5  A    between atoms: C_17  and  C_18
REMARK    6  A    between atoms: C_24  and  C_25
REMARK                            x       y       z     vdW  Elec       q    Type
REMARK                         _______ _______ _______ _____ _____    ______ ____
ROOT
ATOM      1  C   UNL     1       3.665   6.159  17.867  0.00  0.00    +0.000 A 
ATOM      2  C   UNL     1       3.474   5.396  19.038  0.00  0.00    +0.000 A 
ATOM      3  C   UNL     1       2.703   5.829  20.135  0.00  0.00    +0.000 A 
ATOM      4  C   UNL     1       2.124   7.079  19.996  0.00  0.00    +0.000 A 
ATOM      5  O   UNL     1       1.345   7.752  20.896  0.00  0.00    +0.000 OA
ATOM      6  C   UNL     1       1.044   8.928  20.256  0.00  0.00    +0.000 A 
ATOM      7  N   UNL     1       1.564   9.040  19.042  0.00  0.00    +0.000 NA
ATOM      8  C   UNL     1       2.256   7.876  18.877  0.00  0.00    +0.000 A 
ATOM      9  C   UNL     1       3.030   7.416  17.801  0.00  0.00    +0.000 A 
ENDROOT
BRANCH   1  13
ATOM     10  C   UNL     1       6.862   4.461  15.896  0.00  0.00    +0.000 C 
ATOM     11  C   UNL     1       5.676   3.638  16.414  0.00  0.00    +0.000 C 
ATOM     12  C   UNL     1       4.334   4.357  16.275  0.00  0.00    +0.000 C 
ATOM     13  N   UNL     1       4.455   5.705  16.827  0.00  0.00    +0.000 N 
ATOM     14  C   UNL     1       5.442   6.556  16.163  0.00  0.00    +0.000 C 
ATOM     15  C   UNL     1       6.822   5.927  16.361  0.00  0.00    +0.000 C 
BRANCH  10  17
ATOM     16  O   UNL     1       7.522   5.239  13.689  0.00  0.00    +0.000 OA
ATOM     17  C   UNL     1       6.966   4.406  14.384  0.00  0.00    +0.000 C 
BRANCH  17  18
ATOM     18  O   UNL     1       6.384   3.304  13.855  0.00  0.00    +0.000 OA
ATOM     19  H   UNL     1       5.787   3.485  13.102  0.00  0.00    +0.000 HD
ENDBRANCH  17  18
ENDBRANCH  10  17
ENDBRANCH   1  13
BRANCH   6  20
ATOM     20  C   UNL     1       0.227   9.901  20.968  0.00  0.00    +0.000 A 
ATOM     21  C   UNL     1       0.016   9.739  22.334  0.00  0.00    +0.000 A 
ATOM     22  C   UNL     1      -0.762  10.650  23.054  0.00  0.00    +0.000 A 
ATOM     23  C   UNL     1      -1.405  11.752  22.445  0.00  0.00    +0.000 A 
ATOM     24  C   UNL     1      -1.240  11.890  21.041  0.00  0.00    +0.000 A 
ATOM     25  C   UNL     1      -0.390  10.985  20.339  0.00  0.00    +0.000 A 
BRANCH  23  26
ATOM     26  C   UNL     1      -2.197  12.669  23.316  0.00  0.00    +0.000 A 
ATOM     27  C   UNL     1      -3.480  12.341  23.778  0.00  0.00    +0.000 A 
ATOM     28  C   UNL     1      -4.175  13.164  24.672  0.00  0.00    +0.000 A 
ATOM     29  C   UNL     1      -3.647  14.393  25.045  0.00  0.00    +0.000 A 
ATOM     30  C   UNL     1      -2.424  14.796  24.526  0.00  0.00    +0.000 A 
ATOM     31  C   UNL     1      -1.700  13.937  23.691  0.00  0.00    +0.000 A 
ENDBRANCH  23  26
BRANCH  24  32
ATOM     32  C   UNL     1      -1.912  12.926  20.159  0.00  0.00    +0.000 C 
ATOM     33  F   UNL     1      -1.550  14.221  20.344  0.00  0.00    +0.000 F 
ATOM     34  F   UNL     1      -1.713  12.663  18.835  0.00  0.00    +0.000 F 
ATOM     35  F   UNL     1      -3.270  12.926  20.324  0.00  0.00    +0.000 F 
ENDBRANCH  24  32
ENDBRANCH   6  20
TORSDOF 6
ENDMDL
MODEL 2
REMARK VINA RESULT:      -9.3      0.161      1.186
REMARK  Name = 
REMARK  6 active torsions:
REMARK  status: ('A' for Active; 'I' for Inactive)
REMARK    1  A    between atoms: C_2  and  O_3
REMARK    2  A    between atoms: C_2  and  C_4
REMARK    3  A    between atoms: N_7  and  C_8
REMARK    4  A    between atoms: C_13  and  C_14
REMARK    5  A    between atoms: C_17  and  C_18
REMARK    6  A    between atoms: C_24  and  C_25
REMARK                            x       y       z     vdW  Elec       q    Type
REMARK                         _______ _______ _______ _____ _____    ______ ____
ROOT
ATOM      1  C   UNL     1       3.625   6.171  17.897  0.00  0.00    +0.000 A 
ATOM      2  C   UNL     1       3.353   5.375  19.030  0.00  0.00    +0.000 A 
ATOM      3  C   UNL     1       2.547   5.798  20.106  0.00  0.00    +0.000 A 
ATOM      4  C   UNL     1       2.018   7.072  19.985  0.00  0.00    +0.000 A 
ATOM      5  O   UNL     1       1.222   7.742  20.873  0.00  0.00    +0.000 OA
ATOM      6  C   UNL     1       0.991   8.949  20.262  0.00  0.00    +0.000 A 
ATOM      7  N   UNL     1       1.571   9.083  19.078  0.00  0.00    +0.000 NA
ATOM      8  C   UNL     1       2.230   7.901  18.903  0.00  0.00    +0.000 A 
ATOM      9  C   UNL     1       3.037   7.451  17.847  0.00  0.00    +0.000 A 
ENDROOT
BRANCH   1  13
ATOM     10  C   UNL     1       6.939   4.620  16.002  0.00  0.00    +0.000 C 
ATOM     11  C   UNL     1       5.820   3.737  16.568  0.00  0.00    +0.000 C 
ATOM     12  C   UNL     1       4.427   4.343  16.398  0.00  0.00    +0.000 C 
ATOM     13  N   UNL     1       4.446   5.723  16.879  0.00  0.00    +0.000 N 
ATOM     14  C   UNL     1       5.364   6.611  16.165  0.00  0.00    +0.000 C 
ATOM     15  C   UNL     1       6.789   6.100  16.389  0.00  0.00    +0.000 C 
BRANCH  10  17
ATOM     16  O   UNL     1       6.440   3.683  13.814  0.00  0.00    +0.000 OA
ATOM     17  C   UNL     1       7.046   4.493  14.493  0.00  0.00    +0.000 C 
BRANCH  17  18
ATOM     18  O   UNL     1       7.888   5.401  13.946  0.00  0.00    +0.000 OA
ATOM     19  H   UNL     1       8.506   5.032  13.285  0.00  0.00    +0.000 HD
ENDBRANCH  17  18
ENDBRANCH  10  17
ENDBRANCH   1  13
BRANCH   6  20
ATOM     20  C   UNL     1       0.177   9.926  20.970  0.00  0.00    +0.000 A 
ATOM     21  C   UNL     1       0.022   9.808  22.348  0.00  0.00    +0.000 A 
ATOM     22  C   UNL     1      -0.753  10.724  23.066  0.00  0.00    +0.000 A 
ATOM     23  C   UNL     1      -1.447  11.787  22.444  0.00  0.00    +0.000 A 
ATOM     24  C   UNL     1      -1.339  11.878  21.031  0.00  0.00    +0.000 A 
ATOM     25  C   UNL     1      -0.492  10.971  20.329  0.00  0.00    +0.000 A 
BRANCH  23  26
ATOM     26  C   UNL     1      -2.230  12.714  23.312  0.00  0.00    +0.000 A 
ATOM     27  C   UNL     1      -1.710  13.936  23.764  0.00  0.00    +0.000 A 
ATOM     28  C   UNL     1      -2.486  14.843  24.496  0.00  0.00    +0.000 A 
ATOM     29  C   UNL     1      -3.773  14.501  24.890  0.00  0.00    +0.000 A 
ATOM     30  C   UNL     1      -4.285  13.257  24.547  0.00  0.00    +0.000 A 
ATOM     31  C   UNL     1      -3.532  12.385  23.751  0.00  0.00    +0.000 A 
ENDBRANCH  23  26
BRANCH  24  32
ATOM     32  C   UNL     1      -2.071  12.865  20.140  0.00  0.00    +0.000 C 
ATOM     33  F   UNL     1      -3.424  12.899  20.238  0.00  0.00    +0.000 F 
ATOM     34  F   UNL     1      -1.644  14.144  20.351  0.00  0.00    +0.000 F 
ATOM     35  F   UNL     1      -1.832  12.622  18.815  0.00  0.00    +0.000 F 
ENDBRANCH  24  32
ENDBRANCH   6  20
TORSDOF 6
ENDMDL
MODEL 3
REMARK VINA RESULT:      -9.1      4.309     11.602
REMARK  Name = 
REMARK  6 active torsions:
REMARK  status: ('A' for Active; 'I' for Inactive)
REMARK    1  A    between atoms: C_2  and  O_3
REMARK    2  A    between atoms: C_2  and  C_4
REMARK    3  A    between atoms: N_7  and  C_8
REMARK    4  A    between atoms: C_13  and  C_14
REMARK    5  A    between atoms: C_17  and  C_18
REMARK    6  A    between atoms: C_24  and  C_25
REMARK                            x       y       z     vdW  Elec       q    Type
REMARK                         _______ _______ _______ _____ _____    ______ ____
ROOT
ATOM      1  C   UNL     1      -1.553  11.382  22.202  0.00  0.00    +0.000 A 
ATOM      2  C   UNL     1      -1.126  10.552  23.261  0.00  0.00    +0.000 A 
ATOM      3  C   UNL     1      -0.183   9.515  23.108  0.00  0.00    +0.000 A 
ATOM      4  C   UNL     1       0.317   9.353  21.828  0.00  0.00    +0.000 A 
ATOM      5  O   UNL     1       1.223   8.427  21.388  0.00  0.00    +0.000 OA
ATOM      6  C   UNL     1       1.362   8.712  20.052  0.00  0.00    +0.000 A 
ATOM      7  N   UNL     1       0.626   9.730  19.630  0.00  0.00    +0.000 NA
ATOM      8  C   UNL     1      -0.044  10.133  20.748  0.00  0.00    +0.000 A 
ATOM      9  C   UNL     1      -0.984  11.157  20.932  0.00  0.00    +0.000 A 
ENDROOT
BRANCH   1  13
ATOM     10  C   UNL     1      -5.213  13.142  22.905  0.00  0.00    +0.000 C 
ATOM     11  C   UNL     1      -4.268  12.716  24.035  0.00  0.00    +0.000 C 
ATOM     12  C   UNL     1      -2.792  12.941  23.707  0.00  0.00    +0.000 C 
ATOM     13  N   UNL     1      -2.503  12.368  22.394  0.00  0.00    +0.000 N 
ATOM     14  C   UNL     1      -3.258  12.954  21.287  0.00  0.00    +0.000 C 
ATOM     15  C   UNL     1      -4.743  12.667  21.520  0.00  0.00    +0.000 C 
BRANCH  10  17
ATOM     16  O   UNL     1      -5.584  15.316  21.882  0.00  0.00    +0.000 OA
ATOM     17  C   UNL     1      -5.425  14.644  22.886  0.00  0.00    +0.000 C 
BRANCH  17  18
ATOM     18  O   UNL     1      -5.441  15.190  24.125  0.00  0.00    +0.000 OA
ATOM     19  H   UNL     1      -5.032  14.634  24.817  0.00  0.00    +0.000 HD
ENDBRANCH  17  18
ENDBRANCH  10  17
ENDBRANCH   1  13
BRANCH   6  20
ATOM     20  C   UNL     1       2.259   7.876  19.268  0.00  0.00    +0.000 A 
ATOM     21  C   UNL     1       2.743   8.354  18.054  0.00  0.00    +0.000 A 
ATOM     22  C   UNL     1       3.607   7.583  17.269  0.00  0.00    +0.000 A 
ATOM     23  C   UNL     1       4.005   6.277  17.634  0.00  0.00    +0.000 A 
ATOM     24  C   UNL     1       3.469   5.762  18.844  0.00  0.00    +0.000 A 
ATOM     25  C   UNL     1       2.642   6.590  19.658  0.00  0.00    +0.000 A 
BRANCH  23  26
ATOM     26  C   UNL     1       4.944   5.553  16.729  0.00  0.00    +0.000 A 
ATOM     27  C   UNL     1       4.505   4.587  15.811  0.00  0.00    +0.000 A 
ATOM     28  C   UNL     1       5.379   3.985  14.898  0.00  0.00    +0.000 A 
ATOM     29  C   UNL     1       6.740   4.255  14.953  0.00  0.00    +0.000 A 
ATOM     30  C   UNL     1       7.225   5.129  15.917  0.00  0.00    +0.000 A 
ATOM     31  C   UNL     1       6.337   5.785  16.777  0.00  0.00    +0.000 A 
ENDBRANCH  23  26
BRANCH  24  32
ATOM     32  C   UNL     1       3.669   4.358  19.385  0.00  0.00    +0.000 C 
ATOM     33  F   UNL     1       3.157   4.091  20.613  0.00  0.00    +0.000 F 
ATOM     34  F   UNL     1       3.148   3.417  18.545  0.00  0.00    +0.000 F 
ATOM     35  F   UNL     1       4.996   4.044  19.495  0.00  0.00    +0.000 F 
ENDBRANCH  24  32
ENDBRANCH   6  20
TORSDOF 6
ENDMDL
MODEL 4
REMARK VINA RESULT:      -8.9      4.298     11.615
REMARK  Name = 
REMARK  6 active torsions:
REMARK  status: ('A' for Active; 'I' for Inactive)
REMARK    1  A    between atoms: C_2  and  O_3
REMARK    2  A    between atoms: C_2  and  C_4
REMARK    3  A    between atoms: N_7  and  C_8
REMARK    4  A    between atoms: C_13  and  C_14
REMARK    5  A    between atoms: C_17  and  C_18
REMARK    6  A    between atoms: C_24  and  C_25
REMARK                            x       y       z     vdW  Elec       q    Type
REMARK                         _______ _______ _______ _____ _____    ______ ____
ROOT
ATOM      1  C   UNL     1      -1.566  11.451  22.153  0.00  0.00    +0.000 A 
ATOM      2  C   UNL     1      -1.153  10.645  23.235  0.00  0.00    +0.000 A 
ATOM      3  C   UNL     1      -0.219   9.596  23.116  0.00  0.00    +0.000 A 
ATOM      4  C   UNL     1       0.288   9.396  21.843  0.00  0.00    +0.000 A 
ATOM      5  O   UNL     1       1.188   8.451  21.432  0.00  0.00    +0.000 OA
ATOM      6  C   UNL     1       1.337   8.700  20.091  0.00  0.00    +0.000 A 
ATOM      7  N   UNL     1       0.614   9.714  19.638  0.00  0.00    +0.000 NA
ATOM      8  C   UNL     1      -0.060  10.152  20.741  0.00  0.00    +0.000 A 
ATOM      9  C   UNL     1      -0.991  11.189  20.893  0.00  0.00    +0.000 A 
ENDROOT
BRANCH   1  13
ATOM     10  C   UNL     1      -3.287  14.974  23.423  0.00  0.00    +0.000 C 
ATOM     11  C   UNL     1      -2.434  14.880  22.152  0.00  0.00    +0.000 C 
ATOM     12  C   UNL     1      -2.634  13.573  21.385  0.00  0.00    +0.000 C 
ATOM     13  N   UNL     1      -2.507  12.451  22.313  0.00  0.00    +0.000 N 
ATOM     14  C   UNL     1      -3.487  12.437  23.399  0.00  0.00    +0.000 C 
ATOM     15  C   UNL     1      -3.261  13.683  24.259  0.00  0.00    +0.000 C 
BRANCH  10  17
ATOM     16  O   UNL     1      -5.128  15.716  22.020  0.00  0.00    +0.000 OA
ATOM     17  C   UNL     1      -4.722  15.353  23.110  0.00  0.00    +0.000 C 
BRANCH  17  18
ATOM     18  O   UNL     1      -5.545  15.232  24.178  0.00  0.00    +0.000 OA
ATOM     19  H   UNL     1      -6.322  15.825  24.159  0.00  0.00    +0.000 HD
ENDBRANCH  17  18
ENDBRANCH  10  17
ENDBRANCH   1  13
BRANCH   6  20
ATOM     20  C   UNL     1       2.232   7.837  19.334  0.00  0.00    +0.000 A 
ATOM     21  C   UNL     1       2.769   8.300  18.136  0.00  0.00    +0.000 A 
ATOM     22  C   UNL     1       3.632   7.502  17.379  0.00  0.00    +0.000 A 
ATOM     23  C   UNL     1       3.977   6.183  17.754  0.00  0.00    +0.000 A 
ATOM     24  C   UNL     1       3.386   5.685  18.946  0.00  0.00    +0.000 A 
ATOM     25  C   UNL     1       2.561   6.539  19.734  0.00  0.00    +0.000 A 
BRANCH  23  26
ATOM     26  C   UNL     1       4.920   5.430  16.877  0.00  0.00    +0.000 A 
ATOM     27  C   UNL     1       4.475   4.564  15.868  0.00  0.00    +0.000 A 
ATOM     28  C   UNL     1       5.365   3.937  14.987  0.00  0.00    +0.000 A 
ATOM     29  C   UNL     1       6.735   4.078  15.163  0.00  0.00    +0.000 A 
ATOM     30  C   UNL     1       7.214   4.847  16.216  0.00  0.00    +0.000 A 
ATOM     31  C   UNL     1       6.319   5.530  17.047  0.00  0.00    +0.000 A 
ENDBRANCH  23  26
BRANCH  24  32
ATOM     32  C   UNL     1       3.525   4.275  19.491  0.00  0.00    +0.000 C 
ATOM     33  F   UNL     1       2.968   4.025  20.702  0.00  0.00    +0.000 F 
ATOM     34  F   UNL     1       2.999   3.352  18.635  0.00  0.00    +0.000 F 
ATOM     35  F   UNL     1       4.837   3.918  19.640  0.00  0.00    +0.000 F 
ENDBRANCH  24  32
ENDBRANCH   6  20
TORSDOF 6
ENDMDL
MODEL 5
REMARK VINA RESULT:      -8.9      4.275     11.629
REMARK  Name = 
REMARK  6 active torsions:
REMARK  status: ('A' for Active; 'I' for Inactive)
REMARK    1  A    between atoms: C_2  and  O_3
REMARK    2  A    between atoms: C_2  and  C_4
REMARK    3  A    between atoms: N_7  and  C_8
REMARK    4  A    between atoms: C_13  and  C_14
REMARK    5  A    between atoms: C_17  and  C_18
REMARK    6  A    between atoms: C_24  and  C_25
REMARK                            x       y       z     vdW  Elec       q    Type
REMARK                         _______ _______ _______ _____ _____    ______ ____
ROOT
ATOM      1  C   UNL     1      -1.594  11.483  22.158  0.00  0.00    +0.000 A 
ATOM      2  C   UNL     1      -1.178  10.659  23.225  0.00  0.00    +0.000 A 
ATOM      3  C   UNL     1      -0.241   9.615  23.086  0.00  0.00    +0.000 A 
ATOM      4  C   UNL     1       0.266   9.440  21.810  0.00  0.00    +0.000 A 
ATOM      5  O   UNL     1       1.169   8.506  21.382  0.00  0.00    +0.000 OA
ATOM      6  C   UNL     1       1.317   8.779  20.045  0.00  0.00    +0.000 A 
ATOM      7  N   UNL     1       0.590   9.799  19.611  0.00  0.00    +0.000 NA
ATOM      8  C   UNL     1      -0.084  10.214  20.722  0.00  0.00    +0.000 A 
ATOM      9  C   UNL     1      -1.019  11.246  20.893  0.00  0.00    +0.000 A 
ENDROOT
BRANCH   1  13
ATOM     10  C   UNL     1      -5.239  13.270  22.872  0.00  0.00    +0.000 C 
ATOM     11  C   UNL     1      -4.275  12.877  23.998  0.00  0.00    +0.000 C 
ATOM     12  C   UNL     1      -2.804  13.090  23.637  0.00  0.00    +0.000 C 
ATOM     13  N   UNL     1      -2.539  12.477  22.336  0.00  0.00    +0.000 N 
ATOM     14  C   UNL     1      -3.313  13.030  21.226  0.00  0.00    +0.000 C 
ATOM     15  C   UNL     1      -4.794  12.753  21.494  0.00  0.00    +0.000 C 
BRANCH  10  17
ATOM     16  O   UNL     1      -5.954  15.371  21.878  0.00  0.00    +0.000 OA
ATOM     17  C   UNL     1      -5.449  14.772  22.812  0.00  0.00    +0.000 C 
BRANCH  17  18
ATOM     18  O   UNL     1      -5.029  15.408  23.930  0.00  0.00    +0.000 OA
ATOM     19  H   UNL     1      -4.109  15.205  24.190  0.00  0.00    +0.000 HD
ENDBRANCH  17  18
ENDBRANCH  10  17
ENDBRANCH   1  13
BRANCH   6  20
ATOM     20  C   UNL     1       2.215   7.933  19.273  0.00  0.00    +0.000 A 
ATOM     21  C   UNL     1       2.670   8.379  18.036  0.00  0.00    +0.000 A 
ATOM     22  C   UNL     1       3.533   7.596  17.262  0.00  0.00    +0.000 A 
ATOM     23  C   UNL     1       3.958   6.308  17.662  0.00  0.00    +0.000 A 
ATOM     24  C   UNL     1       3.450   5.824  18.896  0.00  0.00    +0.000 A 
ATOM     25  C   UNL     1       2.624   6.666  19.698  0.00  0.00    +0.000 A 
BRANCH  23  26
ATOM     26  C   UNL     1       4.892   5.570  16.763  0.00  0.00    +0.000 A 
ATOM     27  C   UNL     1       6.221   5.976  16.567  0.00  0.00    +0.000 A 
ATOM     28  C   UNL     1       7.117   5.223  15.799  0.00  0.00    +0.000 A 
ATOM     29  C   UNL     1       6.676   4.096  15.118  0.00  0.00    +0.000 A 
ATOM     30  C   UNL     1       5.342   3.721  15.207  0.00  0.00    +0.000 A 
ATOM     31  C   UNL     1       4.469   4.436  16.035  0.00  0.00    +0.000 A 
ENDBRANCH  23  26
BRANCH  24  32
ATOM     32  C   UNL     1       3.682   4.442  19.479  0.00  0.00    +0.000 C 
ATOM     33  F   UNL     1       4.968   4.017  19.563  0.00  0.00    +0.000 F 
ATOM     34  F   UNL     1       3.164   4.334  20.737  0.00  0.00    +0.000 F 
ATOM     35  F   UNL     1       3.051   3.474  18.748  0.00  0.00    +0.000 F 
ENDBRANCH  24  32
ENDBRANCH   6  20
TORSDOF 6
ENDMDL
MODEL 6
REMARK VINA RESULT:      -8.7      4.259     11.677
REMARK  Name = 
REMARK  6 active torsions:
REMARK  status: ('A' for Active; 'I' for Inactive)
REMARK    1  A    between atoms: C_2  and  O_3
REMARK    2  A    between atoms: C_2  and  C_4
REMARK    3  A    between atoms: N_7  and  C_8
REMARK    4  A    between atoms: C_13  and  C_14
REMARK    5  A    between atoms: C_17  and  C_18
REMARK    6  A    between atoms: C_24  and  C_25
REMARK                            x       y       z     vdW  Elec       q    Type
REMARK                         _______ _______ _______ _____ _____    ______ ____
ROOT
ATOM      1  C   UNL     1      -1.266  11.478  22.292  0.00  0.00    +0.000 A 
ATOM      2  C   UNL     1      -1.097  10.456  23.251  0.00  0.00    +0.000 A 
ATOM      3  C   UNL     1      -0.300   9.313  23.041  0.00  0.00    +0.000 A 
ATOM      4  C   UNL     1       0.330   9.248  21.810  0.00  0.00    +0.000 A 
ATOM      5  O   UNL     1       1.144   8.259  21.331  0.00  0.00    +0.000 OA
ATOM      6  C   UNL     1       1.489   8.695  20.076  0.00  0.00    +0.000 A 
ATOM      7  N   UNL     1       0.964   9.864  19.739  0.00  0.00    +0.000 NA
ATOM      8  C   UNL     1       0.222  10.214  20.830  0.00  0.00    +0.000 A 
ATOM      9  C   UNL     1      -0.579  11.340  21.069  0.00  0.00    +0.000 A 
ENDROOT
BRANCH   1  13
ATOM     10  C   UNL     1      -3.380  14.344  24.367  0.00  0.00    +0.000 C 
ATOM     11  C   UNL     1      -1.908  14.523  23.974  0.00  0.00    +0.000 C 
ATOM     12  C   UNL     1      -1.573  13.936  22.602  0.00  0.00    +0.000 C 
ATOM     13  N   UNL     1      -2.082  12.568  22.532  0.00  0.00    +0.000 N 
ATOM     14  C   UNL     1      -3.532  12.442  22.683  0.00  0.00    +0.000 C 
ATOM     15  C   UNL     1      -3.907  12.927  24.085  0.00  0.00    +0.000 C 
BRANCH  10  17
ATOM     16  O   UNL     1      -4.131  15.770  22.547  0.00  0.00    +0.000 OA
ATOM     17  C   UNL     1      -4.271  15.367  23.689  0.00  0.00    +0.000 C 
BRANCH  17  18
ATOM     18  O   UNL     1      -5.281  15.795  24.482  0.00  0.00    +0.000 OA
ATOM     19  H   UNL     1      -5.389  16.766  24.510  0.00  0.00    +0.000 HD
ENDBRANCH  17  18
ENDBRANCH  10  17
ENDBRANCH   1  13
BRANCH   6  20
ATOM     20  C   UNL     1       2.351   7.841  19.271  0.00  0.00    +0.000 A 
ATOM     21  C   UNL     1       2.830   8.316  18.054  0.00  0.00    +0.000 A 
ATOM     22  C   UNL     1       3.660   7.528  17.251  0.00  0.00    +0.000 A 
ATOM     23  C   UNL     1       4.027   6.207  17.599  0.00  0.00    +0.000 A 
ATOM     24  C   UNL     1       3.494   5.697  18.812  0.00  0.00    +0.000 A 
ATOM     25  C   UNL     1       2.703   6.542  19.645  0.00  0.00    +0.000 A 
BRANCH  23  26
ATOM     26  C   UNL     1       4.931   5.465  16.673  0.00  0.00    +0.000 A 
ATOM     27  C   UNL     1       6.326   5.606  16.715  0.00  0.00    +0.000 A 
ATOM     28  C   UNL     1       7.171   4.834  15.909  0.00  0.00    +0.000 A 
ATOM     29  C   UNL     1       6.635   3.974  14.959  0.00  0.00    +0.000 A 
ATOM     30  C   UNL     1       5.256   3.884  14.819  0.00  0.00    +0.000 A 
ATOM     31  C   UNL     1       4.417   4.603  15.679  0.00  0.00    +0.000 A 
ENDBRANCH  23  26
BRANCH  24  32
ATOM     32  C   UNL     1       3.663   4.284  19.339  0.00  0.00    +0.000 C 
ATOM     33  F   UNL     1       4.933   3.843  19.524  0.00  0.00    +0.000 F 
ATOM     34  F   UNL     1       3.025   4.114  20.533  0.00  0.00    +0.000 F 
ATOM     35  F   UNL     1       3.102   3.362  18.499  0.00  0.00    +0.000 F 
ENDBRANCH  24  32
ENDBRANCH   6  20
TORSDOF 6
ENDMDL
MODEL 7
REMARK VINA RESULT:      -8.6      4.311     11.540
REMARK  Name = 
REMARK  6 active torsions:
REMARK  status: ('A' for Active; 'I' for Inactive)
REMARK    1  A    between atoms: C_2  and  O_3
REMARK    2  A    between atoms: C_2  and  C_4
REMARK    3  A    between atoms: N_7  and  C_8
REMARK    4  A    between atoms: C_13  and  C_14
REMARK    5  A    between atoms: C_17  and  C_18
REMARK    6  A    between atoms: C_24  and  C_25
REMARK                            x       y       z     vdW  Elec       q    Type
REMARK                         _______ _______ _______ _____ _____    ______ ____
ROOT
ATOM      1  C   UNL     1      -1.308  11.400  22.199  0.00  0.00    +0.000 A 
ATOM      2  C   UNL     1      -1.074  10.443  23.209  0.00  0.00    +0.000 A 
ATOM      3  C   UNL     1      -0.242   9.318  23.041  0.00  0.00    +0.000 A 
ATOM      4  C   UNL     1       0.354   9.203  21.796  0.00  0.00    +0.000 A 
ATOM      5  O   UNL     1       1.190   8.217  21.350  0.00  0.00    +0.000 OA
ATOM      6  C   UNL     1       1.482   8.590  20.062  0.00  0.00    +0.000 A 
ATOM      7  N   UNL     1       0.905   9.719  19.675  0.00  0.00    +0.000 NA
ATOM      8  C   UNL     1       0.182  10.105  20.766  0.00  0.00    +0.000 A 
ATOM      9  C   UNL     1      -0.653  11.215  20.964  0.00  0.00    +0.000 A 
ENDROOT
BRANCH   1  13
ATOM     10  C   UNL     1      -4.664  13.779  21.934  0.00  0.00    +0.000 C 
ATOM     11  C   UNL     1      -4.513  12.674  22.987  0.00  0.00    +0.000 C 
ATOM     12  C   UNL     1      -3.088  12.542  23.526  0.00  0.00    +0.000 C 
ATOM     13  N   UNL     1      -2.157  12.473  22.401  0.00  0.00    +0.000 N 
ATOM     14  C   UNL     1      -2.155  13.649  21.531  0.00  0.00    +0.000 C 
ATOM     15  C   UNL     1      -3.538  13.767  20.887  0.00  0.00    +0.000 C 
BRANCH  10  17
ATOM     16  O   UNL     1      -4.950  15.364  23.756  0.00  0.00    +0.000 OA
ATOM     17  C   UNL     1      -4.755  15.153  22.572  0.00  0.00    +0.000 C 
BRANCH  17  18
ATOM     18  O   UNL     1      -4.580  16.159  21.683  0.00  0.00    +0.000 OA
ATOM     19  H   UNL     1      -4.640  17.055  22.070  0.00  0.00    +0.000 HD
ENDBRANCH  17  18
ENDBRANCH  10  17
ENDBRANCH   1  13
BRANCH   6  20
ATOM     20  C   UNL     1       2.351   7.721  19.282  0.00  0.00    +0.000 A 
ATOM     21  C   UNL     1       2.862   8.183  18.072  0.00  0.00    +0.000 A 
ATOM     22  C   UNL     1       3.700   7.380  17.292  0.00  0.00    +0.000 A 
ATOM     23  C   UNL     1       4.044   6.058  17.656  0.00  0.00    +0.000 A 
ATOM     24  C   UNL     1       3.479   5.562  18.861  0.00  0.00    +0.000 A 
ATOM     25  C   UNL     1       2.680   6.421  19.671  0.00  0.00    +0.000 A 
BRANCH  23  26
ATOM     26  C   UNL     1       4.959   5.300  16.754  0.00  0.00    +0.000 A 
ATOM     27  C   UNL     1       4.488   4.548  15.668  0.00  0.00    +0.000 A 
ATOM     28  C   UNL     1       5.360   3.920  14.771  0.00  0.00    +0.000 A 
ATOM     29  C   UNL     1       6.729   3.938  15.001  0.00  0.00    +0.000 A 
ATOM     30  C   UNL     1       7.225   4.588  16.124  0.00  0.00    +0.000 A 
ATOM     31  C   UNL     1       6.354   5.277  16.975  0.00  0.00    +0.000 A 
ENDBRANCH  23  26
BRANCH  24  32
ATOM     32  C   UNL     1       3.620   4.150  19.400  0.00  0.00    +0.000 C 
ATOM     33  F   UNL     1       3.217   3.138  18.591  0.00  0.00    +0.000 F 
ATOM     34  F   UNL     1       4.912   3.870  19.741  0.00  0.00    +0.000 F 
ATOM     35  F   UNL     1       2.901   3.974  20.550  0.00  0.00    +0.000 F 
ENDBRANCH  24  32
ENDBRANCH   6  20
TORSDOF 6
ENDMDL
MODEL 8
REMARK VINA RESULT:      -8.6      4.331     11.671
REMARK  Name = 
REMARK  6 active torsions:
REMARK  status: ('A' for Active; 'I' for Inactive)
REMARK    1  A    between atoms: C_2  and  O_3
REMARK    2  A    between atoms: C_2  and  C_4
REMARK    3  A    between atoms: N_7  and  C_8
REMARK    4  A    between atoms: C_13  and  C_14
REMARK    5  A    between atoms: C_17  and  C_18
REMARK    6  A    between atoms: C_24  and  C_25
REMARK                            x       y       z     vdW  Elec       q    Type
REMARK                         _______ _______ _______ _____ _____    ______ ____
ROOT
ATOM      1  C   UNL     1      -2.080  12.121  21.989  0.00  0.00    +0.000 A 
ATOM      2  C   UNL     1      -1.693  11.371  23.120  0.00  0.00    +0.000 A 
ATOM      3  C   UNL     1      -0.753  10.322  23.077  0.00  0.00    +0.000 A 
ATOM      4  C   UNL     1      -0.213  10.061  21.829  0.00  0.00    +0.000 A 
ATOM      5  O   UNL     1       0.701   9.101  21.489  0.00  0.00    +0.000 OA
ATOM      6  C   UNL     1       0.884   9.284  20.141  0.00  0.00    +0.000 A 
ATOM      7  N   UNL     1       0.169  10.271  19.620  0.00  0.00    +0.000 NA
ATOM      8  C   UNL     1      -0.534  10.759  20.683  0.00  0.00    +0.000 A 
ATOM      9  C   UNL     1      -1.473  11.799  20.758  0.00  0.00    +0.000 A 
ENDROOT
BRANCH   1  13
ATOM     10  C   UNL     1      -5.318  14.273  23.356  0.00  0.00    +0.000 C 
ATOM     11  C   UNL     1      -3.901  14.469  23.909  0.00  0.00    +0.000 C 
ATOM     12  C   UNL     1      -2.814  14.350  22.840  0.00  0.00    +0.000 C 
ATOM     13  N   UNL     1      -3.029  13.123  22.075  0.00  0.00    +0.000 N 
ATOM     14  C   UNL     1      -4.305  13.057  21.364  0.00  0.00    +0.000 C 
ATOM     15  C   UNL     1      -5.429  13.072  22.402  0.00  0.00    +0.000 C 
BRANCH  10  17
ATOM     16  O   UNL     1      -5.284  16.613  22.697  0.00  0.00    +0.000 OA
ATOM     17  C   UNL     1      -5.830  15.524  22.667  0.00  0.00    +0.000 C 
BRANCH  17  18
ATOM     18  O   UNL     1      -6.977  15.315  21.978  0.00  0.00    +0.000 OA
ATOM     19  H   UNL     1      -7.297  16.093  21.481  0.00  0.00    +0.000 HD
ENDBRANCH  17  18
ENDBRANCH  10  17
ENDBRANCH   1  13
BRANCH   6  20
ATOM     20  C   UNL     1       1.801   8.388  19.452  0.00  0.00    +0.000 A 
ATOM     21  C   UNL     1       2.336   8.777  18.227  0.00  0.00    +0.000 A 
ATOM     22  C   UNL     1       3.220   7.945  17.532  0.00  0.00    +0.000 A 
ATOM     23  C   UNL     1       3.589   6.664  18.001  0.00  0.00    +0.000 A 
ATOM     24  C   UNL     1       3.000   6.238  19.221  0.00  0.00    +0.000 A 
ATOM     25  C   UNL     1       2.153   7.129  19.944  0.00  0.00    +0.000 A 
BRANCH  23  26
ATOM     26  C   UNL     1       4.552   5.871  17.184  0.00  0.00    +0.000 A 
ATOM     27  C   UNL     1       5.849   6.325  16.903  0.00  0.00    +0.000 A 
ATOM     28  C   UNL     1       6.778   5.533  16.219  0.00  0.00    +0.000 A 
ATOM     29  C   UNL     1       6.397   4.302  15.701  0.00  0.00    +0.000 A 
ATOM     30  C   UNL     1       5.091   3.863  15.871  0.00  0.00    +0.000 A 
ATOM     31  C   UNL     1       4.188   4.627  16.621  0.00  0.00    +0.000 A 
ENDBRANCH  23  26
BRANCH  24  32
ATOM     32  C   UNL     1       3.163   4.874  19.865  0.00  0.00    +0.000 C 
ATOM     33  F   UNL     1       2.521   3.833  19.276  0.00  0.00    +0.000 F 
ATOM     34  F   UNL     1       4.476   4.511  19.946  0.00  0.00    +0.000 F 
ATOM     35  F   UNL     1       2.710   4.866  21.155  0.00  0.00    +0.000 F 
ENDBRANCH  24  32
ENDBRANCH   6  20
TORSDOF 6
ENDMDL
MODEL 9
REMARK VINA RESULT:      -8.6      0.720      1.434
REMARK  Name = 
REMARK  6 active torsions:
REMARK  status: ('A' for Active; 'I' for Inactive)
REMARK    1  A    between atoms: C_2  and  O_3
REMARK    2  A    between atoms: C_2  and  C_4
REMARK    3  A    between atoms: N_7  and  C_8
REMARK    4  A    between atoms: C_13  and  C_14
REMARK    5  A    between atoms: C_17  and  C_18
REMARK    6  A    between atoms: C_24  and  C_25
REMARK                            x       y       z     vdW  Elec       q    Type
REMARK                         _______ _______ _______ _____ _____    ______ ____
ROOT
ATOM      1  C   UNL     1       3.633   6.102  18.506  0.00  0.00    +0.000 A 
ATOM      2  C   UNL     1       3.212   5.330  19.610  0.00  0.00    +0.000 A 
ATOM      3  C   UNL     1       2.300   5.791  20.582  0.00  0.00    +0.000 A 
ATOM      4  C   UNL     1       1.824   7.076  20.386  0.00  0.00    +0.000 A 
ATOM      5  O   UNL     1       0.951   7.780  21.168  0.00  0.00    +0.000 OA
ATOM      6  C   UNL     1       0.825   8.984  20.521  0.00  0.00    +0.000 A 
ATOM      7  N   UNL     1       1.539   9.084  19.409  0.00  0.00    +0.000 NA
ATOM      8  C   UNL     1       2.181   7.883  19.325  0.00  0.00    +0.000 A 
ATOM      9  C   UNL     1       3.090   7.396  18.374  0.00  0.00    +0.000 A 
ENDROOT
BRANCH   1  13
ATOM     10  C   UNL     1       5.238   4.878  14.913  0.00  0.00    +0.000 C 
ATOM     11  C   UNL     1       5.276   6.338  15.382  0.00  0.00    +0.000 C 
ATOM     12  C   UNL     1       5.496   6.483  16.889  0.00  0.00    +0.000 C 
ATOM     13  N   UNL     1       4.552   5.618  17.594  0.00  0.00    +0.000 N 
ATOM     14  C   UNL     1       4.687   4.191  17.300  0.00  0.00    +0.000 C 
ATOM     15  C   UNL     1       4.378   3.980  15.817  0.00  0.00    +0.000 C 
BRANCH  10  17
ATOM     16  O   UNL     1       7.585   4.597  15.483  0.00  0.00    +0.000 OA
ATOM     17  C   UNL     1       6.633   4.293  14.787  0.00  0.00    +0.000 C 
BRANCH  17  18
ATOM     18  O   UNL     1       6.726   3.359  13.811  0.00  0.00    +0.000 OA
ATOM     19  H   UNL     1       6.759   3.723  12.905  0.00  0.00    +0.000 HD
ENDBRANCH  17  18
ENDBRANCH  10  17
ENDBRANCH   1  13
BRANCH   6  20
ATOM     20  C   UNL     1      -0.038   9.992  21.120  0.00  0.00    +0.000 A 
ATOM     21  C   UNL     1      -0.321   9.920  22.480  0.00  0.00    +0.000 A 
ATOM     22  C   UNL     1      -1.145  10.869  23.094  0.00  0.00    +0.000 A 
ATOM     23  C   UNL     1      -1.764  11.918  22.377  0.00  0.00    +0.000 A 
ATOM     24  C   UNL     1      -1.525  11.962  20.978  0.00  0.00    +0.000 A 
ATOM     25  C   UNL     1      -0.630  11.023  20.386  0.00  0.00    +0.000 A 
BRANCH  23  26
ATOM     26  C   UNL     1      -2.611  12.882  23.139  0.00  0.00    +0.000 A 
ATOM     27  C   UNL     1      -2.122  14.119  23.585  0.00  0.00    +0.000 A 
ATOM     28  C   UNL     1      -2.950  15.057  24.213  0.00  0.00    +0.000 A 
ATOM     29  C   UNL     1      -4.268  14.735  24.510  0.00  0.00    +0.000 A 
ATOM     30  C   UNL     1      -4.758  13.480  24.176  0.00  0.00    +0.000 A 
ATOM     31  C   UNL     1      -3.947  12.575  23.481  0.00  0.00    +0.000 A 
ENDBRANCH  23  26
BRANCH  24  32
ATOM     32  C   UNL     1      -2.157  12.927  19.993  0.00  0.00    +0.000 C 
ATOM     33  F   UNL     1      -1.848  14.241  20.132  0.00  0.00    +0.000 F 
ATOM     34  F   UNL     1      -1.850  12.601  18.704  0.00  0.00    +0.000 F 
ATOM     35  F   UNL     1      -3.523  12.891  20.055  0.00  0.00    +0.000 F 
ENDBRANCH  24  32
ENDBRANCH   6  20
TORSDOF 6
ENDMDL
