MODEL 1
REMARK VINA RESULT:      -8.0      0.000      0.000
REMARK  Name = 
REMARK  5 active torsions:
REMARK  status: ('A' for Active; 'I' for Inactive)
REMARK    1  A    between atoms: C_1  and  O_2
REMARK    2  A    between atoms: O_2  and  C_3
REMARK    3  A    between atoms: C_6  and  C_7
REMARK    4  A    between atoms: C_10  and  C_11
REMARK    5  A    between atoms: C_16  and  N_17
REMARK                            x       y       z     vdW  Elec       q    Type
REMARK                         _______ _______ _______ _____ _____    ______ ____
ROOT
ATOM      1  C   UNL     1       1.508   8.092  20.175  0.00  0.00    +0.000 A 
ATOM      2  C   UNL     1       1.683   6.765  20.612  0.00  0.00    +0.000 A 
ATOM      3  C   UNL     1       2.364   5.821  19.824  0.00  0.00    +0.000 A 
ATOM      4  C   UNL     1       2.892   6.184  18.580  0.00  0.00    +0.000 A 
ATOM      5  C   UNL     1       2.689   7.483  18.128  0.00  0.00    +0.000 A 
ATOM      6  F   UNL     1       3.051   7.863  16.895  0.00  0.00    +0.000 F 
ATOM      7  C   UNL     1       2.034   8.425  18.916  0.00  0.00    +0.000 A 
ENDROOT
BRANCH   4   8
ATOM      8  C   UNL     1       3.499   5.144  17.719  0.00  0.00    +0.000 C 
ATOM      9  O   UNL     1       2.797   4.180  17.410  0.00  0.00    +0.000 OA
ATOM     10  N   UNL     1       4.803   5.269  17.281  0.00  0.00    +0.000 N 
ATOM     11  C   UNL     1       5.316   4.387  16.245  0.00  0.00    +0.000 C 
ATOM     12  C   UNL     1       6.721   4.901  15.964  0.00  0.00    +0.000 C 
ATOM     13  C   UNL     1       7.173   5.452  17.320  0.00  0.00    +0.000 C 
ATOM     14  C   UNL     1       5.873   6.099  17.834  0.00  0.00    +0.000 C 
BRANCH  13  15
ATOM     15  N   UNL     1       7.652   4.371  18.190  0.00  0.00    +0.000 NA
ATOM     16  H   UNL     1       7.161   3.506  17.954  0.00  0.00    +0.000 HD
ATOM     17  H   UNL     1       7.392   4.572  19.155  0.00  0.00    +0.000 HD
ENDBRANCH  13  15
ENDBRANCH   4   8
BRANCH   1  21
ATOM     18  C   UNL     1      -0.535  11.074  22.537  0.00  0.00    +0.000 A 
ATOM     19  C   UNL     1      -0.364   9.781  23.021  0.00  0.00    +0.000 A 
ATOM     20  C   UNL     1       0.269   8.807  22.243  0.00  0.00    +0.000 A 
ATOM     21  C   UNL     1       0.751   9.098  20.953  0.00  0.00    +0.000 A 
ATOM     22  C   UNL     1       0.531  10.398  20.466  0.00  0.00    +0.000 A 
ATOM     23  C   UNL     1      -0.108  11.373  21.245  0.00  0.00    +0.000 A 
BRANCH  18  25
ATOM     24  C   UNL     1      -1.125  13.310  22.994  0.00  0.00    +0.000 C 
ATOM     25  O   UNL     1      -1.152  11.941  23.388  0.00  0.00    +0.000 OA
ENDBRANCH  18  25
ENDBRANCH   1  21
TORSDOF 4
ENDMDL
MODEL 2
REMARK VINA RESULT:      -8.0      1.140      1.814
REMARK  Name = 
REMARK  5 active torsions:
REMARK  status: ('A' for Active; 'I' for Inactive)
REMARK    1  A    between atoms: C_1  and  O_2
REMARK    2  A    between atoms: O_2  and  C_3
REMARK    3  A    between atoms: C_6  and  C_7
REMARK    4  A    between atoms: C_10  and  C_11
REMARK    5  A    between atoms: C_16  and  N_17
REMARK                            x       y       z     vdW  Elec       q    Type
REMARK                         _______ _______ _______ _____ _____    ______ ____
ROOT
ATOM      1  C   UNL     1       1.699   7.864  19.919  0.00  0.00    +0.000 A 
ATOM      2  C   UNL     1       2.106   8.120  18.597  0.00  0.00    +0.000 A 
ATOM      3  C   UNL     1       2.691   7.116  17.806  0.00  0.00    +0.000 A 
ATOM      4  C   UNL     1       2.878   5.827  18.320  0.00  0.00    +0.000 A 
ATOM      5  C   UNL     1       2.512   5.580  19.637  0.00  0.00    +0.000 A 
ATOM      6  F   UNL     1       2.782   4.411  20.235  0.00  0.00    +0.000 F 
ATOM      7  C   UNL     1       1.913   6.567  20.415  0.00  0.00    +0.000 A 
ENDROOT
BRANCH   4   8
ATOM      8  C   UNL     1       3.603   4.823  17.509  0.00  0.00    +0.000 C 
ATOM      9  O   UNL     1       2.991   3.806  17.181  0.00  0.00    +0.000 OA
ATOM     10  N   UNL     1       4.916   5.039  17.136  0.00  0.00    +0.000 N 
ATOM     11  C   UNL     1       5.546   4.183  16.143  0.00  0.00    +0.000 C 
ATOM     12  C   UNL     1       6.923   4.795  15.927  0.00  0.00    +0.000 C 
ATOM     13  C   UNL     1       7.262   5.396  17.294  0.00  0.00    +0.000 C 
ATOM     14  C   UNL     1       5.892   5.952  17.730  0.00  0.00    +0.000 C 
BRANCH  13  15
ATOM     15  N   UNL     1       7.771   4.365  18.206  0.00  0.00    +0.000 NA
ATOM     16  H   UNL     1       7.333   3.469  17.980  0.00  0.00    +0.000 HD
ATOM     17  H   UNL     1       7.475   4.576  19.157  0.00  0.00    +0.000 HD
ENDBRANCH  13  15
ENDBRANCH   4   8
BRANCH   1  21
ATOM     18  C   UNL     1      -0.140  10.868  22.417  0.00  0.00    +0.000 A 
ATOM     19  C   UNL     1       0.209  11.156  21.102  0.00  0.00    +0.000 A 
ATOM     20  C   UNL     1       0.834  10.193  20.303  0.00  0.00    +0.000 A 
ATOM     21  C   UNL     1       1.130   8.909  20.799  0.00  0.00    +0.000 A 
ATOM     22  C   UNL     1       0.806   8.652  22.142  0.00  0.00    +0.000 A 
ATOM     23  C   UNL     1       0.184   9.619  22.944  0.00  0.00    +0.000 A 
BRANCH  18  25
ATOM     24  C   UNL     1      -2.179  11.812  23.129  0.00  0.00    +0.000 C 
ATOM     25  O   UNL     1      -0.756  11.877  23.095  0.00  0.00    +0.000 OA
ENDBRANCH  18  25
ENDBRANCH   1  21
TORSDOF 4
ENDMDL
MODEL 3
REMARK VINA RESULT:      -7.9      0.484      1.108
REMARK  Name = 
REMARK  5 active torsions:
REMARK  status: ('A' for Active; 'I' for Inactive)
REMARK    1  A    between atoms: C_1  and  O_2
REMARK    2  A    between atoms: O_2  and  C_3
REMARK    3  A    between atoms: C_6  and  C_7
REMARK    4  A    between atoms: C_10  and  C_11
REMARK    5  A    between atoms: C_16  and  N_17
REMARK                            x       y       z     vdW  Elec       q    Type
REMARK                         _______ _______ _______ _____ _____    ______ ____
ROOT
ATOM      1  C   UNL     1       1.489   8.256  20.317  0.00  0.00    +0.000 A 
ATOM      2  C   UNL     1       1.669   6.928  20.746  0.00  0.00    +0.000 A 
ATOM      3  C   UNL     1       2.284   5.972  19.921  0.00  0.00    +0.000 A 
ATOM      4  C   UNL     1       2.740   6.323  18.644  0.00  0.00    +0.000 A 
ATOM      5  C   UNL     1       2.530   7.623  18.202  0.00  0.00    +0.000 A 
ATOM      6  F   UNL     1       2.819   7.995  16.947  0.00  0.00    +0.000 F 
ATOM      7  C   UNL     1       1.940   8.578  19.026  0.00  0.00    +0.000 A 
ENDROOT
BRANCH   4   8
ATOM      8  C   UNL     1       3.275   5.271  17.751  0.00  0.00    +0.000 C 
ATOM      9  O   UNL     1       2.524   4.340  17.454  0.00  0.00    +0.000 OA
ATOM     10  N   UNL     1       4.568   5.350  17.271  0.00  0.00    +0.000 N 
ATOM     11  C   UNL     1       5.010   4.462  16.207  0.00  0.00    +0.000 C 
ATOM     12  C   UNL     1       6.425   4.923  15.886  0.00  0.00    +0.000 C 
ATOM     13  C   UNL     1       6.944   5.437  17.233  0.00  0.00    +0.000 C 
ATOM     14  C   UNL     1       5.688   6.128  17.799  0.00  0.00    +0.000 C 
BRANCH  13  15
ATOM     15  N   UNL     1       7.406   4.325  18.073  0.00  0.00    +0.000 NA
ATOM     16  H   UNL     1       8.090   3.771  17.553  0.00  0.00    +0.000 HD
ATOM     17  H   UNL     1       6.629   3.691  18.254  0.00  0.00    +0.000 HD
ENDBRANCH  13  15
ENDBRANCH   4   8
BRANCH   1  21
ATOM     18  C   UNL     1      -0.689  11.203  22.601  0.00  0.00    +0.000 A 
ATOM     19  C   UNL     1      -0.048  11.554  21.418  0.00  0.00    +0.000 A 
ATOM     20  C   UNL     1       0.684  10.608  20.695  0.00  0.00    +0.000 A 
ATOM     21  C   UNL     1       0.797   9.276  21.137  0.00  0.00    +0.000 A 
ATOM     22  C   UNL     1       0.177   8.951  22.355  0.00  0.00    +0.000 A 
ATOM     23  C   UNL     1      -0.553   9.901  23.082  0.00  0.00    +0.000 A 
BRANCH  18  25
ATOM     24  C   UNL     1      -2.780  12.240  22.930  0.00  0.00    +0.000 C 
ATOM     25  O   UNL     1      -1.384  12.203  23.212  0.00  0.00    +0.000 OA
ENDBRANCH  18  25
ENDBRANCH   1  21
TORSDOF 4
ENDMDL
MODEL 4
REMARK VINA RESULT:      -7.7      1.167      1.533
REMARK  Name = 
REMARK  5 active torsions:
REMARK  status: ('A' for Active; 'I' for Inactive)
REMARK    1  A    between atoms: C_1  and  O_2
REMARK    2  A    between atoms: O_2  and  C_3
REMARK    3  A    between atoms: C_6  and  C_7
REMARK    4  A    between atoms: C_10  and  C_11
REMARK    5  A    between atoms: C_16  and  N_17
REMARK                            x       y       z     vdW  Elec       q    Type
REMARK                         _______ _______ _______ _____ _____    ______ ____
ROOT
ATOM      1  C   UNL     1       1.616   7.779  19.723  0.00  0.00    +0.000 A 
ATOM      2  C   UNL     1       2.021   7.993  18.393  0.00  0.00    +0.000 A 
ATOM      3  C   UNL     1       2.666   6.985  17.655  0.00  0.00    +0.000 A 
ATOM      4  C   UNL     1       2.917   5.734  18.231  0.00  0.00    +0.000 A 
ATOM      5  C   UNL     1       2.552   5.531  19.557  0.00  0.00    +0.000 A 
ATOM      6  F   UNL     1       2.877   4.408  20.212  0.00  0.00    +0.000 F 
ATOM      7  C   UNL     1       1.894   6.520  20.282  0.00  0.00    +0.000 A 
ENDROOT
BRANCH   4   8
ATOM      8  C   UNL     1       3.702   4.733  17.475  0.00  0.00    +0.000 C 
ATOM      9  O   UNL     1       3.131   3.693  17.144  0.00  0.00    +0.000 OA
ATOM     10  N   UNL     1       5.023   4.976  17.153  0.00  0.00    +0.000 N 
ATOM     11  C   UNL     1       5.717   4.117  16.207  0.00  0.00    +0.000 C 
ATOM     12  C   UNL     1       7.085   4.761  16.035  0.00  0.00    +0.000 C 
ATOM     13  C   UNL     1       7.350   5.400  17.401  0.00  0.00    +0.000 C 
ATOM     14  C   UNL     1       5.949   5.927  17.767  0.00  0.00    +0.000 C 
BRANCH  13  15
ATOM     15  N   UNL     1       7.847   4.402  18.357  0.00  0.00    +0.000 NA
ATOM     16  H   UNL     1       7.062   3.844  18.701  0.00  0.00    +0.000 HD
ATOM     17  H   UNL     1       8.219   4.876  19.179  0.00  0.00    +0.000 HD
ENDBRANCH  13  15
ENDBRANCH   4   8
BRANCH   1  21
ATOM     18  C   UNL     1      -0.052  10.895  22.203  0.00  0.00    +0.000 A 
ATOM     19  C   UNL     1       0.114   9.607  22.699  0.00  0.00    +0.000 A 
ATOM     20  C   UNL     1       0.624   8.590  21.886  0.00  0.00    +0.000 A 
ATOM     21  C   UNL     1       0.984   8.833  20.548  0.00  0.00    +0.000 A 
ATOM     22  C   UNL     1       0.770  10.131  20.053  0.00  0.00    +0.000 A 
ATOM     23  C   UNL     1       0.254  11.149  20.867  0.00  0.00    +0.000 A 
BRANCH  18  25
ATOM     24  C   UNL     1      -1.960  11.953  23.096  0.00  0.00    +0.000 C 
ATOM     25  O   UNL     1      -0.543  11.806  23.090  0.00  0.00    +0.000 OA
ENDBRANCH  18  25
ENDBRANCH   1  21
TORSDOF 4
ENDMDL
MODEL 5
REMARK VINA RESULT:      -7.4      5.189      7.265
REMARK  Name = 
REMARK  5 active torsions:
REMARK  status: ('A' for Active; 'I' for Inactive)
REMARK    1  A    between atoms: C_1  and  O_2
REMARK    2  A    between atoms: O_2  and  C_3
REMARK    3  A    between atoms: C_6  and  C_7
REMARK    4  A    between atoms: C_10  and  C_11
REMARK    5  A    between atoms: C_16  and  N_17
REMARK                            x       y       z     vdW  Elec       q    Type
REMARK                         _______ _______ _______ _____ _____    ______ ____
ROOT
ATOM      1  C   UNL     1       8.000   8.385  18.153  0.00  0.00    +0.000 A 
ATOM      2  C   UNL     1       8.378   7.228  18.859  0.00  0.00    +0.000 A 
ATOM      3  C   UNL     1       7.720   6.002  18.657  0.00  0.00    +0.000 A 
ATOM      4  C   UNL     1       6.669   5.904  17.737  0.00  0.00    +0.000 A 
ATOM      5  C   UNL     1       6.268   7.052  17.065  0.00  0.00    +0.000 A 
ATOM      6  F   UNL     1       5.189   7.063  16.271  0.00  0.00    +0.000 F 
ATOM      7  C   UNL     1       6.933   8.262  17.248  0.00  0.00    +0.000 A 
ENDROOT
BRANCH   4   8
ATOM      8  C   UNL     1       5.916   4.634  17.630  0.00  0.00    +0.000 C 
ATOM      9  O   UNL     1       6.198   3.882  16.697  0.00  0.00    +0.000 OA
ATOM     10  N   UNL     1       4.942   4.317  18.557  0.00  0.00    +0.000 N 
ATOM     11  C   UNL     1       4.381   2.976  18.601  0.00  0.00    +0.000 C 
ATOM     12  C   UNL     1       3.443   2.991  19.800  0.00  0.00    +0.000 C 
ATOM     13  C   UNL     1       2.943   4.438  19.840  0.00  0.00    +0.000 C 
ATOM     14  C   UNL     1       4.221   5.212  19.462  0.00  0.00    +0.000 C 
BRANCH  13  15
ATOM     15  N   UNL     1       1.853   4.640  18.878  0.00  0.00    +0.000 NA
ATOM     16  H   UNL     1       1.035   4.105  19.177  0.00  0.00    +0.000 HD
ATOM     17  H   UNL     1       2.117   4.244  17.977  0.00  0.00    +0.000 HD
ENDBRANCH  13  15
ENDBRANCH   4   8
BRANCH   1  21
ATOM     18  C   UNL     1       9.686  12.288  18.906  0.00  0.00    +0.000 A 
ATOM     19  C   UNL     1       8.878  12.067  17.796  0.00  0.00    +0.000 A 
ATOM     20  C   UNL     1       8.358  10.796  17.535  0.00  0.00    +0.000 A 
ATOM     21  C   UNL     1       8.634   9.703  18.378  0.00  0.00    +0.000 A 
ATOM     22  C   UNL     1       9.486   9.938  19.471  0.00  0.00    +0.000 A 
ATOM     23  C   UNL     1      10.010  11.212  19.730  0.00  0.00    +0.000 A 
BRANCH  18  25
ATOM     24  C   UNL     1      10.971  14.062  18.035  0.00  0.00    +0.000 C 
ATOM     25  O   UNL     1      10.123  13.569  19.067  0.00  0.00    +0.000 OA
ENDBRANCH  18  25
ENDBRANCH   1  21
TORSDOF 4
ENDMDL
MODEL 6
REMARK VINA RESULT:      -7.3      5.227      7.373
REMARK  Name = 
REMARK  5 active torsions:
REMARK  status: ('A' for Active; 'I' for Inactive)
REMARK    1  A    between atoms: C_1  and  O_2
REMARK    2  A    between atoms: O_2  and  C_3
REMARK    3  A    between atoms: C_6  and  C_7
REMARK    4  A    between atoms: C_10  and  C_11
REMARK    5  A    between atoms: C_16  and  N_17
REMARK                            x       y       z     vdW  Elec       q    Type
REMARK                         _______ _______ _______ _____ _____    ______ ____
ROOT
ATOM      1  C   UNL     1       8.096   8.533  18.242  0.00  0.00    +0.000 A 
ATOM      2  C   UNL     1       8.455   7.394  18.985  0.00  0.00    +0.000 A 
ATOM      3  C   UNL     1       7.823   6.157  18.775  0.00  0.00    +0.000 A 
ATOM      4  C   UNL     1       6.818   6.028  17.809  0.00  0.00    +0.000 A 
ATOM      5  C   UNL     1       6.434   7.159  17.098  0.00  0.00    +0.000 A 
ATOM      6  F   UNL     1       5.393   7.141  16.255  0.00  0.00    +0.000 F 
ATOM      7  C   UNL     1       7.074   8.381  17.290  0.00  0.00    +0.000 A 
ENDROOT
BRANCH   4   8
ATOM      8  C   UNL     1       6.087   4.746  17.690  0.00  0.00    +0.000 C 
ATOM      9  O   UNL     1       6.426   3.979  16.789  0.00  0.00    +0.000 OA
ATOM     10  N   UNL     1       5.069   4.435  18.571  0.00  0.00    +0.000 N 
ATOM     11  C   UNL     1       4.523   3.088  18.614  0.00  0.00    +0.000 C 
ATOM     12  C   UNL     1       3.524   3.116  19.762  0.00  0.00    +0.000 C 
ATOM     13  C   UNL     1       3.005   4.556  19.745  0.00  0.00    +0.000 C 
ATOM     14  C   UNL     1       4.291   5.339  19.418  0.00  0.00    +0.000 C 
BRANCH  13  15
ATOM     15  N   UNL     1       1.964   4.725  18.724  0.00  0.00    +0.000 NA
ATOM     16  H   UNL     1       1.157   5.196  19.138  0.00  0.00    +0.000 HD
ATOM     17  H   UNL     1       1.621   3.809  18.435  0.00  0.00    +0.000 HD
ENDBRANCH  13  15
ENDBRANCH   4   8
BRANCH   1  21
ATOM     18  C   UNL     1      10.022  12.355  18.820  0.00  0.00    +0.000 A 
ATOM     19  C   UNL     1      10.243  11.308  19.708  0.00  0.00    +0.000 A 
ATOM     20  C   UNL     1       9.595  10.081  19.539  0.00  0.00    +0.000 A 
ATOM     21  C   UNL     1       8.702   9.864  18.473  0.00  0.00    +0.000 A 
ATOM     22  C   UNL     1       8.461  10.947  17.611  0.00  0.00    +0.000 A 
ATOM     23  C   UNL     1       9.107  12.179  17.783  0.00  0.00    +0.000 A 
BRANCH  18  25
ATOM     24  C   UNL     1      12.078  13.314  19.460  0.00  0.00    +0.000 C 
ATOM     25  O   UNL     1      10.719  13.498  19.075  0.00  0.00    +0.000 OA
ENDBRANCH  18  25
ENDBRANCH   1  21
TORSDOF 4
ENDMDL
MODEL 7
REMARK VINA RESULT:      -7.2      1.234      1.686
REMARK  Name = 
REMARK  5 active torsions:
REMARK  status: ('A' for Active; 'I' for Inactive)
REMARK    1  A    between atoms: C_1  and  O_2
REMARK    2  A    between atoms: O_2  and  C_3
REMARK    3  A    between atoms: C_6  and  C_7
REMARK    4  A    between atoms: C_10  and  C_11
REMARK    5  A    between atoms: C_16  and  N_17
REMARK                            x       y       z     vdW  Elec       q    Type
REMARK                         _______ _______ _______ _____ _____    ______ ____
ROOT
ATOM      1  C   UNL     1       1.635   8.648  19.305  0.00  0.00    +0.000 A 
ATOM      2  C   UNL     1       1.962   8.568  17.939  0.00  0.00    +0.000 A 
ATOM      3  C   UNL     1       2.556   7.414  17.398  0.00  0.00    +0.000 A 
ATOM      4  C   UNL     1       2.831   6.309  18.212  0.00  0.00    +0.000 A 
ATOM      5  C   UNL     1       2.543   6.397  19.568  0.00  0.00    +0.000 A 
ATOM      6  F   UNL     1       2.899   5.432  20.427  0.00  0.00    +0.000 F 
ATOM      7  C   UNL     1       1.936   7.531  20.102  0.00  0.00    +0.000 A 
ENDROOT
BRANCH   4   8
ATOM      8  C   UNL     1       3.563   5.155  17.642  0.00  0.00    +0.000 C 
ATOM      9  O   UNL     1       2.940   4.103  17.492  0.00  0.00    +0.000 OA
ATOM     10  N   UNL     1       4.894   5.274  17.290  0.00  0.00    +0.000 N 
ATOM     11  C   UNL     1       5.541   4.232  16.509  0.00  0.00    +0.000 C 
ATOM     12  C   UNL     1       6.939   4.768  16.237  0.00  0.00    +0.000 C 
ATOM     13  C   UNL     1       7.239   5.619  17.475  0.00  0.00    +0.000 C 
ATOM     14  C   UNL     1       5.867   6.270  17.737  0.00  0.00    +0.000 C 
BRANCH  13  15
ATOM     15  N   UNL     1       7.689   4.776  18.590  0.00  0.00    +0.000 NA
ATOM     16  H   UNL     1       8.567   4.318  18.334  0.00  0.00    +0.000 HD
ATOM     17  H   UNL     1       7.023   4.018  18.733  0.00  0.00    +0.000 HD
ENDBRANCH  13  15
ENDBRANCH   4   8
BRANCH   1  21
ATOM     18  C   UNL     1       0.115  12.209  21.217  0.00  0.00    +0.000 A 
ATOM     19  C   UNL     1      -0.114  10.954  21.771  0.00  0.00    +0.000 A 
ATOM     20  C   UNL     1       0.350   9.798  21.135  0.00  0.00    +0.000 A 
ATOM     21  C   UNL     1       1.060   9.864  19.921  0.00  0.00    +0.000 A 
ATOM     22  C   UNL     1       1.245  11.138  19.357  0.00  0.00    +0.000 A 
ATOM     23  C   UNL     1       0.775  12.296  19.993  0.00  0.00    +0.000 A 
BRANCH  18  25
ATOM     24  C   UNL     1      -1.192  12.922  23.044  0.00  0.00    +0.000 C 
ATOM     25  O   UNL     1      -0.371  13.263  21.931  0.00  0.00    +0.000 OA
ENDBRANCH  18  25
ENDBRANCH   1  21
TORSDOF 4
ENDMDL
MODEL 8
REMARK VINA RESULT:      -7.1      5.450      7.732
REMARK  Name = 
REMARK  5 active torsions:
REMARK  status: ('A' for Active; 'I' for Inactive)
REMARK    1  A    between atoms: C_1  and  O_2
REMARK    2  A    between atoms: O_2  and  C_3
REMARK    3  A    between atoms: C_6  and  C_7
REMARK    4  A    between atoms: C_10  and  C_11
REMARK    5  A    between atoms: C_16  and  N_17
REMARK                            x       y       z     vdW  Elec       q    Type
REMARK                         _______ _______ _______ _____ _____    ______ ____
ROOT
ATOM      1  C   UNL     1       8.376   8.796  18.450  0.00  0.00    +0.000 A 
ATOM      2  C   UNL     1       7.409   8.756  17.429  0.00  0.00    +0.000 A 
ATOM      3  C   UNL     1       6.710   7.573  17.132  0.00  0.00    +0.000 A 
ATOM      4  C   UNL     1       6.960   6.401  17.855  0.00  0.00    +0.000 A 
ATOM      5  C   UNL     1       7.940   6.426  18.839  0.00  0.00    +0.000 A 
ATOM      6  F   UNL     1       8.324   5.312  19.478  0.00  0.00    +0.000 F 
ATOM      7  C   UNL     1       8.618   7.601  19.149  0.00  0.00    +0.000 A 
ENDROOT
BRANCH   4   8
ATOM      8  C   UNL     1       6.298   5.142  17.444  0.00  0.00    +0.000 C 
ATOM      9  O   UNL     1       6.792   4.519  16.503  0.00  0.00    +0.000 OA
ATOM     10  N   UNL     1       5.172   4.693  18.107  0.00  0.00    +0.000 N 
ATOM     11  C   UNL     1       4.671   3.348  17.873  0.00  0.00    +0.000 C 
ATOM     12  C   UNL     1       3.512   3.194  18.848  0.00  0.00    +0.000 C 
ATOM     13  C   UNL     1       2.954   4.616  18.960  0.00  0.00    +0.000 C 
ATOM     14  C   UNL     1       4.247   5.453  18.948  0.00  0.00    +0.000 C 
BRANCH  13  15
ATOM     15  N   UNL     1       2.070   4.921  17.828  0.00  0.00    +0.000 NA
ATOM     16  H   UNL     1       1.922   4.072  17.277  0.00  0.00    +0.000 HD
ATOM     17  H   UNL     1       2.539   5.571  17.198  0.00  0.00    +0.000 HD
ENDBRANCH  13  15
ENDBRANCH   4   8
BRANCH   1  21
ATOM     18  C   UNL     1      10.529  12.437  19.317  0.00  0.00    +0.000 A 
ATOM     19  C   UNL     1      10.357  12.010  18.004  0.00  0.00    +0.000 A 
ATOM     20  C   UNL     1       9.688  10.815  17.725  0.00  0.00    +0.000 A 
ATOM     21  C   UNL     1       9.170  10.007  18.755  0.00  0.00    +0.000 A 
ATOM     22  C   UNL     1       9.390  10.435  20.076  0.00  0.00    +0.000 A 
ATOM     23  C   UNL     1      10.065  11.632  20.355  0.00  0.00    +0.000 A 
BRANCH  18  25
ATOM     24  C   UNL     1      11.608  14.246  18.258  0.00  0.00    +0.000 C 
ATOM     25  O   UNL     1      11.183  13.624  19.466  0.00  0.00    +0.000 OA
ENDBRANCH  18  25
ENDBRANCH   1  21
TORSDOF 4
ENDMDL
MODEL 9
REMARK VINA RESULT:      -7.1      5.439      7.703
REMARK  Name = 
REMARK  5 active torsions:
REMARK  status: ('A' for Active; 'I' for Inactive)
REMARK    1  A    between atoms: C_1  and  O_2
REMARK    2  A    between atoms: O_2  and  C_3
REMARK    3  A    between atoms: C_6  and  C_7
REMARK    4  A    between atoms: C_10  and  C_11
REMARK    5  A    between atoms: C_16  and  N_17
REMARK                            x       y       z     vdW  Elec       q    Type
REMARK                         _______ _______ _______ _____ _____    ______ ____
ROOT
ATOM      1  C   UNL     1       8.390   8.881  18.461  0.00  0.00    +0.000 A 
ATOM      2  C   UNL     1       7.413   8.874  17.448  0.00  0.00    +0.000 A 
ATOM      3  C   UNL     1       6.710   7.702  17.122  0.00  0.00    +0.000 A 
ATOM      4  C   UNL     1       6.964   6.507  17.806  0.00  0.00    +0.000 A 
ATOM      5  C   UNL     1       7.954   6.501  18.781  0.00  0.00    +0.000 A 
ATOM      6  F   UNL     1       8.341   5.368  19.383  0.00  0.00    +0.000 F 
ATOM      7  C   UNL     1       8.636   7.666  19.121  0.00  0.00    +0.000 A 
ENDROOT
BRANCH   4   8
ATOM      8  C   UNL     1       6.297   5.262  17.363  0.00  0.00    +0.000 C 
ATOM      9  O   UNL     1       6.766   4.683  16.382  0.00  0.00    +0.000 OA
ATOM     10  N   UNL     1       5.194   4.778  18.041  0.00  0.00    +0.000 N 
ATOM     11  C   UNL     1       4.694   3.441  17.766  0.00  0.00    +0.000 C 
ATOM     12  C   UNL     1       3.567   3.239  18.769  0.00  0.00    +0.000 C 
ATOM     13  C   UNL     1       3.004   4.651  18.958  0.00  0.00    +0.000 C 
ATOM     14  C   UNL     1       4.292   5.497  18.941  0.00  0.00    +0.000 C 
BRANCH  13  15
ATOM     15  N   UNL     1       2.085   4.997  17.867  0.00  0.00    +0.000 NA
ATOM     16  H   UNL     1       2.532   4.792  16.971  0.00  0.00    +0.000 HD
ATOM     17  H   UNL     1       1.926   6.004  17.863  0.00  0.00    +0.000 HD
ENDBRANCH  13  15
ENDBRANCH   4   8
BRANCH   1  21
ATOM     18  C   UNL     1      10.871  12.268  19.472  0.00  0.00    +0.000 A 
ATOM     19  C   UNL     1      10.195  11.563  20.462  0.00  0.00    +0.000 A 
ATOM     20  C   UNL     1       9.366  10.487  20.132  0.00  0.00    +0.000 A 
ATOM     21  C   UNL     1       9.188  10.082  18.796  0.00  0.00    +0.000 A 
ATOM     22  C   UNL     1       9.847  10.832  17.807  0.00  0.00    +0.000 A 
ATOM     23  C   UNL     1      10.675  11.914  18.138  0.00  0.00    +0.000 A 
BRANCH  18  25
ATOM     24  C   UNL     1      11.401  14.560  19.330  0.00  0.00    +0.000 C 
ATOM     25  O   UNL     1      11.661  13.287  19.913  0.00  0.00    +0.000 OA
ENDBRANCH  18  25
ENDBRANCH   1  21
TORSDOF 4
ENDMDL
