MODEL 1
REMARK VINA RESULT:      -8.4      0.000      0.000
REMARK  Name = 
REMARK  8 active torsions:
REMARK  status: ('A' for Active; 'I' for Inactive)
REMARK    1  A    between atoms: C_1  and  C_2
REMARK    2  A    between atoms: C_3  and  C_4
REMARK    3  A    between atoms: N_6  and  C_7
REMARK    4  A    between atoms: C_7  and  C_8
REMARK    5  A    between atoms: C_8  and  S_9
REMARK    6  A    between atoms: S_9  and  N_12
REMARK    7  A    between atoms: N_15  and  C_16
REMARK    8  A    between atoms: C_28  and  N_29
REMARK                            x       y       z     vdW  Elec       q    Type
REMARK                         _______ _______ _______ _____ _____    ______ ____
ROOT
ATOM      1  C   UNL     1       7.034   8.098  17.448  0.00  0.00    +0.000 C 
ENDROOT
BRANCH   1   2
ATOM      2  S   UNL     1       7.058   6.351  17.079  0.00  0.00    +0.000 S 
ATOM      3  O   UNL     1       7.746   6.161  15.825  0.00  0.00    +0.000 OA
ATOM      4  O   UNL     1       7.507   5.665  18.275  0.00  0.00    +0.000 OA
BRANCH   2   5
ATOM      5  N   UNL     1       5.422   5.978  16.844  0.00  0.00    +0.000 NA
ATOM      6  C   UNL     1       5.061   4.530  16.626  0.00  0.00    +0.000 C 
ATOM      7  C   UNL     1       4.960   3.724  17.945  0.00  0.00    +0.000 C 
ATOM      8  N   UNL     1       4.190   4.431  18.988  0.00  0.00    +0.000 N 
ATOM      9  C   UNL     1       4.498   5.860  19.175  0.00  0.00    +0.000 C 
ATOM     10  C   UNL     1       4.465   6.589  17.821  0.00  0.00    +0.000 C 
BRANCH   8  11
ATOM     11  C   UNL     1       3.052   3.895  19.569  0.00  0.00    +0.000 A 
ATOM     12  C   UNL     1       3.075   3.472  20.911  0.00  0.00    +0.000 A 
ATOM     13  C   UNL     1       1.950   2.928  21.543  0.00  0.00    +0.000 A 
ATOM     14  C   UNL     1       0.758   2.785  20.844  0.00  0.00    +0.000 A 
ATOM     15  C   UNL     1       0.700   3.192  19.506  0.00  0.00    +0.000 A 
ATOM     16  C   UNL     1       1.831   3.731  18.890  0.00  0.00    +0.000 A 
ATOM     17  F   UNL     1       1.702   4.151  17.621  0.00  0.00    +0.000 F 
ENDBRANCH   8  11
ENDBRANCH   2   5
ENDBRANCH   1   2
BRANCH   1  18
ATOM     18  C   UNL     1       8.205   8.528  18.319  0.00  0.00    +0.000 C 
BRANCH  18  21
ATOM     19  C   UNL     1       9.305  10.698  18.834  0.00  0.00    +0.000 C 
ATOM     20  O   UNL     1       9.389  10.413  20.025  0.00  0.00    +0.000 OA
ATOM     21  N   UNL     1       8.766   9.824  17.914  0.00  0.00    +0.000 N 
ATOM     22  H   UNL     1       8.899  10.000  16.927  0.00  0.00    +0.000 HD
BRANCH  19  25
ATOM     23  C   UNL     1       8.368  13.576  19.761  0.00  0.00    +0.000 C 
ATOM     24  C   UNL     1       9.454  13.303  18.754  0.00  0.00    +0.000 A 
ATOM     25  C   UNL     1       9.858  12.009  18.346  0.00  0.00    +0.000 A 
ATOM     26  C   UNL     1      10.946  11.874  17.450  0.00  0.00    +0.000 A 
ATOM     27  C   UNL     1      11.631  12.979  16.941  0.00  0.00    +0.000 A 
ATOM     28  C   UNL     1      11.247  14.254  17.321  0.00  0.00    +0.000 A 
ATOM     29  C   UNL     1      10.174  14.404  18.209  0.00  0.00    +0.000 A 
BRANCH  29  30
ATOM     30  N   UNL     1       9.841  15.779  18.574  0.00  0.00    +0.000 N 
ATOM     31  O   UNL     1       9.012  16.366  17.868  0.00  0.00    +0.000 OA
ATOM     32  O   UNL     1      10.434  16.262  19.547  0.00  0.00    +0.000 OA
ENDBRANCH  29  30
ENDBRANCH  19  25
ENDBRANCH  18  21
ENDBRANCH   1  18
TORSDOF 7
ENDMDL
MODEL 2
REMARK VINA RESULT:      -8.2      1.604      1.969
REMARK  Name = 
REMARK  8 active torsions:
REMARK  status: ('A' for Active; 'I' for Inactive)
REMARK    1  A    between atoms: C_1  and  C_2
REMARK    2  A    between atoms: C_3  and  C_4
REMARK    3  A    between atoms: N_6  and  C_7
REMARK    4  A    between atoms: C_7  and  C_8
REMARK    5  A    between atoms: C_8  and  S_9
REMARK    6  A    between atoms: S_9  and  N_12
REMARK    7  A    between atoms: N_15  and  C_16
REMARK    8  A    between atoms: C_28  and  N_29
REMARK                            x       y       z     vdW  Elec       q    Type
REMARK                         _______ _______ _______ _____ _____    ______ ____
ROOT
ATOM      1  C   UNL     1       7.427   7.316  17.315  0.00  0.00    +0.000 C 
ENDROOT
BRANCH   1   2
ATOM      2  S   UNL     1       7.087   5.722  16.584  0.00  0.00    +0.000 S 
ATOM      3  O   UNL     1       7.471   5.770  15.193  0.00  0.00    +0.000 OA
ATOM      4  O   UNL     1       7.643   4.716  17.466  0.00  0.00    +0.000 OA
BRANCH   2   5
ATOM      5  N   UNL     1       5.398   5.610  16.660  0.00  0.00    +0.000 NA
ATOM      6  C   UNL     1       4.781   4.249  16.459  0.00  0.00    +0.000 C 
ATOM      7  C   UNL     1       4.804   3.376  17.738  0.00  0.00    +0.000 C 
ATOM      8  N   UNL     1       4.364   4.114  18.940  0.00  0.00    +0.000 N 
ATOM      9  C   UNL     1       4.922   5.466  19.120  0.00  0.00    +0.000 C 
ATOM     10  C   UNL     1       4.750   6.284  17.829  0.00  0.00    +0.000 C 
BRANCH   8  11
ATOM     11  C   UNL     1       3.286   3.710  19.712  0.00  0.00    +0.000 A 
ATOM     12  C   UNL     1       2.021   4.294  19.520  0.00  0.00    +0.000 A 
ATOM     13  C   UNL     1       0.901   3.916  20.272  0.00  0.00    +0.000 A 
ATOM     14  C   UNL     1       1.016   2.937  21.251  0.00  0.00    +0.000 A 
ATOM     15  C   UNL     1       2.261   2.337  21.470  0.00  0.00    +0.000 A 
ATOM     16  C   UNL     1       3.367   2.726  20.713  0.00  0.00    +0.000 A 
ATOM     17  F   UNL     1       4.524   2.079  20.933  0.00  0.00    +0.000 F 
ENDBRANCH   8  11
ENDBRANCH   2   5
ENDBRANCH   1   2
BRANCH   1  18
ATOM     18  C   UNL     1       8.214   7.208  18.612  0.00  0.00    +0.000 C 
BRANCH  18  21
ATOM     19  C   UNL     1       8.546   9.658  18.344  0.00  0.00    +0.000 C 
ATOM     20  O   UNL     1       7.755   9.698  17.405  0.00  0.00    +0.000 OA
ATOM     21  N   UNL     1       8.813   8.486  19.019  0.00  0.00    +0.000 N 
ATOM     22  H   UNL     1       9.301   8.525  19.904  0.00  0.00    +0.000 HD
BRANCH  19  25
ATOM     23  C   UNL     1       7.945  12.574  17.267  0.00  0.00    +0.000 C 
ATOM     24  C   UNL     1       8.938  12.239  18.348  0.00  0.00    +0.000 A 
ATOM     25  C   UNL     1       9.199  10.928  18.815  0.00  0.00    +0.000 A 
ATOM     26  C   UNL     1      10.099  10.744  19.892  0.00  0.00    +0.000 A 
ATOM     27  C   UNL     1      10.753  11.814  20.506  0.00  0.00    +0.000 A 
ATOM     28  C   UNL     1      10.518  13.104  20.060  0.00  0.00    +0.000 A 
ATOM     29  C   UNL     1       9.627  13.303  18.997  0.00  0.00    +0.000 A 
BRANCH  29  30
ATOM     30  N   UNL     1       9.420  14.692  18.596  0.00  0.00    +0.000 N 
ATOM     31  O   UNL     1      10.152  15.138  17.703  0.00  0.00    +0.000 OA
ATOM     32  O   UNL     1       8.546  15.328  19.199  0.00  0.00    +0.000 OA
ENDBRANCH  29  30
ENDBRANCH  19  25
ENDBRANCH  18  21
ENDBRANCH   1  18
TORSDOF 7
ENDMDL
MODEL 3
REMARK VINA RESULT:      -8.0      0.844      1.270
REMARK  Name = 
REMARK  8 active torsions:
REMARK  status: ('A' for Active; 'I' for Inactive)
REMARK    1  A    between atoms: C_1  and  C_2
REMARK    2  A    between atoms: C_3  and  C_4
REMARK    3  A    between atoms: N_6  and  C_7
REMARK    4  A    between atoms: C_7  and  C_8
REMARK    5  A    between atoms: C_8  and  S_9
REMARK    6  A    between atoms: S_9  and  N_12
REMARK    7  A    between atoms: N_15  and  C_16
REMARK    8  A    between atoms: C_28  and  N_29
REMARK                            x       y       z     vdW  Elec       q    Type
REMARK                         _______ _______ _______ _____ _____    ______ ____
ROOT
ATOM      1  C   UNL     1       7.080   8.288  17.448  0.00  0.00    +0.000 C 
ENDROOT
BRANCH   1   2
ATOM      2  S   UNL     1       7.020   6.534  17.112  0.00  0.00    +0.000 S 
ATOM      3  O   UNL     1       7.793   6.275  15.920  0.00  0.00    +0.000 OA
ATOM      4  O   UNL     1       7.327   5.848  18.351  0.00  0.00    +0.000 OA
BRANCH   2   5
ATOM      5  N   UNL     1       5.388   6.261  16.751  0.00  0.00    +0.000 NA
ATOM      6  C   UNL     1       4.998   4.879  16.291  0.00  0.00    +0.000 C 
ATOM      7  C   UNL     1       4.812   3.879  17.460  0.00  0.00    +0.000 C 
ATOM      8  N   UNL     1       4.012   4.441  18.568  0.00  0.00    +0.000 N 
ATOM      9  C   UNL     1       4.351   5.810  18.991  0.00  0.00    +0.000 C 
ATOM     10  C   UNL     1       4.402   6.744  17.770  0.00  0.00    +0.000 C 
BRANCH   8  11
ATOM     11  C   UNL     1       2.833   3.860  19.008  0.00  0.00    +0.000 A 
ATOM     12  C   UNL     1       2.133   2.965  18.178  0.00  0.00    +0.000 A 
ATOM     13  C   UNL     1       0.941   2.350  18.580  0.00  0.00    +0.000 A 
ATOM     14  C   UNL     1       0.405   2.618  19.834  0.00  0.00    +0.000 A 
ATOM     15  C   UNL     1       1.075   3.506  20.684  0.00  0.00    +0.000 A 
ATOM     16  C   UNL     1       2.261   4.112  20.268  0.00  0.00    +0.000 A 
ATOM     17  F   UNL     1       2.885   4.915  21.145  0.00  0.00    +0.000 F 
ENDBRANCH   8  11
ENDBRANCH   2   5
ENDBRANCH   1   2
BRANCH   1  18
ATOM     18  C   UNL     1       8.289   8.682  18.282  0.00  0.00    +0.000 C 
BRANCH  18  21
ATOM     19  C   UNL     1       9.390  10.852  18.796  0.00  0.00    +0.000 C 
ATOM     20  O   UNL     1       9.456  10.576  19.991  0.00  0.00    +0.000 OA
ATOM     21  N   UNL     1       8.860   9.973  17.876  0.00  0.00    +0.000 N 
ATOM     22  H   UNL     1       9.008  10.141  16.889  0.00  0.00    +0.000 HD
BRANCH  19  25
ATOM     23  C   UNL     1       8.306  13.738  19.516  0.00  0.00    +0.000 C 
ATOM     24  C   UNL     1       9.485  13.455  18.623  0.00  0.00    +0.000 A 
ATOM     25  C   UNL     1       9.954  12.157  18.307  0.00  0.00    +0.000 A 
ATOM     26  C   UNL     1      11.121  12.017  17.519  0.00  0.00    +0.000 A 
ATOM     27  C   UNL     1      11.824  13.120  17.028  0.00  0.00    +0.000 A 
ATOM     28  C   UNL     1      11.378  14.398  17.319  0.00  0.00    +0.000 A 
ATOM     29  C   UNL     1      10.225  14.553  18.101  0.00  0.00    +0.000 A 
BRANCH  29  30
ATOM     30  N   UNL     1       9.829  15.932  18.378  0.00  0.00    +0.000 N 
ATOM     31  O   UNL     1      10.342  16.482  19.360  0.00  0.00    +0.000 OA
ATOM     32  O   UNL     1       8.987  16.437  17.623  0.00  0.00    +0.000 OA
ENDBRANCH  29  30
ENDBRANCH  19  25
ENDBRANCH  18  21
ENDBRANCH   1  18
TORSDOF 7
ENDMDL
MODEL 4
REMARK VINA RESULT:      -7.8      1.371      1.920
REMARK  Name = 
REMARK  8 active torsions:
REMARK  status: ('A' for Active; 'I' for Inactive)
REMARK    1  A    between atoms: C_1  and  C_2
REMARK    2  A    between atoms: C_3  and  C_4
REMARK    3  A    between atoms: N_6  and  C_7
REMARK    4  A    between atoms: C_7  and  C_8
REMARK    5  A    between atoms: C_8  and  S_9
REMARK    6  A    between atoms: S_9  and  N_12
REMARK    7  A    between atoms: N_15  and  C_16
REMARK    8  A    between atoms: C_28  and  N_29
REMARK                            x       y       z     vdW  Elec       q    Type
REMARK                         _______ _______ _______ _____ _____    ______ ____
ROOT
ATOM      1  C   UNL     1       6.494   7.342  17.396  0.00  0.00    +0.000 C 
ENDROOT
BRANCH   1   2
ATOM      2  S   UNL     1       6.398   6.082  16.133  0.00  0.00    +0.000 S 
ATOM      3  O   UNL     1       5.238   6.347  15.316  0.00  0.00    +0.000 OA
ATOM      4  O   UNL     1       7.712   5.975  15.531  0.00  0.00    +0.000 OA
BRANCH   2   5
ATOM      5  N   UNL     1       6.109   4.666  17.016  0.00  0.00    +0.000 NA
ATOM      6  C   UNL     1       6.247   4.739  18.516  0.00  0.00    +0.000 C 
ATOM      7  C   UNL     1       4.993   5.320  19.214  0.00  0.00    +0.000 C 
ATOM      8  N   UNL     1       3.736   4.732  18.710  0.00  0.00    +0.000 N 
ATOM      9  C   UNL     1       3.610   4.608  17.248  0.00  0.00    +0.000 C 
ATOM     10  C   UNL     1       4.858   3.920  16.667  0.00  0.00    +0.000 C 
BRANCH   8  11
ATOM     11  C   UNL     1       2.838   4.069  19.533  0.00  0.00    +0.000 A 
ATOM     12  C   UNL     1       3.238   3.633  20.809  0.00  0.00    +0.000 A 
ATOM     13  C   UNL     1       2.366   2.963  21.677  0.00  0.00    +0.000 A 
ATOM     14  C   UNL     1       1.058   2.703  21.288  0.00  0.00    +0.000 A 
ATOM     15  C   UNL     1       0.628   3.120  20.024  0.00  0.00    +0.000 A 
ATOM     16  C   UNL     1       1.509   3.784  19.170  0.00  0.00    +0.000 A 
ATOM     17  F   UNL     1       1.026   4.205  17.989  0.00  0.00    +0.000 F 
ENDBRANCH   8  11
ENDBRANCH   2   5
ENDBRANCH   1   2
BRANCH   1  18
ATOM     18  C   UNL     1       7.926   7.759  17.698  0.00  0.00    +0.000 C 
BRANCH  18  21
ATOM     19  C   UNL     1       8.796   9.917  18.575  0.00  0.00    +0.000 C 
ATOM     20  O   UNL     1       9.299   9.360  19.546  0.00  0.00    +0.000 OA
ATOM     21  N   UNL     1       8.127   9.210  17.598  0.00  0.00    +0.000 N 
ATOM     22  H   UNL     1       7.908   9.664  16.721  0.00  0.00    +0.000 HD
BRANCH  19  25
ATOM     23  C   UNL     1      11.256  11.645  19.566  0.00  0.00    +0.000 C 
ATOM     24  C   UNL     1      10.055  12.188  18.839  0.00  0.00    +0.000 A 
ATOM     25  C   UNL     1       8.960  11.402  18.407  0.00  0.00    +0.000 A 
ATOM     26  C   UNL     1       7.922  12.012  17.662  0.00  0.00    +0.000 A 
ATOM     27  C   UNL     1       7.933  13.373  17.347  0.00  0.00    +0.000 A 
ATOM     28  C   UNL     1       8.991  14.161  17.767  0.00  0.00    +0.000 A 
ATOM     29  C   UNL     1      10.028  13.572  18.502  0.00  0.00    +0.000 A 
BRANCH  29  30
ATOM     30  N   UNL     1      11.114  14.466  18.894  0.00  0.00    +0.000 N 
ATOM     31  O   UNL     1      11.022  15.019  19.997  0.00  0.00    +0.000 OA
ATOM     32  O   UNL     1      12.034  14.624  18.080  0.00  0.00    +0.000 OA
ENDBRANCH  29  30
ENDBRANCH  19  25
ENDBRANCH  18  21
ENDBRANCH   1  18
TORSDOF 7
ENDMDL
MODEL 5
REMARK VINA RESULT:      -7.7      1.298      1.802
REMARK  Name = 
REMARK  8 active torsions:
REMARK  status: ('A' for Active; 'I' for Inactive)
REMARK    1  A    between atoms: C_1  and  C_2
REMARK    2  A    between atoms: C_3  and  C_4
REMARK    3  A    between atoms: N_6  and  C_7
REMARK    4  A    between atoms: C_7  and  C_8
REMARK    5  A    between atoms: C_8  and  S_9
REMARK    6  A    between atoms: S_9  and  N_12
REMARK    7  A    between atoms: N_15  and  C_16
REMARK    8  A    between atoms: C_28  and  N_29
REMARK                            x       y       z     vdW  Elec       q    Type
REMARK                         _______ _______ _______ _____ _____    ______ ____
ROOT
ATOM      1  C   UNL     1       7.081   8.090  17.431  0.00  0.00    +0.000 C 
ENDROOT
BRANCH   1   2
ATOM      2  S   UNL     1       7.045   6.346  17.048  0.00  0.00    +0.000 S 
ATOM      3  O   UNL     1       7.708   6.146  15.782  0.00  0.00    +0.000 OA
ATOM      4  O   UNL     1       7.490   5.636  18.231  0.00  0.00    +0.000 OA
BRANCH   2   5
ATOM      5  N   UNL     1       5.395   6.026  16.836  0.00  0.00    +0.000 NA
ATOM      6  C   UNL     1       4.992   4.601  16.549  0.00  0.00    +0.000 C 
ATOM      7  C   UNL     1       4.903   3.727  17.825  0.00  0.00    +0.000 C 
ATOM      8  N   UNL     1       4.176   4.395  18.924  0.00  0.00    +0.000 N 
ATOM      9  C   UNL     1       4.525   5.803  19.179  0.00  0.00    +0.000 C 
ATOM     10  C   UNL     1       4.478   6.606  17.868  0.00  0.00    +0.000 C 
BRANCH   8  11
ATOM     11  C   UNL     1       3.039   3.855  19.505  0.00  0.00    +0.000 A 
ATOM     12  C   UNL     1       3.066   3.423  20.843  0.00  0.00    +0.000 A 
ATOM     13  C   UNL     1       1.942   2.875  21.474  0.00  0.00    +0.000 A 
ATOM     14  C   UNL     1       0.748   2.738  20.777  0.00  0.00    +0.000 A 
ATOM     15  C   UNL     1       0.687   3.156  19.443  0.00  0.00    +0.000 A 
ATOM     16  C   UNL     1       1.816   3.698  18.828  0.00  0.00    +0.000 A 
ATOM     17  F   UNL     1       1.684   4.127  17.562  0.00  0.00    +0.000 F 
ENDBRANCH   8  11
ENDBRANCH   2   5
ENDBRANCH   1   2
BRANCH   1  18
ATOM     18  C   UNL     1       8.476   8.582  17.787  0.00  0.00    +0.000 C 
BRANCH  18  21
ATOM     19  C   UNL     1       9.377  10.773  18.544  0.00  0.00    +0.000 C 
ATOM     20  O   UNL     1      10.227  10.769  17.658  0.00  0.00    +0.000 OA
ATOM     21  N   UNL     1       8.454   9.756  18.669  0.00  0.00    +0.000 N 
ATOM     22  H   UNL     1       7.651   9.889  19.268  0.00  0.00    +0.000 HD
BRANCH  19  25
ATOM     23  C   UNL     1       8.239  13.645  17.855  0.00  0.00    +0.000 C 
ATOM     24  C   UNL     1       8.785  13.230  19.195  0.00  0.00    +0.000 A 
ATOM     25  C   UNL     1       9.296  11.942  19.486  0.00  0.00    +0.000 A 
ATOM     26  C   UNL     1       9.711  11.644  20.806  0.00  0.00    +0.000 A 
ATOM     27  C   UNL     1       9.646  12.585  21.836  0.00  0.00    +0.000 A 
ATOM     28  C   UNL     1       9.157  13.853  21.572  0.00  0.00    +0.000 A 
ATOM     29  C   UNL     1       8.739  14.162  20.271  0.00  0.00    +0.000 A 
BRANCH  29  30
ATOM     30  N   UNL     1       8.221  15.514  20.076  0.00  0.00    +0.000 N 
ATOM     31  O   UNL     1       7.014  15.692  20.281  0.00  0.00    +0.000 OA
ATOM     32  O   UNL     1       9.024  16.375  19.695  0.00  0.00    +0.000 OA
ENDBRANCH  29  30
ENDBRANCH  19  25
ENDBRANCH  18  21
ENDBRANCH   1  18
TORSDOF 7
ENDMDL
MODEL 6
REMARK VINA RESULT:      -7.7      1.179      1.437
REMARK  Name = 
REMARK  8 active torsions:
REMARK  status: ('A' for Active; 'I' for Inactive)
REMARK    1  A    between atoms: C_1  and  C_2
REMARK    2  A    between atoms: C_3  and  C_4
REMARK    3  A    between atoms: N_6  and  C_7
REMARK    4  A    between atoms: C_7  and  C_8
REMARK    5  A    between atoms: C_8  and  S_9
REMARK    6  A    between atoms: S_9  and  N_12
REMARK    7  A    between atoms: N_15  and  C_16
REMARK    8  A    between atoms: C_28  and  N_29
REMARK                            x       y       z     vdW  Elec       q    Type
REMARK                         _______ _______ _______ _____ _____    ______ ____
ROOT
ATOM      1  C   UNL     1       8.098   7.541  16.791  0.00  0.00    +0.000 C 
ENDROOT
BRANCH   1   2
ATOM      2  S   UNL     1       6.997   6.134  16.785  0.00  0.00    +0.000 S 
ATOM      3  O   UNL     1       6.212   6.178  15.575  0.00  0.00    +0.000 OA
ATOM      4  O   UNL     1       7.792   4.965  17.105  0.00  0.00    +0.000 OA
BRANCH   2   5
ATOM      5  N   UNL     1       5.965   6.440  18.094  0.00  0.00    +0.000 NA
ATOM      6  C   UNL     1       4.517   6.727  17.787  0.00  0.00    +0.000 C 
ATOM      7  C   UNL     1       3.681   5.446  17.546  0.00  0.00    +0.000 C 
ATOM      8  N   UNL     1       3.931   4.403  18.561  0.00  0.00    +0.000 N 
ATOM      9  C   UNL     1       5.340   4.149  18.907  0.00  0.00    +0.000 C 
ATOM     10  C   UNL     1       6.051   5.473  19.234  0.00  0.00    +0.000 C 
BRANCH   8  11
ATOM     11  C   UNL     1       2.925   3.883  19.361  0.00  0.00    +0.000 A 
ATOM     12  C   UNL     1       3.081   3.848  20.759  0.00  0.00    +0.000 A 
ATOM     13  C   UNL     1       2.092   3.336  21.608  0.00  0.00    +0.000 A 
ATOM     14  C   UNL     1       0.909   2.835  21.080  0.00  0.00    +0.000 A 
ATOM     15  C   UNL     1       0.722   2.853  19.693  0.00  0.00    +0.000 A 
ATOM     16  C   UNL     1       1.718   3.364  18.860  0.00  0.00    +0.000 A 
ATOM     17  F   UNL     1       1.462   3.402  17.542  0.00  0.00    +0.000 F 
ENDBRANCH   8  11
ENDBRANCH   2   5
ENDBRANCH   1   2
BRANCH   1  18
ATOM     18  C   UNL     1       7.746   8.554  17.871  0.00  0.00    +0.000 C 
BRANCH  18  21
ATOM     19  C   UNL     1       9.146  10.294  18.966  0.00  0.00    +0.000 C 
ATOM     20  O   UNL     1       8.992   9.775  20.068  0.00  0.00    +0.000 OA
ATOM     21  N   UNL     1       8.597   9.750  17.824  0.00  0.00    +0.000 N 
ATOM     22  H   UNL     1       8.910  10.078  16.920  0.00  0.00    +0.000 HD
BRANCH  19  25
ATOM     23  C   UNL     1       8.320  13.009  17.563  0.00  0.00    +0.000 C 
ATOM     24  C   UNL     1       9.648  12.745  18.222  0.00  0.00    +0.000 A 
ATOM     25  C   UNL     1      10.004  11.522  18.841  0.00  0.00    +0.000 A 
ATOM     26  C   UNL     1      11.253  11.417  19.497  0.00  0.00    +0.000 A 
ATOM     27  C   UNL     1      12.160  12.479  19.546  0.00  0.00    +0.000 A 
ATOM     28  C   UNL     1      11.835  13.681  18.940  0.00  0.00    +0.000 A 
ATOM     29  C   UNL     1      10.600  13.802  18.289  0.00  0.00    +0.000 A 
BRANCH  29  30
ATOM     30  N   UNL     1      10.325  15.105  17.690  0.00  0.00    +0.000 N 
ATOM     31  O   UNL     1      10.906  15.375  16.632  0.00  0.00    +0.000 OA
ATOM     32  O   UNL     1       9.551  15.853  18.301  0.00  0.00    +0.000 OA
ENDBRANCH  29  30
ENDBRANCH  19  25
ENDBRANCH  18  21
ENDBRANCH   1  18
TORSDOF 7
ENDMDL
MODEL 7
REMARK VINA RESULT:      -7.7      6.414      8.501
REMARK  Name = 
REMARK  8 active torsions:
REMARK  status: ('A' for Active; 'I' for Inactive)
REMARK    1  A    between atoms: C_1  and  C_2
REMARK    2  A    between atoms: C_3  and  C_4
REMARK    3  A    between atoms: N_6  and  C_7
REMARK    4  A    between atoms: C_7  and  C_8
REMARK    5  A    between atoms: C_8  and  S_9
REMARK    6  A    between atoms: S_9  and  N_12
REMARK    7  A    between atoms: N_15  and  C_16
REMARK    8  A    between atoms: C_28  and  N_29
REMARK                            x       y       z     vdW  Elec       q    Type
REMARK                         _______ _______ _______ _____ _____    ______ ____
ROOT
ATOM      1  C   UNL     1       1.325   4.629  20.327  0.00  0.00    +0.000 C 
ENDROOT
BRANCH   1   2
ATOM      2  S   UNL     1       1.851   3.032  20.931  0.00  0.00    +0.000 S 
ATOM      3  O   UNL     1       2.815   3.241  21.985  0.00  0.00    +0.000 OA
ATOM      4  O   UNL     1       0.656   2.248  21.171  0.00  0.00    +0.000 OA
BRANCH   2   5
ATOM      5  N   UNL     1       2.659   2.359  19.603  0.00  0.00    +0.000 NA
ATOM      6  C   UNL     1       2.213   2.785  18.226  0.00  0.00    +0.000 C 
ATOM      7  C   UNL     1       2.813   4.143  17.786  0.00  0.00    +0.000 C 
ATOM      8  N   UNL     1       4.262   4.240  18.053  0.00  0.00    +0.000 N 
ATOM      9  C   UNL     1       4.717   3.779  19.377  0.00  0.00    +0.000 C 
ATOM     10  C   UNL     1       4.155   2.377  19.670  0.00  0.00    +0.000 C 
BRANCH   8  11
ATOM     11  C   UNL     1       5.193   4.472  17.052  0.00  0.00    +0.000 A 
ATOM     12  C   UNL     1       5.195   3.678  15.891  0.00  0.00    +0.000 A 
ATOM     13  C   UNL     1       6.113   3.877  14.852  0.00  0.00    +0.000 A 
ATOM     14  C   UNL     1       7.067   4.883  14.946  0.00  0.00    +0.000 A 
ATOM     15  C   UNL     1       7.095   5.689  16.089  0.00  0.00    +0.000 A 
ATOM     16  C   UNL     1       6.175   5.477  17.117  0.00  0.00    +0.000 A 
ATOM     17  F   UNL     1       6.217   6.314  18.167  0.00  0.00    +0.000 F 
ENDBRANCH   8  11
ENDBRANCH   2   5
ENDBRANCH   1   2
BRANCH   1  18
ATOM     18  C   UNL     1       2.185   5.767  20.858  0.00  0.00    +0.000 C 
BRANCH  18  21
ATOM     19  C   UNL     1       1.425   8.096  20.433  0.00  0.00    +0.000 C 
ATOM     20  O   UNL     1       2.068   8.153  19.388  0.00  0.00    +0.000 OA
ATOM     21  N   UNL     1       1.397   6.956  21.207  0.00  0.00    +0.000 N 
ATOM     22  H   UNL     1       0.703   6.872  21.939  0.00  0.00    +0.000 HD
BRANCH  19  25
ATOM     23  C   UNL     1       0.021  10.174  18.501  0.00  0.00    +0.000 C 
ATOM     24  C   UNL     1      -0.044  10.211  20.004  0.00  0.00    +0.000 A 
ATOM     25  C   UNL     1       0.594   9.276  20.855  0.00  0.00    +0.000 A 
ATOM     26  C   UNL     1       0.397   9.367  22.254  0.00  0.00    +0.000 A 
ATOM     27  C   UNL     1      -0.399  10.359  22.830  0.00  0.00    +0.000 A 
ATOM     28  C   UNL     1      -1.027  11.288  22.017  0.00  0.00    +0.000 A 
ATOM     29  C   UNL     1      -0.844  11.209  20.630  0.00  0.00    +0.000 A 
BRANCH  29  30
ATOM     30  N   UNL     1      -1.551  12.214  19.840  0.00  0.00    +0.000 N 
ATOM     31  O   UNL     1      -0.939  13.255  19.570  0.00  0.00    +0.000 OA
ATOM     32  O   UNL     1      -2.721  11.961  19.524  0.00  0.00    +0.000 OA
ENDBRANCH  29  30
ENDBRANCH  19  25
ENDBRANCH  18  21
ENDBRANCH   1  18
TORSDOF 7
ENDMDL
MODEL 8
REMARK VINA RESULT:      -7.6      1.170      1.380
REMARK  Name = 
REMARK  8 active torsions:
REMARK  status: ('A' for Active; 'I' for Inactive)
REMARK    1  A    between atoms: C_1  and  C_2
REMARK    2  A    between atoms: C_3  and  C_4
REMARK    3  A    between atoms: N_6  and  C_7
REMARK    4  A    between atoms: C_7  and  C_8
REMARK    5  A    between atoms: C_8  and  S_9
REMARK    6  A    between atoms: S_9  and  N_12
REMARK    7  A    between atoms: N_15  and  C_16
REMARK    8  A    between atoms: C_28  and  N_29
REMARK                            x       y       z     vdW  Elec       q    Type
REMARK                         _______ _______ _______ _____ _____    ______ ____
ROOT
ATOM      1  C   UNL     1       6.834   7.452  17.477  0.00  0.00    +0.000 C 
ENDROOT
BRANCH   1   2
ATOM      2  S   UNL     1       6.948   5.815  16.772  0.00  0.00    +0.000 S 
ATOM      3  O   UNL     1       7.522   5.929  15.452  0.00  0.00    +0.000 OA
ATOM      4  O   UNL     1       7.561   4.959  17.769  0.00  0.00    +0.000 OA
BRANCH   2   5
ATOM      5  N   UNL     1       5.329   5.348  16.604  0.00  0.00    +0.000 NA
ATOM      6  C   UNL     1       5.021   3.872  16.648  0.00  0.00    +0.000 C 
ATOM      7  C   UNL     1       4.937   3.311  18.089  0.00  0.00    +0.000 C 
ATOM      8  N   UNL     1       4.133   4.165  18.987  0.00  0.00    +0.000 N 
ATOM      9  C   UNL     1       4.390   5.614  18.916  0.00  0.00    +0.000 C 
ATOM     10  C   UNL     1       4.342   6.088  17.454  0.00  0.00    +0.000 C 
BRANCH   8  11
ATOM     11  C   UNL     1       3.010   3.700  19.653  0.00  0.00    +0.000 A 
ATOM     12  C   UNL     1       3.122   3.194  20.961  0.00  0.00    +0.000 A 
ATOM     13  C   UNL     1       2.016   2.718  21.675  0.00  0.00    +0.000 A 
ATOM     14  C   UNL     1       0.753   2.729  21.095  0.00  0.00    +0.000 A 
ATOM     15  C   UNL     1       0.606   3.223  19.794  0.00  0.00    +0.000 A 
ATOM     16  C   UNL     1       1.719   3.693  19.095  0.00  0.00    +0.000 A 
ATOM     17  F   UNL     1       1.509   4.202  17.870  0.00  0.00    +0.000 F 
ENDBRANCH   8  11
ENDBRANCH   2   5
ENDBRANCH   1   2
BRANCH   1  18
ATOM     18  C   UNL     1       8.193   8.023  17.854  0.00  0.00    +0.000 C 
BRANCH  18  21
ATOM     19  C   UNL     1       8.906  10.240  18.726  0.00  0.00    +0.000 C 
ATOM     20  O   UNL     1       9.551   9.717  19.630  0.00  0.00    +0.000 OA
ATOM     21  N   UNL     1       8.230   9.489  17.787  0.00  0.00    +0.000 N 
ATOM     22  H   UNL     1       7.887   9.938  16.948  0.00  0.00    +0.000 HD
BRANCH  19  25
ATOM     23  C   UNL     1      10.811  12.256  20.252  0.00  0.00    +0.000 C 
ATOM     24  C   UNL     1       9.745  12.652  19.266  0.00  0.00    +0.000 A 
ATOM     25  C   UNL     1       8.897  11.738  18.595  0.00  0.00    +0.000 A 
ATOM     26  C   UNL     1       7.983  12.223  17.629  0.00  0.00    +0.000 A 
ATOM     27  C   UNL     1       7.877  13.581  17.321  0.00  0.00    +0.000 A 
ATOM     28  C   UNL     1       8.691  14.493  17.971  0.00  0.00    +0.000 A 
ATOM     29  C   UNL     1       9.604  14.028  18.927  0.00  0.00    +0.000 A 
BRANCH  29  30
ATOM     30  N   UNL     1      10.438  15.050  19.556  0.00  0.00    +0.000 N 
ATOM     31  O   UNL     1      11.424  15.443  18.922  0.00  0.00    +0.000 OA
ATOM     32  O   UNL     1      10.109  15.425  20.689  0.00  0.00    +0.000 OA
ENDBRANCH  29  30
ENDBRANCH  19  25
ENDBRANCH  18  21
ENDBRANCH   1  18
TORSDOF 7
ENDMDL
MODEL 9
REMARK VINA RESULT:      -7.6      5.350      6.674
REMARK  Name = 
REMARK  8 active torsions:
REMARK  status: ('A' for Active; 'I' for Inactive)
REMARK    1  A    between atoms: C_1  and  C_2
REMARK    2  A    between atoms: C_3  and  C_4
REMARK    3  A    between atoms: N_6  and  C_7
REMARK    4  A    between atoms: C_7  and  C_8
REMARK    5  A    between atoms: C_8  and  S_9
REMARK    6  A    between atoms: S_9  and  N_12
REMARK    7  A    between atoms: N_15  and  C_16
REMARK    8  A    between atoms: C_28  and  N_29
REMARK                            x       y       z     vdW  Elec       q    Type
REMARK                         _______ _______ _______ _____ _____    ______ ____
ROOT
ATOM      1  C   UNL     1       5.734   7.045  16.965  0.00  0.00    +0.000 C 
ENDROOT
BRANCH   1   2
ATOM      2  S   UNL     1       6.287   5.673  15.963  0.00  0.00    +0.000 S 
ATOM      3  O   UNL     1       5.344   5.489  14.886  0.00  0.00    +0.000 OA
ATOM      4  O   UNL     1       7.693   5.884  15.682  0.00  0.00    +0.000 OA
BRANCH   2   5
ATOM      5  N   UNL     1       6.155   4.347  17.010  0.00  0.00    +0.000 NA
ATOM      6  C   UNL     1       6.359   4.600  18.483  0.00  0.00    +0.000 C 
ATOM      7  C   UNL     1       5.096   5.160  19.183  0.00  0.00    +0.000 C 
ATOM      8  N   UNL     1       3.868   4.426  18.818  0.00  0.00    +0.000 N 
ATOM      9  C   UNL     1       3.684   4.128  17.387  0.00  0.00    +0.000 C 
ATOM     10  C   UNL     1       4.954   3.475  16.815  0.00  0.00    +0.000 C 
BRANCH   8  11
ATOM     11  C   UNL     1       3.067   3.794  19.757  0.00  0.00    +0.000 A 
ATOM     12  C   UNL     1       1.727   4.187  19.922  0.00  0.00    +0.000 A 
ATOM     13  C   UNL     1       0.879   3.576  20.854  0.00  0.00    +0.000 A 
ATOM     14  C   UNL     1       1.352   2.547  21.660  0.00  0.00    +0.000 A 
ATOM     15  C   UNL     1       2.681   2.134  21.524  0.00  0.00    +0.000 A 
ATOM     16  C   UNL     1       3.515   2.754  20.591  0.00  0.00    +0.000 A 
ATOM     17  F   UNL     1       4.766   2.281  20.470  0.00  0.00    +0.000 F 
ENDBRANCH   8  11
ENDBRANCH   2   5
ENDBRANCH   1   2
BRANCH   1  18
ATOM     18  C   UNL     1       4.290   7.432  16.680  0.00  0.00    +0.000 C 
BRANCH  18  21
ATOM     19  C   UNL     1       2.372   7.785  18.223  0.00  0.00    +0.000 C 
ATOM     20  O   UNL     1       1.728   6.889  17.684  0.00  0.00    +0.000 OA
ATOM     21  N   UNL     1       3.650   8.105  17.818  0.00  0.00    +0.000 N 
ATOM     22  H   UNL     1       4.222   8.696  18.407  0.00  0.00    +0.000 HD
BRANCH  19  25
ATOM     23  C   UNL     1       1.430  10.807  18.246  0.00  0.00    +0.000 C 
ATOM     24  C   UNL     1       1.349   9.868  19.419  0.00  0.00    +0.000 A 
ATOM     25  C   UNL     1       1.780   8.519  19.394  0.00  0.00    +0.000 A 
ATOM     26  C   UNL     1       1.581   7.708  20.537  0.00  0.00    +0.000 A 
ATOM     27  C   UNL     1       0.983   8.197  21.701  0.00  0.00    +0.000 A 
ATOM     28  C   UNL     1       0.561   9.515  21.749  0.00  0.00    +0.000 A 
ATOM     29  C   UNL     1       0.748  10.329  20.625  0.00  0.00    +0.000 A 
BRANCH  29  30
ATOM     30  N   UNL     1       0.263  11.702  20.749  0.00  0.00    +0.000 N 
ATOM     31  O   UNL     1       1.028  12.529  21.259  0.00  0.00    +0.000 OA
ATOM     32  O   UNL     1      -0.890  11.928  20.359  0.00  0.00    +0.000 OA
ENDBRANCH  29  30
ENDBRANCH  19  25
ENDBRANCH  18  21
ENDBRANCH   1  18
TORSDOF 7
ENDMDL
