MODEL 1
REMARK VINA RESULT:      -6.4      0.000      0.000
REMARK  Name = 
REMARK  6 active torsions:
REMARK  status: ('A' for Active; 'I' for Inactive)
REMARK    1  A    between atoms: C_1  and  C_2
REMARK    2  A    between atoms: C_2  and  C_3
REMARK    3  A    between atoms: C_3  and  C_4
REMARK    4  A    between atoms: C_10  and  N_11
REMARK    5  A    between atoms: N_14  and  C_15
REMARK    6  A    between atoms: C_15  and  C_16
REMARK                            x       y       z     vdW  Elec       q    Type
REMARK                         _______ _______ _______ _____ _____    ______ ____
ROOT
ATOM      1  C   UNL     1       5.365   3.421  12.160  0.00  0.00    +0.000 A 
ATOM      2  N   UNL     1       4.894   4.063  13.193  0.00  0.00    +0.000 NA
ATOM      3  C   UNL     1       5.995   4.201  14.005  0.00  0.00    +0.000 A 
ATOM      4  N   UNL     1       5.853   4.863  15.185  0.00  0.00    +0.000 N 
ATOM      5  C   UNL     1       4.508   4.905  15.739  0.00  0.00    +0.000 C 
ATOM      6  C   UNL     1       4.361   6.059  16.724  0.00  0.00    +0.000 C 
ATOM      7  C   UNL     1       5.441   6.153  17.817  0.00  0.00    +0.000 C 
ATOM      8  C   UNL     1       6.836   5.878  17.200  0.00  0.00    +0.000 C 
ATOM      9  C   UNL     1       6.903   4.723  16.196  0.00  0.00    +0.000 C 
ATOM     10  N   UNL     1       7.107   3.646  13.494  0.00  0.00    +0.000 NA
ATOM     11  O   UNL     1       6.692   3.132  12.267  0.00  0.00    +0.000 OA
ENDROOT
BRANCH   7  12
ATOM     12  N   UNL     1       5.224   5.499  19.129  0.00  0.00    +0.000 NA
ATOM     13  C   UNL     1       3.915   5.753  19.775  0.00  0.00    +0.000 C 
ATOM     14  C   UNL     1       2.775   4.712  19.532  0.00  0.00    +0.000 C 
ATOM     15  N   UNL     1       3.163   3.286  19.458  0.00  0.00    +0.000 NA
ATOM     16  C   UNL     1       4.437   3.161  18.748  0.00  0.00    +0.000 C 
ATOM     17  C   UNL     1       5.553   4.083  19.256  0.00  0.00    +0.000 C 
BRANCH  15  18
ATOM     18  C   UNL     1       3.145   2.592  20.742  0.00  0.00    +0.000 C 
ATOM     19  C   UNL     1       1.787   2.721  21.440  0.00  0.00    +0.000 C 
ENDBRANCH  15  18
ENDBRANCH   7  12
BRANCH   1  20
ATOM     20  C   UNL     1       4.683   3.021  10.909  0.00  0.00    +0.000 C 
BRANCH  20  22
ATOM     21  C   UNL     1       3.012   4.157   9.415  0.00  0.00    +0.000 C 
ATOM     22  C   UNL     1       3.278   3.611  10.809  0.00  0.00    +0.000 C 
ENDBRANCH  20  22
ENDBRANCH   1  20
TORSDOF 4
ENDMDL
MODEL 2
REMARK VINA RESULT:      -6.3      4.028      6.724
REMARK  Name = 
REMARK  6 active torsions:
REMARK  status: ('A' for Active; 'I' for Inactive)
REMARK    1  A    between atoms: C_1  and  C_2
REMARK    2  A    between atoms: C_2  and  C_3
REMARK    3  A    between atoms: C_3  and  C_4
REMARK    4  A    between atoms: C_10  and  N_11
REMARK    5  A    between atoms: N_14  and  C_15
REMARK    6  A    between atoms: C_15  and  C_16
REMARK                            x       y       z     vdW  Elec       q    Type
REMARK                         _______ _______ _______ _____ _____    ______ ____
ROOT
ATOM      1  C   UNL     1       8.915   9.838  18.702  0.00  0.00    +0.000 A 
ATOM      2  N   UNL     1       8.746   8.545  18.686  0.00  0.00    +0.000 NA
ATOM      3  C   UNL     1       7.732   8.374  17.773  0.00  0.00    +0.000 A 
ATOM      4  N   UNL     1       7.317   7.107  17.494  0.00  0.00    +0.000 N 
ATOM      5  C   UNL     1       7.574   6.108  18.520  0.00  0.00    +0.000 C 
ATOM      6  C   UNL     1       7.560   4.704  17.926  0.00  0.00    +0.000 C 
ATOM      7  C   UNL     1       6.334   4.349  17.065  0.00  0.00    +0.000 C 
ATOM      8  C   UNL     1       5.974   5.545  16.148  0.00  0.00    +0.000 C 
ATOM      9  C   UNL     1       6.038   6.929  16.804  0.00  0.00    +0.000 C 
ATOM     10  N   UNL     1       7.280   9.528  17.255  0.00  0.00    +0.000 NA
ATOM     11  O   UNL     1       8.067  10.501  17.867  0.00  0.00    +0.000 OA
ENDROOT
BRANCH   7  12
ATOM     12  N   UNL     1       5.160   3.692  17.686  0.00  0.00    +0.000 NA
ATOM     13  C   UNL     1       5.037   3.832  19.156  0.00  0.00    +0.000 C 
ATOM     14  C   UNL     1       4.152   5.000  19.700  0.00  0.00    +0.000 C 
ATOM     15  N   UNL     1       2.926   5.331  18.941  0.00  0.00    +0.000 NA
ATOM     16  C   UNL     1       3.191   5.216  17.507  0.00  0.00    +0.000 C 
ATOM     17  C   UNL     1       3.851   3.900  17.075  0.00  0.00    +0.000 C 
BRANCH  15  18
ATOM     18  C   UNL     1       1.739   4.600  19.372  0.00  0.00    +0.000 C 
ATOM     19  C   UNL     1       1.733   4.364  20.887  0.00  0.00    +0.000 C 
ENDBRANCH  15  18
ENDBRANCH   7  12
BRANCH   1  20
ATOM     20  C   UNL     1       9.904  10.648  19.447  0.00  0.00    +0.000 C 
BRANCH  20  22
ATOM     21  C   UNL     1      10.517  13.029  18.924  0.00  0.00    +0.000 C 
ATOM     22  C   UNL     1      10.699  11.572  18.527  0.00  0.00    +0.000 C 
ENDBRANCH  20  22
ENDBRANCH   1  20
TORSDOF 4
ENDMDL
MODEL 3
REMARK VINA RESULT:      -6.2      3.849      6.646
REMARK  Name = 
REMARK  6 active torsions:
REMARK  status: ('A' for Active; 'I' for Inactive)
REMARK    1  A    between atoms: C_1  and  C_2
REMARK    2  A    between atoms: C_2  and  C_3
REMARK    3  A    between atoms: C_3  and  C_4
REMARK    4  A    between atoms: C_10  and  N_11
REMARK    5  A    between atoms: N_14  and  C_15
REMARK    6  A    between atoms: C_15  and  C_16
REMARK                            x       y       z     vdW  Elec       q    Type
REMARK                         _______ _______ _______ _____ _____    ______ ____
ROOT
ATOM      1  C   UNL     1       8.790   9.416  18.783  0.00  0.00    +0.000 A 
ATOM      2  N   UNL     1       8.413   8.168  18.743  0.00  0.00    +0.000 NA
ATOM      3  C   UNL     1       7.561   8.134  17.664  0.00  0.00    +0.000 A 
ATOM      4  N   UNL     1       6.996   6.944  17.322  0.00  0.00    +0.000 N 
ATOM      5  C   UNL     1       6.900   5.951  18.381  0.00  0.00    +0.000 C 
ATOM      6  C   UNL     1       6.756   4.549  17.800  0.00  0.00    +0.000 C 
ATOM      7  C   UNL     1       5.658   4.370  16.736  0.00  0.00    +0.000 C 
ATOM      8  C   UNL     1       5.668   5.577  15.765  0.00  0.00    +0.000 C 
ATOM      9  C   UNL     1       5.846   6.952  16.415  0.00  0.00    +0.000 C 
ATOM     10  N   UNL     1       7.405   9.328  17.069  0.00  0.00    +0.000 NA
ATOM     11  O   UNL     1       8.224  10.180  17.807  0.00  0.00    +0.000 OA
ENDROOT
BRANCH   7  12
ATOM     12  N   UNL     1       4.300   3.935  17.141  0.00  0.00    +0.000 NA
ATOM     13  C   UNL     1       4.231   2.733  18.004  0.00  0.00    +0.000 C 
ATOM     14  C   UNL     1       4.172   2.955  19.550  0.00  0.00    +0.000 C 
ATOM     15  N   UNL     1       3.394   4.114  20.039  0.00  0.00    +0.000 NA
ATOM     16  C   UNL     1       3.590   5.252  19.139  0.00  0.00    +0.000 C 
ATOM     17  C   UNL     1       3.378   4.943  17.651  0.00  0.00    +0.000 C 
BRANCH  15  18
ATOM     18  C   UNL     1       1.989   3.823  20.305  0.00  0.00    +0.000 C 
ATOM     19  C   UNL     1       1.793   3.170  21.678  0.00  0.00    +0.000 C 
ENDBRANCH  15  18
ENDBRANCH   7  12
BRANCH   1  20
ATOM     20  C   UNL     1       9.755  10.079  19.689  0.00  0.00    +0.000 C 
BRANCH  20  22
ATOM     21  C   UNL     1      11.516  11.866  19.824  0.00  0.00    +0.000 C 
ATOM     22  C   UNL     1      10.239  11.416  19.133  0.00  0.00    +0.000 C 
ENDBRANCH  20  22
ENDBRANCH   1  20
TORSDOF 4
ENDMDL
MODEL 4
REMARK VINA RESULT:      -6.1      1.341      1.694
REMARK  Name = 
REMARK  6 active torsions:
REMARK  status: ('A' for Active; 'I' for Inactive)
REMARK    1  A    between atoms: C_1  and  C_2
REMARK    2  A    between atoms: C_2  and  C_3
REMARK    3  A    between atoms: C_3  and  C_4
REMARK    4  A    between atoms: C_10  and  N_11
REMARK    5  A    between atoms: N_14  and  C_15
REMARK    6  A    between atoms: C_15  and  C_16
REMARK                            x       y       z     vdW  Elec       q    Type
REMARK                         _______ _______ _______ _____ _____    ______ ____
ROOT
ATOM      1  C   UNL     1       6.675   4.052  13.074  0.00  0.00    +0.000 A 
ATOM      2  N   UNL     1       5.704   4.186  13.935  0.00  0.00    +0.000 NA
ATOM      3  C   UNL     1       6.205   5.101  14.831  0.00  0.00    +0.000 A 
ATOM      4  N   UNL     1       5.416   5.490  15.870  0.00  0.00    +0.000 N 
ATOM      5  C   UNL     1       4.363   4.564  16.258  0.00  0.00    +0.000 C 
ATOM      6  C   UNL     1       3.262   5.284  17.028  0.00  0.00    +0.000 C 
ATOM      7  C   UNL     1       3.726   6.162  18.205  0.00  0.00    +0.000 C 
ATOM      8  C   UNL     1       4.989   6.961  17.796  0.00  0.00    +0.000 C 
ATOM      9  C   UNL     1       6.040   6.182  17.000  0.00  0.00    +0.000 C 
ATOM     10  N   UNL     1       7.452   5.506  14.539  0.00  0.00    +0.000 NA
ATOM     11  O   UNL     1       7.764   4.814  13.370  0.00  0.00    +0.000 OA
ENDROOT
BRANCH   7  12
ATOM     12  N   UNL     1       3.791   5.592  19.571  0.00  0.00    +0.000 NA
ATOM     13  C   UNL     1       2.546   5.672  20.371  0.00  0.00    +0.000 C 
ATOM     14  C   UNL     1       1.590   4.437  20.346  0.00  0.00    +0.000 C 
ATOM     15  N   UNL     1       2.215   3.096  20.306  0.00  0.00    +0.000 NA
ATOM     16  C   UNL     1       3.395   3.131  19.441  0.00  0.00    +0.000 C 
ATOM     17  C   UNL     1       4.381   4.268  19.738  0.00  0.00    +0.000 C 
BRANCH  15  18
ATOM     18  C   UNL     1       2.477   2.519  21.621  0.00  0.00    +0.000 C 
ATOM     19  C   UNL     1       1.182   2.256  22.397  0.00  0.00    +0.000 C 
ENDBRANCH  15  18
ENDBRANCH   7  12
BRANCH   1  20
ATOM     20  C   UNL     1       6.728   3.246  11.834  0.00  0.00    +0.000 C 
BRANCH  20  22
ATOM     21  C   UNL     1       4.296   3.122  11.213  0.00  0.00    +0.000 C 
ATOM     22  C   UNL     1       5.509   2.338  11.687  0.00  0.00    +0.000 C 
ENDBRANCH  20  22
ENDBRANCH   1  20
TORSDOF 4
ENDMDL
MODEL 5
REMARK VINA RESULT:      -6.1      5.744      7.447
REMARK  Name = 
REMARK  6 active torsions:
REMARK  status: ('A' for Active; 'I' for Inactive)
REMARK    1  A    between atoms: C_1  and  C_2
REMARK    2  A    between atoms: C_2  and  C_3
REMARK    3  A    between atoms: C_3  and  C_4
REMARK    4  A    between atoms: C_10  and  N_11
REMARK    5  A    between atoms: N_14  and  C_15
REMARK    6  A    between atoms: C_15  and  C_16
REMARK                            x       y       z     vdW  Elec       q    Type
REMARK                         _______ _______ _______ _____ _____    ______ ____
ROOT
ATOM      1  C   UNL     1       4.318   4.671  17.541  0.00  0.00    +0.000 A 
ATOM      2  N   UNL     1       3.726   5.831  17.488  0.00  0.00    +0.000 NA
ATOM      3  C   UNL     1       3.308   6.029  18.783  0.00  0.00    +0.000 A 
ATOM      4  N   UNL     1       2.659   7.187  19.086  0.00  0.00    +0.000 N 
ATOM      5  C   UNL     1       2.000   7.861  17.978  0.00  0.00    +0.000 C 
ATOM      6  C   UNL     1       1.774   9.334  18.296  0.00  0.00    +0.000 C 
ATOM      7  C   UNL     1       1.095   9.636  19.645  0.00  0.00    +0.000 C 
ATOM      8  C   UNL     1       1.691   8.724  20.746  0.00  0.00    +0.000 C 
ATOM      9  C   UNL     1       1.919   7.262  20.347  0.00  0.00    +0.000 C 
ATOM     10  N   UNL     1       3.620   5.013  19.605  0.00  0.00    +0.000 NA
ATOM     11  O   UNL     1       4.295   4.112  18.784  0.00  0.00    +0.000 OA
ENDROOT
BRANCH   7  12
ATOM     12  N   UNL     1      -0.378   9.782  19.716  0.00  0.00    +0.000 NA
ATOM     13  C   UNL     1      -0.919  10.333  20.980  0.00  0.00    +0.000 C 
ATOM     14  C   UNL     1      -1.177  11.873  21.045  0.00  0.00    +0.000 C 
ATOM     15  N   UNL     1      -1.680  12.529  19.818  0.00  0.00    +0.000 NA
ATOM     16  C   UNL     1      -1.030  11.941  18.646  0.00  0.00    +0.000 C 
ATOM     17  C   UNL     1      -1.062  10.408  18.590  0.00  0.00    +0.000 C 
BRANCH  15  18
ATOM     18  C   UNL     1      -3.135  12.568  19.714  0.00  0.00    +0.000 C 
ATOM     19  C   UNL     1      -3.796  12.839  21.070  0.00  0.00    +0.000 C 
ENDBRANCH  15  18
ENDBRANCH   7  12
BRANCH   1  20
ATOM     20  C   UNL     1       5.030   3.928  16.477  0.00  0.00    +0.000 C 
BRANCH  20  22
ATOM     21  C   UNL     1       6.154   4.051  14.233  0.00  0.00    +0.000 C 
ATOM     22  C   UNL     1       5.473   4.842  15.337  0.00  0.00    +0.000 C 
ENDBRANCH  20  22
ENDBRANCH   1  20
TORSDOF 4
ENDMDL
MODEL 6
REMARK VINA RESULT:      -6.1      6.707      8.760
REMARK  Name = 
REMARK  6 active torsions:
REMARK  status: ('A' for Active; 'I' for Inactive)
REMARK    1  A    between atoms: C_1  and  C_2
REMARK    2  A    between atoms: C_2  and  C_3
REMARK    3  A    between atoms: C_3  and  C_4
REMARK    4  A    between atoms: C_10  and  N_11
REMARK    5  A    between atoms: N_14  and  C_15
REMARK    6  A    between atoms: C_15  and  C_16
REMARK                            x       y       z     vdW  Elec       q    Type
REMARK                         _______ _______ _______ _____ _____    ______ ____
ROOT
ATOM      1  C   UNL     1       3.717   5.854  18.602  0.00  0.00    +0.000 A 
ATOM      2  N   UNL     1       2.832   6.322  19.438  0.00  0.00    +0.000 NA
ATOM      3  C   UNL     1       2.483   7.529  18.880  0.00  0.00    +0.000 A 
ATOM      4  N   UNL     1       1.539   8.284  19.505  0.00  0.00    +0.000 N 
ATOM      5  C   UNL     1       1.363   8.041  20.929  0.00  0.00    +0.000 C 
ATOM      6  C   UNL     1      -0.006   8.522  21.396  0.00  0.00    +0.000 C 
ATOM      7  C   UNL     1      -0.385   9.962  21.003  0.00  0.00    +0.000 C 
ATOM      8  C   UNL     1       0.033  10.230  19.536  0.00  0.00    +0.000 C 
ATOM      9  C   UNL     1       1.408   9.693  19.127  0.00  0.00    +0.000 C 
ATOM     10  N   UNL     1       3.146   7.803  17.744  0.00  0.00    +0.000 NA
ATOM     11  O   UNL     1       3.962   6.690  17.554  0.00  0.00    +0.000 OA
ENDROOT
BRANCH   7  12
ATOM     12  N   UNL     1      -0.091  11.082  21.927  0.00  0.00    +0.000 NA
ATOM     13  C   UNL     1       0.083  12.414  21.303  0.00  0.00    +0.000 C 
ATOM     14  C   UNL     1      -1.169  13.347  21.228  0.00  0.00    +0.000 C 
ATOM     15  N   UNL     1      -2.105  13.318  22.373  0.00  0.00    +0.000 NA
ATOM     16  C   UNL     1      -2.239  11.944  22.862  0.00  0.00    +0.000 C 
ATOM     17  C   UNL     1      -0.913  11.220  23.125  0.00  0.00    +0.000 C 
BRANCH  15  18
ATOM     18  C   UNL     1      -1.795  14.280  23.426  0.00  0.00    +0.000 C 
ATOM     19  C   UNL     1      -2.909  14.355  24.476  0.00  0.00    +0.000 C 
ENDBRANCH  15  18
ENDBRANCH   7  12
BRANCH   1  20
ATOM     20  C   UNL     1       4.430   4.557  18.615  0.00  0.00    +0.000 C 
BRANCH  20  22
ATOM     21  C   UNL     1       2.647   3.392  17.281  0.00  0.00    +0.000 C 
ATOM     22  C   UNL     1       4.128   3.723  17.372  0.00  0.00    +0.000 C 
ENDBRANCH  20  22
ENDBRANCH   1  20
TORSDOF 4
ENDMDL
MODEL 7
REMARK VINA RESULT:      -5.9      6.379      9.420
REMARK  Name = 
REMARK  6 active torsions:
REMARK  status: ('A' for Active; 'I' for Inactive)
REMARK    1  A    between atoms: C_1  and  C_2
REMARK    2  A    between atoms: C_2  and  C_3
REMARK    3  A    between atoms: C_3  and  C_4
REMARK    4  A    between atoms: C_10  and  N_11
REMARK    5  A    between atoms: N_14  and  C_15
REMARK    6  A    between atoms: C_15  and  C_16
REMARK                            x       y       z     vdW  Elec       q    Type
REMARK                         _______ _______ _______ _____ _____    ______ ____
ROOT
ATOM      1  C   UNL     1      -1.430  12.248  20.613  0.00  0.00    +0.000 A 
ATOM      2  N   UNL     1      -0.721  11.186  20.881  0.00  0.00    +0.000 NA
ATOM      3  C   UNL     1      -0.156  10.873  19.668  0.00  0.00    +0.000 A 
ATOM      4  N   UNL     1       0.682   9.803  19.599  0.00  0.00    +0.000 N 
ATOM      5  C   UNL     1       0.511   8.788  20.627  0.00  0.00    +0.000 C 
ATOM      6  C   UNL     1       1.775   7.947  20.774  0.00  0.00    +0.000 C 
ATOM      7  C   UNL     1       2.351   7.362  19.472  0.00  0.00    +0.000 C 
ATOM      8  C   UNL     1       2.299   8.430  18.351  0.00  0.00    +0.000 C 
ATOM      9  C   UNL     1       1.012   9.258  18.280  0.00  0.00    +0.000 C 
ATOM     10  N   UNL     1      -0.519  11.707  18.679  0.00  0.00    +0.000 NA
ATOM     11  O   UNL     1      -1.362  12.624  19.306  0.00  0.00    +0.000 OA
ENDROOT
BRANCH   7  12
ATOM     12  N   UNL     1       1.951   6.006  19.030  0.00  0.00    +0.000 NA
ATOM     13  C   UNL     1       2.839   5.354  18.039  0.00  0.00    +0.000 C 
ATOM     14  C   UNL     1       3.951   4.400  18.582  0.00  0.00    +0.000 C 
ATOM     15  N   UNL     1       3.613   3.564  19.755  0.00  0.00    +0.000 NA
ATOM     16  C   UNL     1       2.786   4.335  20.685  0.00  0.00    +0.000 C 
ATOM     17  C   UNL     1       1.577   5.031  20.049  0.00  0.00    +0.000 C 
BRANCH  15  18
ATOM     18  C   UNL     1       3.046   2.262  19.420  0.00  0.00    +0.000 C 
ATOM     19  C   UNL     1       3.522   1.770  18.048  0.00  0.00    +0.000 C 
ENDBRANCH  15  18
ENDBRANCH   7  12
BRANCH   1  20
ATOM     20  C   UNL     1      -2.234  13.096  21.522  0.00  0.00    +0.000 C 
BRANCH  20  22
ATOM     21  C   UNL     1      -3.367  12.358  23.640  0.00  0.00    +0.000 C 
ATOM     22  C   UNL     1      -2.040  12.711  22.987  0.00  0.00    +0.000 C 
ENDBRANCH  20  22
ENDBRANCH   1  20
TORSDOF 4
ENDMDL
MODEL 8
REMARK VINA RESULT:      -5.9      6.032      8.332
REMARK  Name = 
REMARK  6 active torsions:
REMARK  status: ('A' for Active; 'I' for Inactive)
REMARK    1  A    between atoms: C_1  and  C_2
REMARK    2  A    between atoms: C_2  and  C_3
REMARK    3  A    between atoms: C_3  and  C_4
REMARK    4  A    between atoms: C_10  and  N_11
REMARK    5  A    between atoms: N_14  and  C_15
REMARK    6  A    between atoms: C_15  and  C_16
REMARK                            x       y       z     vdW  Elec       q    Type
REMARK                         _______ _______ _______ _____ _____    ______ ____
ROOT
ATOM      1  C   UNL     1       4.158   4.837  18.927  0.00  0.00    +0.000 A 
ATOM      2  N   UNL     1       3.307   5.650  19.489  0.00  0.00    +0.000 NA
ATOM      3  C   UNL     1       3.117   6.616  18.528  0.00  0.00    +0.000 A 
ATOM      4  N   UNL     1       2.246   7.628  18.790  0.00  0.00    +0.000 N 
ATOM      5  C   UNL     1       1.998   7.914  20.195  0.00  0.00    +0.000 C 
ATOM      6  C   UNL     1       0.680   8.658  20.374  0.00  0.00    +0.000 C 
ATOM      7  C   UNL     1       0.481   9.900  19.485  0.00  0.00    +0.000 C 
ATOM      8  C   UNL     1       0.972   9.599  18.048  0.00  0.00    +0.000 C 
ATOM      9  C   UNL     1       2.289   8.823  17.943  0.00  0.00    +0.000 C 
ATOM     10  N   UNL     1       3.841   6.411  17.415  0.00  0.00    +0.000 NA
ATOM     11  O   UNL     1       4.530   5.228  17.676  0.00  0.00    +0.000 OA
ENDROOT
BRANCH   7  12
ATOM     12  N   UNL     1       0.871  11.238  19.988  0.00  0.00    +0.000 NA
ATOM     13  C   UNL     1       1.152  12.265  18.957  0.00  0.00    +0.000 C 
ATOM     14  C   UNL     1      -0.018  13.215  18.547  0.00  0.00    +0.000 C 
ATOM     15  N   UNL     1      -0.947  13.647  19.614  0.00  0.00    +0.000 NA
ATOM     16  C   UNL     1      -1.192  12.533  20.531  0.00  0.00    +0.000 C 
ATOM     17  C   UNL     1       0.071  11.835  21.051  0.00  0.00    +0.000 C 
BRANCH  15  18
ATOM     18  C   UNL     1      -0.552  14.879  20.291  0.00  0.00    +0.000 C 
ATOM     19  C   UNL     1      -1.534  15.257  21.404  0.00  0.00    +0.000 C 
ENDBRANCH  15  18
ENDBRANCH   7  12
BRANCH   1  20
ATOM     20  C   UNL     1       4.718   3.564  19.433  0.00  0.00    +0.000 C 
BRANCH  20  22
ATOM     21  C   UNL     1       3.482   1.729  18.240  0.00  0.00    +0.000 C 
ATOM     22  C   UNL     1       3.652   2.477  19.553  0.00  0.00    +0.000 C 
ENDBRANCH  20  22
ENDBRANCH   1  20
TORSDOF 4
ENDMDL
MODEL 9
REMARK VINA RESULT:      -5.9      6.193      8.849
REMARK  Name = 
REMARK  6 active torsions:
REMARK  status: ('A' for Active; 'I' for Inactive)
REMARK    1  A    between atoms: C_1  and  C_2
REMARK    2  A    between atoms: C_2  and  C_3
REMARK    3  A    between atoms: C_3  and  C_4
REMARK    4  A    between atoms: C_10  and  N_11
REMARK    5  A    between atoms: N_14  and  C_15
REMARK    6  A    between atoms: C_15  and  C_16
REMARK                            x       y       z     vdW  Elec       q    Type
REMARK                         _______ _______ _______ _____ _____    ______ ____
ROOT
ATOM      1  C   UNL     1       3.497   4.696  19.317  0.00  0.00    +0.000 A 
ATOM      2  N   UNL     1       2.753   5.636  19.830  0.00  0.00    +0.000 NA
ATOM      3  C   UNL     1       2.712   6.582  18.833  0.00  0.00    +0.000 A 
ATOM      4  N   UNL     1       1.980   7.711  19.039  0.00  0.00    +0.000 N 
ATOM      5  C   UNL     1       1.747   8.080  20.427  0.00  0.00    +0.000 C 
ATOM      6  C   UNL     1       0.538   8.999  20.548  0.00  0.00    +0.000 C 
ATOM      7  C   UNL     1       0.525  10.223  19.614  0.00  0.00    +0.000 C 
ATOM      8  C   UNL     1       0.998   9.806  18.199  0.00  0.00    +0.000 C 
ATOM      9  C   UNL     1       2.200   8.857  18.153  0.00  0.00    +0.000 C 
ATOM     10  N   UNL     1       3.424   6.241  17.745  0.00  0.00    +0.000 NA
ATOM     11  O   UNL     1       3.942   4.987  18.062  0.00  0.00    +0.000 OA
ENDROOT
BRANCH   7  12
ATOM     12  N   UNL     1       1.082  11.514  20.079  0.00  0.00    +0.000 NA
ATOM     13  C   UNL     1       1.595  12.421  19.025  0.00  0.00    +0.000 C 
ATOM     14  C   UNL     1       0.622  13.511  18.473  0.00  0.00    +0.000 C 
ATOM     15  N   UNL     1      -0.304  14.145  19.438  0.00  0.00    +0.000 NA
ATOM     16  C   UNL     1      -0.787  13.140  20.386  0.00  0.00    +0.000 C 
ATOM     17  C   UNL     1       0.310  12.291  21.043  0.00  0.00    +0.000 C 
BRANCH  15  18
ATOM     18  C   UNL     1       0.229  15.341  20.083  0.00  0.00    +0.000 C 
ATOM     19  C   UNL     1      -0.438  16.617  19.557  0.00  0.00    +0.000 C 
ENDBRANCH  15  18
ENDBRANCH   7  12
BRANCH   1  20
ATOM     20  C   UNL     1       3.870   3.379  19.880  0.00  0.00    +0.000 C 
BRANCH  20  22
ATOM     21  C   UNL     1       2.142   2.704  21.575  0.00  0.00    +0.000 C 
ATOM     22  C   UNL     1       2.648   2.506  20.155  0.00  0.00    +0.000 C 
ENDBRANCH  20  22
ENDBRANCH   1  20
TORSDOF 4
ENDMDL
