MODEL 1
REMARK VINA RESULT:      -6.9      0.000      0.000
REMARK  Name = 
REMARK  2 active torsions:
REMARK  status: ('A' for Active; 'I' for Inactive)
REMARK    1  A    between atoms: N_11  and  C_12
REMARK    2  A    between atoms: C_12  and  N_13
REMARK                            x       y       z     vdW  Elec       q    Type
REMARK                         _______ _______ _______ _____ _____    ______ ____
ROOT
ATOM      1  O   UNL     1       6.589   5.274  19.748  0.00  0.00    +0.000 OA
ATOM      2  C   UNL     1       6.486   5.155  18.532  0.00  0.00    +0.000 A 
ATOM      3  O   UNL     1       7.564   5.357  17.657  0.00  0.00    +0.000 OA
ATOM      4  C   UNL     1       7.015   5.026  16.428  0.00  0.00    +0.000 A 
ATOM      5  C   UNL     1       7.709   4.980  15.236  0.00  0.00    +0.000 A 
ATOM      6  C   UNL     1       7.002   4.577  14.098  0.00  0.00    +0.000 A 
ATOM      7  C   UNL     1       5.638   4.240  14.190  0.00  0.00    +0.000 A 
ATOM      8 CL   UNL     1       4.800   3.734  12.772  0.00  0.00    +0.000 Cl
ATOM      9  C   UNL     1       4.953   4.291  15.409  0.00  0.00    +0.000 A 
ATOM     10  C   UNL     1       5.678   4.688  16.512  0.00  0.00    +0.000 A 
ATOM     11  N   UNL     1       5.347   4.789  17.848  0.00  0.00    +0.000 N 
ENDROOT
BRANCH  11  12
ATOM     12  C   UNL     1       4.138   4.318  18.465  0.00  0.00    +0.000 C 
BRANCH  12  13
ATOM     13  N   UNL     1       4.156   2.861  18.624  0.00  0.00    +0.000 NA
ATOM     14  C   UNL     1       2.998   2.202  17.966  0.00  0.00    +0.000 C 
ATOM     15  C   UNL     1       1.642   2.440  18.661  0.00  0.00    +0.000 C 
ATOM     16  O   UNL     1       1.689   2.072  20.046  0.00  0.00    +0.000 OA
ATOM     17  C   UNL     1       2.745   2.750  20.732  0.00  0.00    +0.000 C 
ATOM     18  C   UNL     1       4.105   2.489  20.059  0.00  0.00    +0.000 C 
ENDBRANCH  12  13
ENDBRANCH  11  12
TORSDOF 2
ENDMDL
MODEL 2
REMARK VINA RESULT:      -6.8      1.086      1.658
REMARK  Name = 
REMARK  2 active torsions:
REMARK  status: ('A' for Active; 'I' for Inactive)
REMARK    1  A    between atoms: N_11  and  C_12
REMARK    2  A    between atoms: C_12  and  N_13
REMARK                            x       y       z     vdW  Elec       q    Type
REMARK                         _______ _______ _______ _____ _____    ______ ____
ROOT
ATOM      1  O   UNL     1       6.234   4.909  19.805  0.00  0.00    +0.000 OA
ATOM      2  C   UNL     1       6.193   4.864  18.581  0.00  0.00    +0.000 A 
ATOM      3  O   UNL     1       7.277   5.239  17.772  0.00  0.00    +0.000 OA
ATOM      4  C   UNL     1       6.817   4.937  16.500  0.00  0.00    +0.000 A 
ATOM      5  C   UNL     1       7.559   5.046  15.341  0.00  0.00    +0.000 A 
ATOM      6  C   UNL     1       6.945   4.650  14.148  0.00  0.00    +0.000 A 
ATOM      7  C   UNL     1       5.623   4.165  14.154  0.00  0.00    +0.000 A 
ATOM      8 CL   UNL     1       4.903   3.672  12.669  0.00  0.00    +0.000 Cl
ATOM      9  C   UNL     1       4.889   4.060  15.340  0.00  0.00    +0.000 A 
ATOM     10  C   UNL     1       5.522   4.455  16.499  0.00  0.00    +0.000 A 
ATOM     11  N   UNL     1       5.129   4.428  17.822  0.00  0.00    +0.000 N 
ENDROOT
BRANCH  11  12
ATOM     12  C   UNL     1       3.954   3.791  18.350  0.00  0.00    +0.000 C 
BRANCH  12  13
ATOM     13  N   UNL     1       2.841   4.739  18.459  0.00  0.00    +0.000 NA
ATOM     14  C   UNL     1       2.642   5.227  19.850  0.00  0.00    +0.000 C 
ATOM     15  C   UNL     1       2.076   4.175  20.825  0.00  0.00    +0.000 C 
ATOM     16  O   UNL     1       0.859   3.601  20.332  0.00  0.00    +0.000 OA
ATOM     17  C   UNL     1       1.033   3.049  19.024  0.00  0.00    +0.000 C 
ATOM     18  C   UNL     1       1.568   4.104  18.039  0.00  0.00    +0.000 C 
ENDBRANCH  12  13
ENDBRANCH  11  12
TORSDOF 2
ENDMDL
MODEL 3
REMARK VINA RESULT:      -6.8      1.606      2.348
REMARK  Name = 
REMARK  2 active torsions:
REMARK  status: ('A' for Active; 'I' for Inactive)
REMARK    1  A    between atoms: N_11  and  C_12
REMARK    2  A    between atoms: C_12  and  N_13
REMARK                            x       y       z     vdW  Elec       q    Type
REMARK                         _______ _______ _______ _____ _____    ______ ____
ROOT
ATOM      1  O   UNL     1       7.138   5.762  17.604  0.00  0.00    +0.000 OA
ATOM      2  C   UNL     1       6.915   5.392  16.457  0.00  0.00    +0.000 A 
ATOM      3  O   UNL     1       7.711   5.778  15.367  0.00  0.00    +0.000 OA
ATOM      4  C   UNL     1       7.152   5.060  14.322  0.00  0.00    +0.000 A 
ATOM      5  C   UNL     1       7.640   5.029  13.031  0.00  0.00    +0.000 A 
ATOM      6  C   UNL     1       6.975   4.208  12.114  0.00  0.00    +0.000 A 
ATOM      7  C   UNL     1       5.854   3.455  12.516  0.00  0.00    +0.000 A 
ATOM      8 CL   UNL     1       5.067   2.443  11.365  0.00  0.00    +0.000 Cl
ATOM      9  C   UNL     1       5.377   3.500  13.830  0.00  0.00    +0.000 A 
ATOM     10  C   UNL     1       6.056   4.314  14.710  0.00  0.00    +0.000 A 
ATOM     11  N   UNL     1       5.903   4.544  16.062  0.00  0.00    +0.000 N 
ENDROOT
BRANCH  11  12
ATOM     12  C   UNL     1       5.048   3.818  16.959  0.00  0.00    +0.000 C 
BRANCH  12  13
ATOM     13  N   UNL     1       3.705   4.406  17.005  0.00  0.00    +0.000 NA
ATOM     14  C   UNL     1       3.648   5.630  17.847  0.00  0.00    +0.000 C 
ATOM     15  C   UNL     1       3.781   5.374  19.362  0.00  0.00    +0.000 C 
ATOM     16  O   UNL     1       2.815   4.421  19.822  0.00  0.00    +0.000 OA
ATOM     17  C   UNL     1       2.895   3.197  19.085  0.00  0.00    +0.000 C 
ATOM     18  C   UNL     1       2.731   3.444  17.574  0.00  0.00    +0.000 C 
ENDBRANCH  12  13
ENDBRANCH  11  12
TORSDOF 2
ENDMDL
MODEL 4
REMARK VINA RESULT:      -6.7      2.825      6.073
REMARK  Name = 
REMARK  2 active torsions:
REMARK  status: ('A' for Active; 'I' for Inactive)
REMARK    1  A    between atoms: N_11  and  C_12
REMARK    2  A    between atoms: C_12  and  N_13
REMARK                            x       y       z     vdW  Elec       q    Type
REMARK                         _______ _______ _______ _____ _____    ______ ____
ROOT
ATOM      1  O   UNL     1       4.002   1.264  17.801  0.00  0.00    +0.000 OA
ATOM      2  C   UNL     1       3.430   2.230  18.292  0.00  0.00    +0.000 A 
ATOM      3  O   UNL     1       2.274   2.108  19.078  0.00  0.00    +0.000 OA
ATOM      4  C   UNL     1       2.048   3.415  19.481  0.00  0.00    +0.000 A 
ATOM      5  C   UNL     1       1.059   3.816  20.355  0.00  0.00    +0.000 A 
ATOM      6  C   UNL     1       1.010   5.174  20.687  0.00  0.00    +0.000 A 
ATOM      7  C   UNL     1       1.942   6.076  20.138  0.00  0.00    +0.000 A 
ATOM      8 CL   UNL     1       1.863   7.739  20.580  0.00  0.00    +0.000 Cl
ATOM      9  C   UNL     1       2.939   5.648  19.255  0.00  0.00    +0.000 A 
ATOM     10  C   UNL     1       2.964   4.304  18.950  0.00  0.00    +0.000 A 
ATOM     11  N   UNL     1       3.826   3.546  18.184  0.00  0.00    +0.000 N 
ENDROOT
BRANCH  11  12
ATOM     12  C   UNL     1       5.073   3.981  17.621  0.00  0.00    +0.000 C 
BRANCH  12  13
ATOM     13  N   UNL     1       4.858   4.930  16.523  0.00  0.00    +0.000 NA
ATOM     14  C   UNL     1       5.441   4.458  15.240  0.00  0.00    +0.000 C 
ATOM     15  C   UNL     1       6.982   4.476  15.189  0.00  0.00    +0.000 C 
ATOM     16  O   UNL     1       7.505   5.770  15.516  0.00  0.00    +0.000 OA
ATOM     17  C   UNL     1       7.027   6.223  16.785  0.00  0.00    +0.000 C 
ATOM     18  C   UNL     1       5.488   6.237  16.829  0.00  0.00    +0.000 C 
ENDBRANCH  12  13
ENDBRANCH  11  12
TORSDOF 2
ENDMDL
MODEL 5
REMARK VINA RESULT:      -6.6      1.010      1.523
REMARK  Name = 
REMARK  2 active torsions:
REMARK  status: ('A' for Active; 'I' for Inactive)
REMARK    1  A    between atoms: N_11  and  C_12
REMARK    2  A    between atoms: C_12  and  N_13
REMARK                            x       y       z     vdW  Elec       q    Type
REMARK                         _______ _______ _______ _____ _____    ______ ____
ROOT
ATOM      1  O   UNL     1       6.672   5.232  19.890  0.00  0.00    +0.000 OA
ATOM      2  C   UNL     1       6.540   5.132  18.676  0.00  0.00    +0.000 A 
ATOM      3  O   UNL     1       7.426   5.727  17.765  0.00  0.00    +0.000 OA
ATOM      4  C   UNL     1       6.948   5.276  16.545  0.00  0.00    +0.000 A 
ATOM      5  C   UNL     1       7.539   5.517  15.322  0.00  0.00    +0.000 A 
ATOM      6  C   UNL     1       6.942   4.941  14.196  0.00  0.00    +0.000 A 
ATOM      7  C   UNL     1       5.783   4.152  14.331  0.00  0.00    +0.000 A 
ATOM      8 CL   UNL     1       5.081   3.445  12.926  0.00  0.00    +0.000 Cl
ATOM      9  C   UNL     1       5.200   3.918  15.581  0.00  0.00    +0.000 A 
ATOM     10  C   UNL     1       5.813   4.496  16.671  0.00  0.00    +0.000 A 
ATOM     11  N   UNL     1       5.553   4.424  18.024  0.00  0.00    +0.000 N 
ENDROOT
BRANCH  11  12
ATOM     12  C   UNL     1       4.618   3.544  18.667  0.00  0.00    +0.000 C 
BRANCH  12  13
ATOM     13  N   UNL     1       3.522   4.295  19.287  0.00  0.00    +0.000 NA
ATOM     14  C   UNL     1       2.601   3.424  20.063  0.00  0.00    +0.000 C 
ATOM     15  C   UNL     1       1.717   2.497  19.205  0.00  0.00    +0.000 C 
ATOM     16  O   UNL     1       0.977   3.235  18.224  0.00  0.00    +0.000 OA
ATOM     17  C   UNL     1       1.841   4.026  17.403  0.00  0.00    +0.000 C 
ATOM     18  C   UNL     1       2.703   4.976  18.254  0.00  0.00    +0.000 C 
ENDBRANCH  12  13
ENDBRANCH  11  12
TORSDOF 2
ENDMDL
MODEL 6
REMARK VINA RESULT:      -6.5      2.811      5.947
REMARK  Name = 
REMARK  2 active torsions:
REMARK  status: ('A' for Active; 'I' for Inactive)
REMARK    1  A    between atoms: N_11  and  C_12
REMARK    2  A    between atoms: C_12  and  N_13
REMARK                            x       y       z     vdW  Elec       q    Type
REMARK                         _______ _______ _______ _____ _____    ______ ____
ROOT
ATOM      1  O   UNL     1       3.801   1.493  17.734  0.00  0.00    +0.000 OA
ATOM      2  C   UNL     1       3.319   2.503  18.236  0.00  0.00    +0.000 A 
ATOM      3  O   UNL     1       2.627   2.486  19.456  0.00  0.00    +0.000 OA
ATOM      4  C   UNL     1       2.360   3.830  19.665  0.00  0.00    +0.000 A 
ATOM      5  C   UNL     1       1.761   4.354  20.792  0.00  0.00    +0.000 A 
ATOM      6  C   UNL     1       1.613   5.744  20.852  0.00  0.00    +0.000 A 
ATOM      7  C   UNL     1       2.064   6.554  19.791  0.00  0.00    +0.000 A 
ATOM      8 CL   UNL     1       1.880   8.263  19.904  0.00  0.00    +0.000 Cl
ATOM      9  C   UNL     1       2.670   6.002  18.658  0.00  0.00    +0.000 A 
ATOM     10  C   UNL     1       2.805   4.631  18.630  0.00  0.00    +0.000 A 
ATOM     11  N   UNL     1       3.397   3.779  17.721  0.00  0.00    +0.000 N 
ENDROOT
BRANCH  11  12
ATOM     12  C   UNL     1       4.206   4.159  16.597  0.00  0.00    +0.000 C 
BRANCH  12  13
ATOM     13  N   UNL     1       5.603   3.759  16.790  0.00  0.00    +0.000 NA
ATOM     14  C   UNL     1       6.354   4.708  17.652  0.00  0.00    +0.000 C 
ATOM     15  C   UNL     1       6.649   6.074  17.000  0.00  0.00    +0.000 C 
ATOM     16  O   UNL     1       7.321   5.923  15.743  0.00  0.00    +0.000 OA
ATOM     17  C   UNL     1       6.585   5.077  14.855  0.00  0.00    +0.000 C 
ATOM     18  C   UNL     1       6.316   3.701  15.490  0.00  0.00    +0.000 C 
ENDBRANCH  12  13
ENDBRANCH  11  12
TORSDOF 2
ENDMDL
MODEL 7
REMARK VINA RESULT:      -6.5      1.402      2.247
REMARK  Name = 
REMARK  2 active torsions:
REMARK  status: ('A' for Active; 'I' for Inactive)
REMARK    1  A    between atoms: N_11  and  C_12
REMARK    2  A    between atoms: C_12  and  N_13
REMARK                            x       y       z     vdW  Elec       q    Type
REMARK                         _______ _______ _______ _____ _____    ______ ____
ROOT
ATOM      1  O   UNL     1       7.009   5.861  17.594  0.00  0.00    +0.000 OA
ATOM      2  C   UNL     1       6.837   5.460  16.448  0.00  0.00    +0.000 A 
ATOM      3  O   UNL     1       7.637   5.873  15.372  0.00  0.00    +0.000 OA
ATOM      4  C   UNL     1       7.147   5.107  14.326  0.00  0.00    +0.000 A 
ATOM      5  C   UNL     1       7.668   5.083  13.048  0.00  0.00    +0.000 A 
ATOM      6  C   UNL     1       7.074   4.211  12.130  0.00  0.00    +0.000 A 
ATOM      7  C   UNL     1       5.987   3.402  12.517  0.00  0.00    +0.000 A 
ATOM      8 CL   UNL     1       5.288   2.329  11.366  0.00  0.00    +0.000 Cl
ATOM      9  C   UNL     1       5.475   3.441  13.818  0.00  0.00    +0.000 A 
ATOM     10  C   UNL     1       6.084   4.307  14.700  0.00  0.00    +0.000 A 
ATOM     11  N   UNL     1       5.884   4.550  16.044  0.00  0.00    +0.000 N 
ENDROOT
BRANCH  11  12
ATOM     12  C   UNL     1       5.048   3.791  16.933  0.00  0.00    +0.000 C 
BRANCH  12  13
ATOM     13  N   UNL     1       4.388   4.662  17.911  0.00  0.00    +0.000 NA
ATOM     14  C   UNL     1       4.486   4.137  19.298  0.00  0.00    +0.000 C 
ATOM     15  C   UNL     1       3.634   2.881  19.573  0.00  0.00    +0.000 C 
ATOM     16  O   UNL     1       2.258   3.093  19.229  0.00  0.00    +0.000 OA
ATOM     17  C   UNL     1       2.118   3.524  17.872  0.00  0.00    +0.000 C 
ATOM     18  C   UNL     1       2.943   4.795  17.602  0.00  0.00    +0.000 C 
ENDBRANCH  12  13
ENDBRANCH  11  12
TORSDOF 2
ENDMDL
MODEL 8
REMARK VINA RESULT:      -6.5      3.162      5.704
REMARK  Name = 
REMARK  2 active torsions:
REMARK  status: ('A' for Active; 'I' for Inactive)
REMARK    1  A    between atoms: N_11  and  C_12
REMARK    2  A    between atoms: C_12  and  N_13
REMARK                            x       y       z     vdW  Elec       q    Type
REMARK                         _______ _______ _______ _____ _____    ______ ____
ROOT
ATOM      1  O   UNL     1       3.795   2.838  19.838  0.00  0.00    +0.000 OA
ATOM      2  C   UNL     1       3.326   3.959  19.675  0.00  0.00    +0.000 A 
ATOM      3  O   UNL     1       2.576   4.617  20.661  0.00  0.00    +0.000 OA
ATOM      4  C   UNL     1       2.347   5.856  20.083  0.00  0.00    +0.000 A 
ATOM      5  C   UNL     1       1.715   6.915  20.701  0.00  0.00    +0.000 A 
ATOM      6  C   UNL     1       1.614   8.110  19.981  0.00  0.00    +0.000 A 
ATOM      7  C   UNL     1       2.143   8.203  18.679  0.00  0.00    +0.000 A 
ATOM      8 CL   UNL     1       2.015   9.694  17.826  0.00  0.00    +0.000 Cl
ATOM      9  C   UNL     1       2.783   7.118  18.072  0.00  0.00    +0.000 A 
ATOM     10  C   UNL     1       2.869   5.956  18.808  0.00  0.00    +0.000 A 
ATOM     11  N   UNL     1       3.474   4.743  18.551  0.00  0.00    +0.000 N 
ENDROOT
BRANCH  11  12
ATOM     12  C   UNL     1       4.349   4.440  17.453  0.00  0.00    +0.000 C 
BRANCH  12  13
ATOM     13  N   UNL     1       5.191   5.592  17.114  0.00  0.00    +0.000 NA
ATOM     14  C   UNL     1       5.671   5.552  15.707  0.00  0.00    +0.000 C 
ATOM     15  C   UNL     1       6.729   4.467  15.419  0.00  0.00    +0.000 C 
ATOM     16  O   UNL     1       7.845   4.570  16.312  0.00  0.00    +0.000 OA
ATOM     17  C   UNL     1       7.428   4.531  17.680  0.00  0.00    +0.000 C 
ATOM     18  C   UNL     1       6.395   5.633  17.979  0.00  0.00    +0.000 C 
ENDBRANCH  12  13
ENDBRANCH  11  12
TORSDOF 2
ENDMDL
MODEL 9
REMARK VINA RESULT:      -6.4      1.268      1.474
REMARK  Name = 
REMARK  2 active torsions:
REMARK  status: ('A' for Active; 'I' for Inactive)
REMARK    1  A    between atoms: N_11  and  C_12
REMARK    2  A    between atoms: C_12  and  N_13
REMARK                            x       y       z     vdW  Elec       q    Type
REMARK                         _______ _______ _______ _____ _____    ______ ____
ROOT
ATOM      1  O   UNL     1       6.595   6.218  17.987  0.00  0.00    +0.000 OA
ATOM      2  C   UNL     1       6.483   5.795  16.843  0.00  0.00    +0.000 A 
ATOM      3  O   UNL     1       7.516   5.885  15.896  0.00  0.00    +0.000 OA
ATOM      4  C   UNL     1       6.984   5.208  14.810  0.00  0.00    +0.000 A 
ATOM      5  C   UNL     1       7.656   4.942  13.635  0.00  0.00    +0.000 A 
ATOM      6  C   UNL     1       6.976   4.202  12.661  0.00  0.00    +0.000 A 
ATOM      7  C   UNL     1       5.659   3.761  12.894  0.00  0.00    +0.000 A 
ATOM      8 CL   UNL     1       4.856   2.839  11.680  0.00  0.00    +0.000 Cl
ATOM      9  C   UNL     1       4.996   4.040  14.093  0.00  0.00    +0.000 A 
ATOM     10  C   UNL     1       5.693   4.767  15.034  0.00  0.00    +0.000 A 
ATOM     11  N   UNL     1       5.379   5.158  16.319  0.00  0.00    +0.000 N 
ENDROOT
BRANCH  11  12
ATOM     12  C   UNL     1       4.240   4.733  17.086  0.00  0.00    +0.000 C 
BRANCH  12  13
ATOM     13  N   UNL     1       4.540   3.519  17.852  0.00  0.00    +0.000 NA
ATOM     14  C   UNL     1       3.545   2.439  17.622  0.00  0.00    +0.000 C 
ATOM     15  C   UNL     1       2.157   2.701  18.240  0.00  0.00    +0.000 C 
ATOM     16  O   UNL     1       2.250   2.986  19.641  0.00  0.00    +0.000 OA
ATOM     17  C   UNL     1       3.141   4.076  19.896  0.00  0.00    +0.000 C 
ATOM     18  C   UNL     1       4.537   3.805  19.308  0.00  0.00    +0.000 C 
ENDBRANCH  12  13
ENDBRANCH  11  12
TORSDOF 2
ENDMDL
