MODEL 1
REMARK VINA RESULT:      -7.1      0.000      0.000
REMARK  Name = 
REMARK  7 active torsions:
REMARK  status: ('A' for Active; 'I' for Inactive)
REMARK    1  A    between atoms: C_1  and  C_2
REMARK    2  A    between atoms: C_4  and  C_5
REMARK    3  A    between atoms: N_6  and  C_7
REMARK    4  A    between atoms: C_7  and  C_8
REMARK    5  A    between atoms: N_10  and  C_11
REMARK    6  A    between atoms: C_11  and  C_12
REMARK    7  A    between atoms: N_14  and  C_15
REMARK                            x       y       z     vdW  Elec       q    Type
REMARK                         _______ _______ _______ _____ _____    ______ ____
ROOT
ATOM      1  C   UNL     1       4.106   4.617  18.144  0.00  0.00    +0.000 C 
ATOM      2  C   UNL     1       4.181   5.618  19.319  0.00  0.00    +0.000 C 
ATOM      3  N   UNL     1       2.874   6.218  19.707  0.00  0.00    +0.000 NA
ATOM      4  C   UNL     1       1.911   5.102  19.901  0.00  0.00    +0.000 C 
ATOM      5  C   UNL     1       1.870   4.094  18.739  0.00  0.00    +0.000 C 
ATOM      6  O   UNL     1       3.177   3.567  18.482  0.00  0.00    +0.000 OA
ENDROOT
BRANCH   1   7
ATOM      7  C   UNL     1       5.486   3.998  17.908  0.00  0.00    +0.000 C 
BRANCH   7  13
ATOM      8  C   UNL     1       6.642   3.961  13.221  0.00  0.00    +0.000 C 
ATOM      9  C   UNL     1       6.532   4.396  14.627  0.00  0.00    +0.000 A 
ATOM     10  N   UNL     1       7.238   5.458  15.130  0.00  0.00    +0.000 NA
ATOM     11  C   UNL     1       6.917   5.464  16.408  0.00  0.00    +0.000 A 
ATOM     12  C   UNL     1       7.411   6.395  17.448  0.00  0.00    +0.000 C 
ATOM     13  N   UNL     1       6.051   4.431  16.648  0.00  0.00    +0.000 N 
ATOM     14  N   UNL     1       5.767   3.756  15.518  0.00  0.00    +0.000 NA
ENDBRANCH   7  13
ENDBRANCH   1   7
BRANCH   3  15
ATOM     15  C   UNL     1       2.354   7.148  18.676  0.00  0.00    +0.000 C 
BRANCH  15  16
ATOM     16  C   UNL     1       1.693   8.372  19.298  0.00  0.00    +0.000 C 
ATOM     17  O   UNL     1       1.579   8.454  20.520  0.00  0.00    +0.000 OA
ATOM     18  N   UNL     1       1.250   9.298  18.372  0.00  0.00    +0.000 N 
ATOM     19  H   UNL     1       1.220   8.968  17.410  0.00  0.00    +0.000 HD
BRANCH  18  20
ATOM     20  C   UNL     1       0.631  10.531  18.671  0.00  0.00    +0.000 A 
ATOM     21  C   UNL     1       1.352  11.711  18.847  0.00  0.00    +0.000 A 
ATOM     22  C   UNL     1       0.669  12.862  19.195  0.00  0.00    +0.000 A 
ATOM     23  N   UNL     1      -0.669  12.920  19.359  0.00  0.00    +0.000 NA
ATOM     24  C   UNL     1      -1.348  11.774  19.153  0.00  0.00    +0.000 A 
ATOM     25  C   UNL     1      -0.752  10.570  18.799  0.00  0.00    +0.000 A 
ENDBRANCH  18  20
ENDBRANCH  15  16
ENDBRANCH   3  15
TORSDOF 5
ENDMDL
MODEL 2
REMARK VINA RESULT:      -7.1      4.020      7.118
REMARK  Name = 
REMARK  7 active torsions:
REMARK  status: ('A' for Active; 'I' for Inactive)
REMARK    1  A    between atoms: C_1  and  C_2
REMARK    2  A    between atoms: C_4  and  C_5
REMARK    3  A    between atoms: N_6  and  C_7
REMARK    4  A    between atoms: C_7  and  C_8
REMARK    5  A    between atoms: N_10  and  C_11
REMARK    6  A    between atoms: C_11  and  C_12
REMARK    7  A    between atoms: N_14  and  C_15
REMARK                            x       y       z     vdW  Elec       q    Type
REMARK                         _______ _______ _______ _____ _____    ______ ____
ROOT
ATOM      1  C   UNL     1       4.969   5.376  17.626  0.00  0.00    +0.000 C 
ATOM      2  C   UNL     1       5.346   6.644  16.826  0.00  0.00    +0.000 C 
ATOM      3  N   UNL     1       6.809   6.851  16.645  0.00  0.00    +0.000 NA
ATOM      4  C   UNL     1       7.377   5.586  16.108  0.00  0.00    +0.000 C 
ATOM      5  C   UNL     1       6.967   4.327  16.892  0.00  0.00    +0.000 C 
ATOM      6  O   UNL     1       5.541   4.224  16.973  0.00  0.00    +0.000 OA
ENDROOT
BRANCH   1   7
ATOM      7  C   UNL     1       3.447   5.222  17.657  0.00  0.00    +0.000 C 
BRANCH   7  13
ATOM      8  C   UNL     1       2.079   2.790  21.596  0.00  0.00    +0.000 C 
ATOM      9  C   UNL     1       2.389   3.909  20.685  0.00  0.00    +0.000 A 
ATOM     10  N   UNL     1       2.057   5.208  20.971  0.00  0.00    +0.000 NA
ATOM     11  C   UNL     1       2.434   5.866  19.894  0.00  0.00    +0.000 A 
ATOM     12  C   UNL     1       2.295   7.319  19.641  0.00  0.00    +0.000 C 
ATOM     13  N   UNL     1       2.968   4.977  19.000  0.00  0.00    +0.000 N 
ATOM     14  N   UNL     1       2.978   3.726  19.499  0.00  0.00    +0.000 NA
ENDBRANCH   7  13
ENDBRANCH   1   7
BRANCH   3  15
ATOM     15  C   UNL     1       7.489   7.199  17.915  0.00  0.00    +0.000 C 
BRANCH  15  16
ATOM     16  C   UNL     1       7.904   8.666  17.954  0.00  0.00    +0.000 C 
ATOM     17  O   UNL     1       7.417   9.462  17.155  0.00  0.00    +0.000 OA
ATOM     18  N   UNL     1       8.850   8.952  18.921  0.00  0.00    +0.000 N 
ATOM     19  H   UNL     1       9.306   8.142  19.335  0.00  0.00    +0.000 HD
BRANCH  18  20
ATOM     20  C   UNL     1       9.386  10.229  19.195  0.00  0.00    +0.000 A 
ATOM     21  C   UNL     1       9.928  11.045  18.203  0.00  0.00    +0.000 A 
ATOM     22  C   UNL     1      10.483  12.257  18.571  0.00  0.00    +0.000 A 
ATOM     23  N   UNL     1      10.516  12.714  19.839  0.00  0.00    +0.000 NA
ATOM     24  C   UNL     1       9.958  11.922  20.777  0.00  0.00    +0.000 A 
ATOM     25  C   UNL     1       9.375  10.691  20.506  0.00  0.00    +0.000 A 
ENDBRANCH  18  20
ENDBRANCH  15  16
ENDBRANCH   3  15
TORSDOF 5
ENDMDL
MODEL 3
REMARK VINA RESULT:      -7.1      0.707      1.161
REMARK  Name = 
REMARK  7 active torsions:
REMARK  status: ('A' for Active; 'I' for Inactive)
REMARK    1  A    between atoms: C_1  and  C_2
REMARK    2  A    between atoms: C_4  and  C_5
REMARK    3  A    between atoms: N_6  and  C_7
REMARK    4  A    between atoms: C_7  and  C_8
REMARK    5  A    between atoms: N_10  and  C_11
REMARK    6  A    between atoms: C_11  and  C_12
REMARK    7  A    between atoms: N_14  and  C_15
REMARK                            x       y       z     vdW  Elec       q    Type
REMARK                         _______ _______ _______ _____ _____    ______ ____
ROOT
ATOM      1  C   UNL     1       4.092   4.772  18.198  0.00  0.00    +0.000 C 
ATOM      2  C   UNL     1       4.067   5.454  19.585  0.00  0.00    +0.000 C 
ATOM      3  N   UNL     1       2.749   6.033  19.967  0.00  0.00    +0.000 NA
ATOM      4  C   UNL     1       1.724   4.974  19.778  0.00  0.00    +0.000 C 
ATOM      5  C   UNL     1       1.781   4.278  18.406  0.00  0.00    +0.000 C 
ATOM      6  O   UNL     1       3.086   3.739  18.167  0.00  0.00    +0.000 OA
ENDROOT
BRANCH   1   7
ATOM      7  C   UNL     1       5.462   4.133  17.965  0.00  0.00    +0.000 C 
BRANCH   7  13
ATOM      8  C   UNL     1       6.519   3.848  13.263  0.00  0.00    +0.000 C 
ATOM      9  C   UNL     1       6.441   4.355  14.647  0.00  0.00    +0.000 A 
ATOM     10  N   UNL     1       7.161   5.438  15.079  0.00  0.00    +0.000 NA
ATOM     11  C   UNL     1       6.868   5.512  16.362  0.00  0.00    +0.000 A 
ATOM     12  C   UNL     1       7.388   6.492  17.342  0.00  0.00    +0.000 C 
ATOM     13  N   UNL     1       6.003   4.497  16.672  0.00  0.00    +0.000 N 
ATOM     14  N   UNL     1       5.692   3.767  15.585  0.00  0.00    +0.000 NA
ENDBRANCH   7  13
ENDBRANCH   1   7
BRANCH   3  15
ATOM     15  C   UNL     1       2.396   7.217  19.148  0.00  0.00    +0.000 C 
BRANCH  15  16
ATOM     16  C   UNL     1       1.597   8.242  19.945  0.00  0.00    +0.000 C 
ATOM     17  O   UNL     1       1.371   8.049  21.138  0.00  0.00    +0.000 OA
ATOM     18  N   UNL     1       1.174   9.324  19.196  0.00  0.00    +0.000 N 
ATOM     19  H   UNL     1       1.252   9.211  18.189  0.00  0.00    +0.000 HD
BRANCH  18  20
ATOM     20  C   UNL     1       0.446  10.429  19.687  0.00  0.00    +0.000 A 
ATOM     21  C   UNL     1      -0.927  10.573  19.490  0.00  0.00    +0.000 A 
ATOM     22  C   UNL     1      -1.549  11.717  19.955  0.00  0.00    +0.000 A 
ATOM     23  N   UNL     1      -0.909  12.704  20.614  0.00  0.00    +0.000 NA
ATOM     24  C   UNL     1       0.412  12.529  20.821  0.00  0.00    +0.000 A 
ATOM     25  C   UNL     1       1.123  11.416  20.394  0.00  0.00    +0.000 A 
ENDBRANCH  18  20
ENDBRANCH  15  16
ENDBRANCH   3  15
TORSDOF 5
ENDMDL
MODEL 4
REMARK VINA RESULT:      -6.9      1.835      1.961
REMARK  Name = 
REMARK  7 active torsions:
REMARK  status: ('A' for Active; 'I' for Inactive)
REMARK    1  A    between atoms: C_1  and  C_2
REMARK    2  A    between atoms: C_4  and  C_5
REMARK    3  A    between atoms: N_6  and  C_7
REMARK    4  A    between atoms: C_7  and  C_8
REMARK    5  A    between atoms: N_10  and  C_11
REMARK    6  A    between atoms: C_11  and  C_12
REMARK    7  A    between atoms: N_14  and  C_15
REMARK                            x       y       z     vdW  Elec       q    Type
REMARK                         _______ _______ _______ _____ _____    ______ ____
ROOT
ATOM      1  C   UNL     1       3.908   4.691  17.412  0.00  0.00    +0.000 C 
ATOM      2  C   UNL     1       4.036   5.544  18.695  0.00  0.00    +0.000 C 
ATOM      3  N   UNL     1       2.800   6.282  19.076  0.00  0.00    +0.000 NA
ATOM      4  C   UNL     1       1.682   5.303  19.090  0.00  0.00    +0.000 C 
ATOM      5  C   UNL     1       1.585   4.436  17.822  0.00  0.00    +0.000 C 
ATOM      6  O   UNL     1       2.822   3.757  17.579  0.00  0.00    +0.000 OA
ENDROOT
BRANCH   1   7
ATOM      7  C   UNL     1       5.203   3.908  17.185  0.00  0.00    +0.000 C 
BRANCH   7  13
ATOM      8  C   UNL     1       6.905   4.234  12.679  0.00  0.00    +0.000 C 
ATOM      9  C   UNL     1       6.652   4.542  14.100  0.00  0.00    +0.000 A 
ATOM     10  N   UNL     1       7.348   5.504  14.783  0.00  0.00    +0.000 NA
ATOM     11  C   UNL     1       6.878   5.412  16.011  0.00  0.00    +0.000 A 
ATOM     12  C   UNL     1       7.294   6.208  17.188  0.00  0.00    +0.000 C 
ATOM     13  N   UNL     1       5.936   4.419  16.046  0.00  0.00    +0.000 N 
ATOM     14  N   UNL     1       5.753   3.873  14.830  0.00  0.00    +0.000 NA
ENDBRANCH   7  13
ENDBRANCH   1   7
BRANCH   3  15
ATOM     15  C   UNL     1       2.486   7.379  18.129  0.00  0.00    +0.000 C 
BRANCH  15  16
ATOM     16  C   UNL     1       1.647   8.471  18.783  0.00  0.00    +0.000 C 
ATOM     17  O   UNL     1       1.052   9.288  18.085  0.00  0.00    +0.000 OA
ATOM     18  N   UNL     1       1.666   8.435  20.165  0.00  0.00    +0.000 N 
ATOM     19  H   UNL     1       2.385   7.843  20.574  0.00  0.00    +0.000 HD
BRANCH  18  20
ATOM     20  C   UNL     1       0.957   9.307  21.020  0.00  0.00    +0.000 A 
ATOM     21  C   UNL     1       0.718  10.643  20.702  0.00  0.00    +0.000 A 
ATOM     22  C   UNL     1       0.065  11.439  21.625  0.00  0.00    +0.000 A 
ATOM     23  N   UNL     1      -0.379  10.995  22.818  0.00  0.00    +0.000 NA
ATOM     24  C   UNL     1      -0.164   9.693  23.092  0.00  0.00    +0.000 A 
ATOM     25  C   UNL     1       0.480   8.815  22.229  0.00  0.00    +0.000 A 
ENDBRANCH  18  20
ENDBRANCH  15  16
ENDBRANCH   3  15
TORSDOF 5
ENDMDL
MODEL 5
REMARK VINA RESULT:      -6.9      1.093      1.246
REMARK  Name = 
REMARK  7 active torsions:
REMARK  status: ('A' for Active; 'I' for Inactive)
REMARK    1  A    between atoms: C_1  and  C_2
REMARK    2  A    between atoms: C_4  and  C_5
REMARK    3  A    between atoms: N_6  and  C_7
REMARK    4  A    between atoms: C_7  and  C_8
REMARK    5  A    between atoms: N_10  and  C_11
REMARK    6  A    between atoms: C_11  and  C_12
REMARK    7  A    between atoms: N_14  and  C_15
REMARK                            x       y       z     vdW  Elec       q    Type
REMARK                         _______ _______ _______ _____ _____    ______ ____
ROOT
ATOM      1  C   UNL     1       4.157   4.772  18.392  0.00  0.00    +0.000 C 
ATOM      2  C   UNL     1       4.202   6.136  19.119  0.00  0.00    +0.000 C 
ATOM      3  N   UNL     1       2.868   6.709  19.445  0.00  0.00    +0.000 NA
ATOM      4  C   UNL     1       2.088   5.657  20.148  0.00  0.00    +0.000 C 
ATOM      5  C   UNL     1       2.079   4.294  19.432  0.00  0.00    +0.000 C 
ATOM      6  O   UNL     1       3.415   3.836  19.200  0.00  0.00    +0.000 OA
ENDROOT
BRANCH   1   7
ATOM      7  C   UNL     1       5.580   4.243  18.203  0.00  0.00    +0.000 C 
BRANCH   7  13
ATOM      8  C   UNL     1       6.587   4.025  13.487  0.00  0.00    +0.000 C 
ATOM      9  C   UNL     1       6.534   4.507  14.881  0.00  0.00    +0.000 A 
ATOM     10  N   UNL     1       7.284   5.563  15.327  0.00  0.00    +0.000 NA
ATOM     11  C   UNL     1       7.003   5.619  16.613  0.00  0.00    +0.000 A 
ATOM     12  C   UNL     1       7.556   6.568  17.607  0.00  0.00    +0.000 C 
ATOM     13  N   UNL     1       6.117   4.619  16.913  0.00  0.00    +0.000 N 
ATOM     14  N   UNL     1       5.779   3.918  15.814  0.00  0.00    +0.000 NA
ENDBRANCH   7  13
ENDBRANCH   1   7
BRANCH   3  15
ATOM     15  C   UNL     1       2.132   7.145  18.234  0.00  0.00    +0.000 C 
BRANCH  15  16
ATOM     16  C   UNL     1       1.807   8.635  18.272  0.00  0.00    +0.000 C 
ATOM     17  O   UNL     1       2.241   9.380  17.396  0.00  0.00    +0.000 OA
ATOM     18  N   UNL     1       1.036   9.009  19.357  0.00  0.00    +0.000 N 
ATOM     19  H   UNL     1       0.961   8.314  20.096  0.00  0.00    +0.000 HD
BRANCH  18  20
ATOM     20  C   UNL     1       0.568  10.314  19.622  0.00  0.00    +0.000 A 
ATOM     21  C   UNL     1      -0.203  11.036  18.711  0.00  0.00    +0.000 A 
ATOM     22  C   UNL     1      -0.570  12.330  19.030  0.00  0.00    +0.000 A 
ATOM     23  N   UNL     1      -0.243  12.939  20.188  0.00  0.00    +0.000 NA
ATOM     24  C   UNL     1       0.475  12.212  21.067  0.00  0.00    +0.000 A 
ATOM     25  C   UNL     1       0.889  10.906  20.838  0.00  0.00    +0.000 A 
ENDBRANCH  18  20
ENDBRANCH  15  16
ENDBRANCH   3  15
TORSDOF 5
ENDMDL
MODEL 6
REMARK VINA RESULT:      -6.9      4.074      7.140
REMARK  Name = 
REMARK  7 active torsions:
REMARK  status: ('A' for Active; 'I' for Inactive)
REMARK    1  A    between atoms: C_1  and  C_2
REMARK    2  A    between atoms: C_4  and  C_5
REMARK    3  A    between atoms: N_6  and  C_7
REMARK    4  A    between atoms: C_7  and  C_8
REMARK    5  A    between atoms: N_10  and  C_11
REMARK    6  A    between atoms: C_11  and  C_12
REMARK    7  A    between atoms: N_14  and  C_15
REMARK                            x       y       z     vdW  Elec       q    Type
REMARK                         _______ _______ _______ _____ _____    ______ ____
ROOT
ATOM      1  C   UNL     1       4.807   5.972  18.238  0.00  0.00    +0.000 C 
ATOM      2  C   UNL     1       5.373   6.974  17.206  0.00  0.00    +0.000 C 
ATOM      3  N   UNL     1       6.813   6.783  16.882  0.00  0.00    +0.000 NA
ATOM      4  C   UNL     1       7.005   5.352  16.528  0.00  0.00    +0.000 C 
ATOM      5  C   UNL     1       6.408   4.364  17.545  0.00  0.00    +0.000 C 
ATOM      6  O   UNL     1       5.016   4.631  17.750  0.00  0.00    +0.000 OA
ENDROOT
BRANCH   1   7
ATOM      7  C   UNL     1       3.305   6.206  18.410  0.00  0.00    +0.000 C 
BRANCH   7  13
ATOM      8  C   UNL     1       2.324   2.996  21.880  0.00  0.00    +0.000 C 
ATOM      9  C   UNL     1       2.263   3.730  20.601  0.00  0.00    +0.000 A 
ATOM     10  N   UNL     1       1.526   3.292  19.532  0.00  0.00    +0.000 NA
ATOM     11  C   UNL     1       1.796   4.172  18.590  0.00  0.00    +0.000 A 
ATOM     12  C   UNL     1       1.284   4.177  17.200  0.00  0.00    +0.000 C 
ATOM     13  N   UNL     1       2.671   5.097  19.092  0.00  0.00    +0.000 N 
ATOM     14  N   UNL     1       2.957   4.852  20.384  0.00  0.00    +0.000 NA
ENDBRANCH   7  13
ENDBRANCH   1   7
BRANCH   3  15
ATOM     15  C   UNL     1       7.697   7.135  18.019  0.00  0.00    +0.000 C 
BRANCH  15  16
ATOM     16  C   UNL     1       8.046   8.619  18.029  0.00  0.00    +0.000 C 
ATOM     17  O   UNL     1       7.544   9.373  17.196  0.00  0.00    +0.000 OA
ATOM     18  N   UNL     1       8.953   8.973  19.011  0.00  0.00    +0.000 N 
ATOM     19  H   UNL     1       9.433   8.195  19.457  0.00  0.00    +0.000 HD
BRANCH  18  20
ATOM     20  C   UNL     1       9.424  10.279  19.263  0.00  0.00    +0.000 A 
ATOM     21  C   UNL     1      10.024  11.065  18.280  0.00  0.00    +0.000 A 
ATOM     22  C   UNL     1      10.509  12.312  18.631  0.00  0.00    +0.000 A 
ATOM     23  N   UNL     1      10.420  12.830  19.873  0.00  0.00    +0.000 NA
ATOM     24  C   UNL     1       9.808  12.065  20.799  0.00  0.00    +0.000 A 
ATOM     25  C   UNL     1       9.288  10.803  20.543  0.00  0.00    +0.000 A 
ENDBRANCH  18  20
ENDBRANCH  15  16
ENDBRANCH   3  15
TORSDOF 5
ENDMDL
MODEL 7
REMARK VINA RESULT:      -6.8      0.983      2.163
REMARK  Name = 
REMARK  7 active torsions:
REMARK  status: ('A' for Active; 'I' for Inactive)
REMARK    1  A    between atoms: C_1  and  C_2
REMARK    2  A    between atoms: C_4  and  C_5
REMARK    3  A    between atoms: N_6  and  C_7
REMARK    4  A    between atoms: C_7  and  C_8
REMARK    5  A    between atoms: N_10  and  C_11
REMARK    6  A    between atoms: C_11  and  C_12
REMARK    7  A    between atoms: N_14  and  C_15
REMARK                            x       y       z     vdW  Elec       q    Type
REMARK                         _______ _______ _______ _____ _____    ______ ____
ROOT
ATOM      1  C   UNL     1       4.093   4.573  18.401  0.00  0.00    +0.000 C 
ATOM      2  C   UNL     1       3.948   5.565  19.578  0.00  0.00    +0.000 C 
ATOM      3  N   UNL     1       2.553   6.015  19.841  0.00  0.00    +0.000 NA
ATOM      4  C   UNL     1       1.704   4.800  19.945  0.00  0.00    +0.000 C 
ATOM      5  C   UNL     1       1.882   3.804  18.785  0.00  0.00    +0.000 C 
ATOM      6  O   UNL     1       3.256   3.425  18.651  0.00  0.00    +0.000 OA
ENDROOT
BRANCH   1   7
ATOM      7  C   UNL     1       5.547   4.110  18.295  0.00  0.00    +0.000 C 
BRANCH   7  13
ATOM      8  C   UNL     1       8.023   8.212  17.698  0.00  0.00    +0.000 C 
ATOM      9  C   UNL     1       7.440   6.883  17.429  0.00  0.00    +0.000 A 
ATOM     10  N   UNL     1       7.467   6.300  16.189  0.00  0.00    +0.000 NA
ATOM     11  C   UNL     1       6.792   5.181  16.359  0.00  0.00    +0.000 A 
ATOM     12  C   UNL     1       6.487   4.159  15.332  0.00  0.00    +0.000 C 
ATOM     13  N   UNL     1       6.377   5.113  17.662  0.00  0.00    +0.000 N 
ATOM     14  N   UNL     1       6.807   6.174  18.370  0.00  0.00    +0.000 NA
ENDBRANCH   7  13
ENDBRANCH   1   7
BRANCH   3  15
ATOM     15  C   UNL     1       2.033   6.893  18.766  0.00  0.00    +0.000 C 
BRANCH  15  16
ATOM     16  C   UNL     1       1.680   8.282  19.288  0.00  0.00    +0.000 C 
ATOM     17  O   UNL     1       1.614   8.483  20.499  0.00  0.00    +0.000 OA
ATOM     18  N   UNL     1       1.439   9.207  18.290  0.00  0.00    +0.000 N 
ATOM     19  H   UNL     1       1.314   8.818  17.358  0.00  0.00    +0.000 HD
BRANCH  18  20
ATOM     20  C   UNL     1       1.123  10.568  18.489  0.00  0.00    +0.000 A 
ATOM     21  C   UNL     1      -0.160  11.002  18.822  0.00  0.00    +0.000 A 
ATOM     22  C   UNL     1      -0.393  12.359  18.942  0.00  0.00    +0.000 A 
ATOM     23  N   UNL     1       0.558  13.301  18.776  0.00  0.00    +0.000 NA
ATOM     24  C   UNL     1       1.798  12.858  18.486  0.00  0.00    +0.000 A 
ATOM     25  C   UNL     1       2.129  11.516  18.347  0.00  0.00    +0.000 A 
ENDBRANCH  18  20
ENDBRANCH  15  16
ENDBRANCH   3  15
TORSDOF 5
ENDMDL
MODEL 8
REMARK VINA RESULT:      -6.7      1.218      2.079
REMARK  Name = 
REMARK  7 active torsions:
REMARK  status: ('A' for Active; 'I' for Inactive)
REMARK    1  A    between atoms: C_1  and  C_2
REMARK    2  A    between atoms: C_4  and  C_5
REMARK    3  A    between atoms: N_6  and  C_7
REMARK    4  A    between atoms: C_7  and  C_8
REMARK    5  A    between atoms: N_10  and  C_11
REMARK    6  A    between atoms: C_11  and  C_12
REMARK    7  A    between atoms: N_14  and  C_15
REMARK                            x       y       z     vdW  Elec       q    Type
REMARK                         _______ _______ _______ _____ _____    ______ ____
ROOT
ATOM      1  C   UNL     1       3.917   4.758  18.235  0.00  0.00    +0.000 C 
ATOM      2  C   UNL     1       3.881   5.388  19.646  0.00  0.00    +0.000 C 
ATOM      3  N   UNL     1       2.558   5.942  20.045  0.00  0.00    +0.000 NA
ATOM      4  C   UNL     1       1.542   4.882  19.812  0.00  0.00    +0.000 C 
ATOM      5  C   UNL     1       1.609   4.239  18.415  0.00  0.00    +0.000 C 
ATOM      6  O   UNL     1       2.919   3.720  18.161  0.00  0.00    +0.000 OA
ENDROOT
BRANCH   1   7
ATOM      7  C   UNL     1       5.294   4.140  17.984  0.00  0.00    +0.000 C 
BRANCH   7  13
ATOM      8  C   UNL     1       7.980   8.138  17.663  0.00  0.00    +0.000 C 
ATOM      9  C   UNL     1       7.371   6.836  17.327  0.00  0.00    +0.000 A 
ATOM     10  N   UNL     1       7.491   6.261  16.089  0.00  0.00    +0.000 NA
ATOM     11  C   UNL     1       6.757   5.171  16.183  0.00  0.00    +0.000 A 
ATOM     12  C   UNL     1       6.507   4.169  15.122  0.00  0.00    +0.000 C 
ATOM     13  N   UNL     1       6.219   5.112  17.441  0.00  0.00    +0.000 N 
ATOM     14  N   UNL     1       6.624   6.149  18.197  0.00  0.00    +0.000 NA
ENDBRANCH   7  13
ENDBRANCH   1   7
BRANCH   3  15
ATOM     15  C   UNL     1       2.198   7.153  19.269  0.00  0.00    +0.000 C 
BRANCH  15  16
ATOM     16  C   UNL     1       1.426   8.160  20.115  0.00  0.00    +0.000 C 
ATOM     17  O   UNL     1       1.186   7.914  21.295  0.00  0.00    +0.000 OA
ATOM     18  N   UNL     1       1.040   9.291  19.420  0.00  0.00    +0.000 N 
ATOM     19  H   UNL     1       1.121   9.227  18.408  0.00  0.00    +0.000 HD
BRANCH  18  20
ATOM     20  C   UNL     1       0.343  10.392  19.963  0.00  0.00    +0.000 A 
ATOM     21  C   UNL     1       0.785  11.079  21.093  0.00  0.00    +0.000 A 
ATOM     22  C   UNL     1       0.008  12.109  21.590  0.00  0.00    +0.000 A 
ATOM     23  N   UNL     1      -1.153  12.510  21.033  0.00  0.00    +0.000 NA
ATOM     24  C   UNL     1      -1.545  11.852  19.923  0.00  0.00    +0.000 A 
ATOM     25  C   UNL     1      -0.833  10.807  19.349  0.00  0.00    +0.000 A 
ENDBRANCH  18  20
ENDBRANCH  15  16
ENDBRANCH   3  15
TORSDOF 5
ENDMDL
MODEL 9
REMARK VINA RESULT:      -6.7      1.981      2.631
REMARK  Name = 
REMARK  7 active torsions:
REMARK  status: ('A' for Active; 'I' for Inactive)
REMARK    1  A    between atoms: C_1  and  C_2
REMARK    2  A    between atoms: C_4  and  C_5
REMARK    3  A    between atoms: N_6  and  C_7
REMARK    4  A    between atoms: C_7  and  C_8
REMARK    5  A    between atoms: N_10  and  C_11
REMARK    6  A    between atoms: C_11  and  C_12
REMARK    7  A    between atoms: N_14  and  C_15
REMARK                            x       y       z     vdW  Elec       q    Type
REMARK                         _______ _______ _______ _____ _____    ______ ____
ROOT
ATOM      1  C   UNL     1       3.969   4.831  18.317  0.00  0.00    +0.000 C 
ATOM      2  C   UNL     1       3.942   5.877  19.454  0.00  0.00    +0.000 C 
ATOM      3  N   UNL     1       2.598   6.453  19.734  0.00  0.00    +0.000 NA
ATOM      4  C   UNL     1       1.654   5.319  19.911  0.00  0.00    +0.000 C 
ATOM      5  C   UNL     1       1.714   4.266  18.790  0.00  0.00    +0.000 C 
ATOM      6  O   UNL     1       3.048   3.768  18.637  0.00  0.00    +0.000 OA
ENDROOT
BRANCH   1   7
ATOM      7  C   UNL     1       5.377   4.243  18.194  0.00  0.00    +0.000 C 
BRANCH   7  13
ATOM      8  C   UNL     1       8.040   8.241  17.711  0.00  0.00    +0.000 C 
ATOM      9  C   UNL     1       7.440   6.922  17.429  0.00  0.00    +0.000 A 
ATOM     10  N   UNL     1       7.569   6.295  16.218  0.00  0.00    +0.000 NA
ATOM     11  C   UNL     1       6.842   5.205  16.356  0.00  0.00    +0.000 A 
ATOM     12  C   UNL     1       6.602   4.156  15.338  0.00  0.00    +0.000 C 
ATOM     13  N   UNL     1       6.299   5.196  17.613  0.00  0.00    +0.000 N 
ATOM     14  N   UNL     1       6.695   6.268  18.326  0.00  0.00    +0.000 NA
ENDBRANCH   7  13
ENDBRANCH   1   7
BRANCH   3  15
ATOM     15  C   UNL     1       2.121   7.328  18.637  0.00  0.00    +0.000 C 
BRANCH  15  16
ATOM     16  C   UNL     1       1.349   8.532  19.165  0.00  0.00    +0.000 C 
ATOM     17  O   UNL     1       0.838   9.327  18.378  0.00  0.00    +0.000 OA
ATOM     18  N   UNL     1       1.323   8.616  20.545  0.00  0.00    +0.000 N 
ATOM     19  H   UNL     1       1.982   8.011  21.028  0.00  0.00    +0.000 HD
BRANCH  18  20
ATOM     20  C   UNL     1       0.658   9.608  21.296  0.00  0.00    +0.000 A 
ATOM     21  C   UNL     1       0.767  10.969  21.010  0.00  0.00    +0.000 A 
ATOM     22  C   UNL     1       0.126  11.875  21.835  0.00  0.00    +0.000 A 
ATOM     23  N   UNL     1      -0.625  11.521  22.898  0.00  0.00    +0.000 NA
ATOM     24  C   UNL     1      -0.742  10.200  23.137  0.00  0.00    +0.000 A 
ATOM     25  C   UNL     1      -0.139   9.215  22.366  0.00  0.00    +0.000 A 
ENDBRANCH  18  20
ENDBRANCH  15  16
ENDBRANCH   3  15
TORSDOF 5
ENDMDL
