MODEL 1
REMARK VINA RESULT:      -5.5      0.000      0.000
REMARK  Name = 
REMARK  28 active torsions:
REMARK  status: ('A' for Active; 'I' for Inactive)
REMARK    1  A    between atoms: C_1  and  C_2
REMARK    2  A    between atoms: C_2  and  C_3
REMARK    3  A    between atoms: C_3  and  C_4
REMARK    4  A    between atoms: C_4  and  C_5
REMARK    5  A    between atoms: C_5  and  C_6
REMARK    6  A    between atoms: C_7  and  C_8
REMARK    7  A    between atoms: C_8  and  C_9
REMARK    8  A    between atoms: C_10  and  C_11
REMARK    9  A    between atoms: C_11  and  C_12
REMARK   10  A    between atoms: C_12  and  C_13
REMARK   11  A    between atoms: C_13  and  C_14
REMARK   12  A    between atoms: C_14  and  C_15
REMARK   13  A    between atoms: C_15  and  C_16
REMARK   14  A    between atoms: C_16  and  C_17
REMARK   15  A    between atoms: C_17  and  C_18
REMARK   16  A    between atoms: C_18  and  C_19
REMARK   17  A    between atoms: C_20  and  O_21
REMARK   18  A    between atoms: O_21  and  C_22
REMARK   19  A    between atoms: C_22  and  C_23
REMARK   20  A    between atoms: C_23  and  O_24
REMARK   21  A    between atoms: C_23  and  C_25
REMARK   22  A    between atoms: C_25  and  O_26
REMARK   23  A    between atoms: O_26  and  P_27
REMARK   24  A    between atoms: P_27  and  O_29
REMARK   25  A    between atoms: P_27  and  O_30
REMARK   26  A    between atoms: O_30  and  C_31
REMARK   27  A    between atoms: C_31  and  C_32
REMARK   28  A    between atoms: C_32  and  N_33
REMARK                            x       y       z     vdW  Elec       q    Type
REMARK                         _______ _______ _______ _____ _____    ______ ____
ROOT
ATOM      1  C   UNL     1       1.421  10.928  19.332  0.00  0.00    +0.000 C 
ATOM      2  C   UNL     1       1.331  12.252  19.398  0.00  0.00    +0.000 C 
ENDROOT
BRANCH   1   3
ATOM      3  C   UNL     1       1.914  10.246  18.083  0.00  0.00    +0.000 C 
BRANCH   3   4
ATOM      4  C   UNL     1       1.813   8.735  18.155  0.00  0.00    +0.000 C 
BRANCH   4   5
ATOM      5  C   UNL     1       1.911   8.248  19.599  0.00  0.00    +0.000 C 
BRANCH   5   6
ATOM      6  C   UNL     1       2.450   6.837  19.643  0.00  0.00    +0.000 C 
BRANCH   6   7
ATOM      7  C   UNL     1       1.547   5.949  20.493  0.00  0.00    +0.000 C 
BRANCH   7   8
ATOM      8  C   UNL     1       2.313   4.765  21.060  0.00  0.00    +0.000 C 
BRANCH   8   9
ATOM      9  C   UNL     1       1.478   3.483  21.012  0.00  0.00    +0.000 C 
BRANCH   9  10
ATOM     10  C   UNL     1       0.705   3.410  19.714  0.00  0.00    +0.000 C 
BRANCH  10  12
ATOM     11  C   UNL     1       2.070   2.339  17.934  0.00  0.00    +0.000 C 
ATOM     12  C   UNL     1       1.121   2.238  18.875  0.00  0.00    +0.000 C 
BRANCH  11  13
ATOM     13  C   UNL     1       2.777   3.629  17.654  0.00  0.00    +0.000 C 
BRANCH  13  15
ATOM     14  C   UNL     1       5.018   4.424  16.898  0.00  0.00    +0.000 C 
ATOM     15  C   UNL     1       4.148   3.427  17.093  0.00  0.00    +0.000 C 
BRANCH  14  16
ATOM     16  C   UNL     1       4.699   5.859  17.198  0.00  0.00    +0.000 C 
BRANCH  16  17
ATOM     17  C   UNL     1       5.731   6.834  16.644  0.00  0.00    +0.000 C 
BRANCH  17  18
ATOM     18  C   UNL     1       7.138   6.338  16.973  0.00  0.00    +0.000 C 
BRANCH  18  20
ATOM     19  C   UNL     1       8.114   8.486  17.832  0.00  0.00    +0.000 C 
ATOM     20  C   UNL     1       7.713   7.069  18.179  0.00  0.00    +0.000 C 
ENDBRANCH  18  20
ENDBRANCH  17  18
ENDBRANCH  16  17
ENDBRANCH  14  16
ENDBRANCH  13  15
ENDBRANCH  11  13
ENDBRANCH  10  12
ENDBRANCH   9  10
ENDBRANCH   8   9
ENDBRANCH   7   8
ENDBRANCH   6   7
ENDBRANCH   5   6
ENDBRANCH   4   5
ENDBRANCH   3   4
ENDBRANCH   1   3
BRANCH   2  21
ATOM     21  O   UNL     1       1.654  13.029  18.333  0.00  0.00    +0.000 OA
BRANCH  21  22
ATOM     22  C   UNL     1       2.179  14.312  18.694  0.00  0.00    +0.000 C 
BRANCH  22  23
ATOM     23  C   UNL     1       3.589  14.395  18.122  0.00  0.00    +0.000 C 
BRANCH  23  24
ATOM     24  O   UNL     1       3.607  15.238  16.967  0.00  0.00    +0.000 OA
ATOM     25  H   UNL     1       4.412  15.777  17.096  0.00  0.00    +0.000 HD
ENDBRANCH  23  24
BRANCH  23  26
ATOM     26  C   UNL     1       4.551  14.991  19.141  0.00  0.00    +0.000 C 
BRANCH  26  27
ATOM     27  O   UNL     1       5.519  15.782  18.476  0.00  0.00    +0.000 OA
BRANCH  27  28
ATOM     28  P   UNL     1       6.950  14.848  18.207  0.00  0.00    +0.000 P 
ATOM     29  O   UNL     1       7.746  16.134  17.965  0.00  0.00    +0.000 OA
BRANCH  28  30
ATOM     30  O   UNL     1       6.975  14.620  19.825  0.00  0.00    +0.000 OA
ATOM     31  H   UNL     1       7.833  14.983  20.122  0.00  0.00    +0.000 HD
ENDBRANCH  28  30
BRANCH  28  32
ATOM     32  O   UNL     1       8.381  13.915  17.938  0.00  0.00    +0.000 OA
BRANCH  32  33
ATOM     33  C   UNL     1       9.575  14.690  18.064  0.00  0.00    +0.000 C 
BRANCH  33  34
ATOM     34  C   UNL     1      10.405  14.208  19.252  0.00  0.00    +0.000 C 
BRANCH  34  35
ATOM     35  N   UNL     1       9.753  13.047  19.857  0.00  0.00    +0.000 NA
ATOM     36  H   UNL     1       9.231  12.593  19.103  0.00  0.00    +0.000 HD
ATOM     37  H   UNL     1       9.073  13.367  20.541  0.00  0.00    +0.000 HD
ENDBRANCH  34  35
ENDBRANCH  33  34
ENDBRANCH  32  33
ENDBRANCH  28  32
ENDBRANCH  27  28
ENDBRANCH  26  27
ENDBRANCH  23  26
ENDBRANCH  22  23
ENDBRANCH  21  22
ENDBRANCH   2  21
TORSDOF 27
ENDMDL
MODEL 2
REMARK VINA RESULT:      -5.5      6.063     10.195
REMARK  Name = 
REMARK  28 active torsions:
REMARK  status: ('A' for Active; 'I' for Inactive)
REMARK    1  A    between atoms: C_1  and  C_2
REMARK    2  A    between atoms: C_2  and  C_3
REMARK    3  A    between atoms: C_3  and  C_4
REMARK    4  A    between atoms: C_4  and  C_5
REMARK    5  A    between atoms: C_5  and  C_6
REMARK    6  A    between atoms: C_7  and  C_8
REMARK    7  A    between atoms: C_8  and  C_9
REMARK    8  A    between atoms: C_10  and  C_11
REMARK    9  A    between atoms: C_11  and  C_12
REMARK   10  A    between atoms: C_12  and  C_13
REMARK   11  A    between atoms: C_13  and  C_14
REMARK   12  A    between atoms: C_14  and  C_15
REMARK   13  A    between atoms: C_15  and  C_16
REMARK   14  A    between atoms: C_16  and  C_17
REMARK   15  A    between atoms: C_17  and  C_18
REMARK   16  A    between atoms: C_18  and  C_19
REMARK   17  A    between atoms: C_20  and  O_21
REMARK   18  A    between atoms: O_21  and  C_22
REMARK   19  A    between atoms: C_22  and  C_23
REMARK   20  A    between atoms: C_23  and  O_24
REMARK   21  A    between atoms: C_23  and  C_25
REMARK   22  A    between atoms: C_25  and  O_26
REMARK   23  A    between atoms: O_26  and  P_27
REMARK   24  A    between atoms: P_27  and  O_29
REMARK   25  A    between atoms: P_27  and  O_30
REMARK   26  A    between atoms: O_30  and  C_31
REMARK   27  A    between atoms: C_31  and  C_32
REMARK   28  A    between atoms: C_32  and  N_33
REMARK                            x       y       z     vdW  Elec       q    Type
REMARK                         _______ _______ _______ _____ _____    ______ ____
ROOT
ATOM      1  C   UNL     1       4.676   6.740  16.406  0.00  0.00    +0.000 C 
ATOM      2  C   UNL     1       4.103   6.445  17.567  0.00  0.00    +0.000 C 
ENDROOT
BRANCH   1   3
ATOM      3  C   UNL     1       4.712   5.739  15.282  0.00  0.00    +0.000 C 
BRANCH   3   4
ATOM      4  C   UNL     1       6.107   5.217  14.997  0.00  0.00    +0.000 C 
BRANCH   4   5
ATOM      5  C   UNL     1       6.579   4.281  16.108  0.00  0.00    +0.000 C 
BRANCH   5   6
ATOM      6  C   UNL     1       7.857   4.800  16.725  0.00  0.00    +0.000 C 
BRANCH   6   7
ATOM      7  C   UNL     1       7.802   4.672  18.244  0.00  0.00    +0.000 C 
BRANCH   7   8
ATOM      8  C   UNL     1       7.520   6.015  18.900  0.00  0.00    +0.000 C 
BRANCH   8   9
ATOM      9  C   UNL     1       7.781   7.174  17.936  0.00  0.00    +0.000 C 
BRANCH   9  10
ATOM     10  C   UNL     1       8.545   8.276  18.635  0.00  0.00    +0.000 C 
BRANCH  10  12
ATOM     11  C   UNL     1       8.927  10.721  18.408  0.00  0.00    +0.000 C 
ATOM     12  C   UNL     1       8.490   9.570  17.879  0.00  0.00    +0.000 C 
BRANCH  11  13
ATOM     13  C   UNL     1       9.495  10.795  19.790  0.00  0.00    +0.000 C 
BRANCH  13  15
ATOM     14  C   UNL     1      11.379  12.395  20.131  0.00  0.00    +0.000 C 
ATOM     15  C   UNL     1      10.941  11.175  19.802  0.00  0.00    +0.000 C 
BRANCH  14  16
ATOM     16  C   UNL     1      10.460  13.524  20.497  0.00  0.00    +0.000 C 
BRANCH  16  17
ATOM     17  C   UNL     1      11.118  14.894  20.394  0.00  0.00    +0.000 C 
BRANCH  17  18
ATOM     18  C   UNL     1      11.393  15.227  18.929  0.00  0.00    +0.000 C 
BRANCH  18  20
ATOM     19  C   UNL     1      10.165  16.733  17.339  0.00  0.00    +0.000 C 
ATOM     20  C   UNL     1      10.097  15.467  18.165  0.00  0.00    +0.000 C 
ENDBRANCH  18  20
ENDBRANCH  17  18
ENDBRANCH  16  17
ENDBRANCH  14  16
ENDBRANCH  13  15
ENDBRANCH  11  13
ENDBRANCH  10  12
ENDBRANCH   9  10
ENDBRANCH   8   9
ENDBRANCH   7   8
ENDBRANCH   6   7
ENDBRANCH   5   6
ENDBRANCH   4   5
ENDBRANCH   3   4
ENDBRANCH   1   3
BRANCH   2  21
ATOM     21  O   UNL     1       3.554   5.223  17.786  0.00  0.00    +0.000 OA
BRANCH  21  22
ATOM     22  C   UNL     1       2.255   5.273  18.388  0.00  0.00    +0.000 C 
BRANCH  22  23
ATOM     23  C   UNL     1       1.407   4.205  17.709  0.00  0.00    +0.000 C 
BRANCH  23  24
ATOM     24  O   UNL     1       2.232   3.348  16.913  0.00  0.00    +0.000 OA
ATOM     25  H   UNL     1       1.962   3.563  15.999  0.00  0.00    +0.000 HD
ENDBRANCH  23  24
BRANCH  23  26
ATOM     26  C   UNL     1       0.706   3.335  18.743  0.00  0.00    +0.000 C 
BRANCH  26  27
ATOM     27  O   UNL     1       0.820   3.930  20.023  0.00  0.00    +0.000 OA
BRANCH  27  28
ATOM     28  P   UNL     1       2.026   3.100  20.947  0.00  0.00    +0.000 P 
ATOM     29  O   UNL     1       2.481   4.431  21.552  0.00  0.00    +0.000 OA
BRANCH  28  30
ATOM     30  O   UNL     1       0.794   2.591  21.893  0.00  0.00    +0.000 OA
ATOM     31  H   UNL     1       1.099   1.743  22.274  0.00  0.00    +0.000 HD
ENDBRANCH  28  30
BRANCH  28  32
ATOM     32  O   UNL     1       3.230   2.271  21.870  0.00  0.00    +0.000 OA
BRANCH  32  33
ATOM     33  C   UNL     1       4.379   1.927  21.092  0.00  0.00    +0.000 C 
BRANCH  33  34
ATOM     34  C   UNL     1       4.096   2.118  19.604  0.00  0.00    +0.000 C 
BRANCH  34  35
ATOM     35  N   UNL     1       5.151   2.940  19.013  0.00  0.00    +0.000 NA
ATOM     36  H   UNL     1       4.702   3.815  18.731  0.00  0.00    +0.000 HD
ATOM     37  H   UNL     1       5.486   2.490  18.165  0.00  0.00    +0.000 HD
ENDBRANCH  34  35
ENDBRANCH  33  34
ENDBRANCH  32  33
ENDBRANCH  28  32
ENDBRANCH  27  28
ENDBRANCH  26  27
ENDBRANCH  23  26
ENDBRANCH  22  23
ENDBRANCH  21  22
ENDBRANCH   2  21
TORSDOF 27
ENDMDL
MODEL 3
REMARK VINA RESULT:      -5.4      4.821     10.811
REMARK  Name = 
REMARK  28 active torsions:
REMARK  status: ('A' for Active; 'I' for Inactive)
REMARK    1  A    between atoms: C_1  and  C_2
REMARK    2  A    between atoms: C_2  and  C_3
REMARK    3  A    between atoms: C_3  and  C_4
REMARK    4  A    between atoms: C_4  and  C_5
REMARK    5  A    between atoms: C_5  and  C_6
REMARK    6  A    between atoms: C_7  and  C_8
REMARK    7  A    between atoms: C_8  and  C_9
REMARK    8  A    between atoms: C_10  and  C_11
REMARK    9  A    between atoms: C_11  and  C_12
REMARK   10  A    between atoms: C_12  and  C_13
REMARK   11  A    between atoms: C_13  and  C_14
REMARK   12  A    between atoms: C_14  and  C_15
REMARK   13  A    between atoms: C_15  and  C_16
REMARK   14  A    between atoms: C_16  and  C_17
REMARK   15  A    between atoms: C_17  and  C_18
REMARK   16  A    between atoms: C_18  and  C_19
REMARK   17  A    between atoms: C_20  and  O_21
REMARK   18  A    between atoms: O_21  and  C_22
REMARK   19  A    between atoms: C_22  and  C_23
REMARK   20  A    between atoms: C_23  and  O_24
REMARK   21  A    between atoms: C_23  and  C_25
REMARK   22  A    between atoms: C_25  and  O_26
REMARK   23  A    between atoms: O_26  and  P_27
REMARK   24  A    between atoms: P_27  and  O_29
REMARK   25  A    between atoms: P_27  and  O_30
REMARK   26  A    between atoms: O_30  and  C_31
REMARK   27  A    between atoms: C_31  and  C_32
REMARK   28  A    between atoms: C_32  and  N_33
REMARK                            x       y       z     vdW  Elec       q    Type
REMARK                         _______ _______ _______ _____ _____    ______ ____
ROOT
ATOM      1  C   UNL     1       8.610  10.224  18.263  0.00  0.00    +0.000 C 
ATOM      2  C   UNL     1       8.057   9.136  17.741  0.00  0.00    +0.000 C 
ENDROOT
BRANCH   1   3
ATOM      3  C   UNL     1       9.501  10.136  19.474  0.00  0.00    +0.000 C 
BRANCH   3   4
ATOM      4  C   UNL     1      10.069  11.479  19.891  0.00  0.00    +0.000 C 
BRANCH   4   5
ATOM      5  C   UNL     1      11.556  11.571  19.557  0.00  0.00    +0.000 C 
BRANCH   5   6
ATOM      6  C   UNL     1      11.747  11.921  18.100  0.00  0.00    +0.000 C 
BRANCH   6   7
ATOM      7  C   UNL     1      11.880  13.431  17.929  0.00  0.00    +0.000 C 
BRANCH   7   8
ATOM      8  C   UNL     1      10.653  14.019  17.250  0.00  0.00    +0.000 C 
BRANCH   8   9
ATOM      9  C   UNL     1       9.920  14.998  18.171  0.00  0.00    +0.000 C 
BRANCH   9  10
ATOM     10  C   UNL     1       8.721  14.326  18.802  0.00  0.00    +0.000 C 
BRANCH  10  12
ATOM     11  C   UNL     1       6.528  14.431  17.637  0.00  0.00    +0.000 C 
ATOM     12  C   UNL     1       7.731  13.857  17.777  0.00  0.00    +0.000 C 
BRANCH  11  13
ATOM     13  C   UNL     1       6.089  15.576  18.495  0.00  0.00    +0.000 C 
BRANCH  13  15
ATOM     14  C   UNL     1       4.006  14.918  19.700  0.00  0.00    +0.000 C 
ATOM     15  C   UNL     1       5.326  15.134  19.702  0.00  0.00    +0.000 C 
BRANCH  14  16
ATOM     16  C   UNL     1       3.144  15.123  18.489  0.00  0.00    +0.000 C 
BRANCH  16  17
ATOM     17  C   UNL     1       2.417  13.859  18.047  0.00  0.00    +0.000 C 
BRANCH  17  18
ATOM     18  C   UNL     1       1.570  13.320  19.199  0.00  0.00    +0.000 C 
BRANCH  18  20
ATOM     19  C   UNL     1       0.034  11.335  19.137  0.00  0.00    +0.000 C 
ATOM     20  C   UNL     1       1.474  11.801  19.148  0.00  0.00    +0.000 C 
ENDBRANCH  18  20
ENDBRANCH  17  18
ENDBRANCH  16  17
ENDBRANCH  14  16
ENDBRANCH  13  15
ENDBRANCH  11  13
ENDBRANCH  10  12
ENDBRANCH   9  10
ENDBRANCH   8   9
ENDBRANCH   7   8
ENDBRANCH   6   7
ENDBRANCH   5   6
ENDBRANCH   4   5
ENDBRANCH   3   4
ENDBRANCH   1   3
BRANCH   2  21
ATOM     21  O   UNL     1       8.255   7.913  18.296  0.00  0.00    +0.000 OA
BRANCH  21  22
ATOM     22  C   UNL     1       7.275   6.941  17.916  0.00  0.00    +0.000 C 
BRANCH  22  23
ATOM     23  C   UNL     1       7.710   5.610  18.518  0.00  0.00    +0.000 C 
BRANCH  23  24
ATOM     24  O   UNL     1       7.403   5.573  19.915  0.00  0.00    +0.000 OA
ATOM     25  H   UNL     1       6.700   6.245  20.008  0.00  0.00    +0.000 HD
ENDBRANCH  23  24
BRANCH  23  26
ATOM     26  C   UNL     1       6.973   4.453  17.857  0.00  0.00    +0.000 C 
BRANCH  26  27
ATOM     27  O   UNL     1       5.761   4.919  17.292  0.00  0.00    +0.000 OA
BRANCH  27  28
ATOM     28  P   UNL     1       4.428   4.406  18.269  0.00  0.00    +0.000 P 
ATOM     29  O   UNL     1       3.819   3.687  17.062  0.00  0.00    +0.000 OA
BRANCH  28  30
ATOM     30  O   UNL     1       5.468   3.334  18.934  0.00  0.00    +0.000 OA
ATOM     31  H   UNL     1       6.254   3.346  18.351  0.00  0.00    +0.000 HD
ENDBRANCH  28  30
BRANCH  28  32
ATOM     32  O   UNL     1       3.096   3.892  19.245  0.00  0.00    +0.000 OA
BRANCH  32  33
ATOM     33  C   UNL     1       2.738   4.856  20.238  0.00  0.00    +0.000 C 
BRANCH  33  34
ATOM     34  C   UNL     1       2.580   6.239  19.611  0.00  0.00    +0.000 C 
BRANCH  34  35
ATOM     35  N   UNL     1       2.006   7.153  20.596  0.00  0.00    +0.000 NA
ATOM     36  H   UNL     1       2.719   7.867  20.768  0.00  0.00    +0.000 HD
ATOM     37  H   UNL     1       1.866   6.654  21.471  0.00  0.00    +0.000 HD
ENDBRANCH  34  35
ENDBRANCH  33  34
ENDBRANCH  32  33
ENDBRANCH  28  32
ENDBRANCH  27  28
ENDBRANCH  26  27
ENDBRANCH  23  26
ENDBRANCH  22  23
ENDBRANCH  21  22
ENDBRANCH   2  21
TORSDOF 27
ENDMDL
MODEL 4
REMARK VINA RESULT:      -5.4      4.573      7.096
REMARK  Name = 
REMARK  28 active torsions:
REMARK  status: ('A' for Active; 'I' for Inactive)
REMARK    1  A    between atoms: C_1  and  C_2
REMARK    2  A    between atoms: C_2  and  C_3
REMARK    3  A    between atoms: C_3  and  C_4
REMARK    4  A    between atoms: C_4  and  C_5
REMARK    5  A    between atoms: C_5  and  C_6
REMARK    6  A    between atoms: C_7  and  C_8
REMARK    7  A    between atoms: C_8  and  C_9
REMARK    8  A    between atoms: C_10  and  C_11
REMARK    9  A    between atoms: C_11  and  C_12
REMARK   10  A    between atoms: C_12  and  C_13
REMARK   11  A    between atoms: C_13  and  C_14
REMARK   12  A    between atoms: C_14  and  C_15
REMARK   13  A    between atoms: C_15  and  C_16
REMARK   14  A    between atoms: C_16  and  C_17
REMARK   15  A    between atoms: C_17  and  C_18
REMARK   16  A    between atoms: C_18  and  C_19
REMARK   17  A    between atoms: C_20  and  O_21
REMARK   18  A    between atoms: O_21  and  C_22
REMARK   19  A    between atoms: C_22  and  C_23
REMARK   20  A    between atoms: C_23  and  O_24
REMARK   21  A    between atoms: C_23  and  C_25
REMARK   22  A    between atoms: C_25  and  O_26
REMARK   23  A    between atoms: O_26  and  P_27
REMARK   24  A    between atoms: P_27  and  O_29
REMARK   25  A    between atoms: P_27  and  O_30
REMARK   26  A    between atoms: O_30  and  C_31
REMARK   27  A    between atoms: C_31  and  C_32
REMARK   28  A    between atoms: C_32  and  N_33
REMARK                            x       y       z     vdW  Elec       q    Type
REMARK                         _______ _______ _______ _____ _____    ______ ____
ROOT
ATOM      1  C   UNL     1       2.002   5.420  20.362  0.00  0.00    +0.000 C 
ATOM      2  C   UNL     1       1.917   6.701  20.702  0.00  0.00    +0.000 C 
ENDROOT
BRANCH   1   3
ATOM      3  C   UNL     1       0.818   4.501  20.499  0.00  0.00    +0.000 C 
BRANCH   3   4
ATOM      4  C   UNL     1       1.030   3.157  19.829  0.00  0.00    +0.000 C 
BRANCH   4   5
ATOM      5  C   UNL     1       2.440   2.633  20.088  0.00  0.00    +0.000 C 
BRANCH   5   6
ATOM      6  C   UNL     1       3.053   2.117  18.807  0.00  0.00    +0.000 C 
BRANCH   6   7
ATOM      7  C   UNL     1       2.426   2.810  17.601  0.00  0.00    +0.000 C 
BRANCH   7   8
ATOM      8  C   UNL     1       3.477   3.533  16.774  0.00  0.00    +0.000 C 
BRANCH   8   9
ATOM      9  C   UNL     1       4.122   4.676  17.562  0.00  0.00    +0.000 C 
BRANCH   9  10
ATOM     10  C   UNL     1       5.553   4.332  17.908  0.00  0.00    +0.000 C 
BRANCH  10  12
ATOM     11  C   UNL     1       7.070   5.535  16.349  0.00  0.00    +0.000 C 
ATOM     12  C   UNL     1       6.501   5.441  17.559  0.00  0.00    +0.000 C 
BRANCH  11  13
ATOM     13  C   UNL     1       6.803   4.538  15.266  0.00  0.00    +0.000 C 
BRANCH  13  15
ATOM     14  C   UNL     1       6.769   4.415  12.774  0.00  0.00    +0.000 C 
ATOM     15  C   UNL     1       7.007   5.102  13.897  0.00  0.00    +0.000 C 
BRANCH  14  16
ATOM     16  C   UNL     1       6.296   2.991  12.770  0.00  0.00    +0.000 C 
BRANCH  16  17
ATOM     17  C   UNL     1       5.446   2.642  11.555  0.00  0.00    +0.000 C 
BRANCH  17  18
ATOM     18  C   UNL     1       4.126   3.409  11.609  0.00  0.00    +0.000 C 
BRANCH  18  20
ATOM     19  C   UNL     1       3.066   4.219   9.483  0.00  0.00    +0.000 C 
ATOM     20  C   UNL     1       3.232   3.050  10.430  0.00  0.00    +0.000 C 
ENDBRANCH  18  20
ENDBRANCH  17  18
ENDBRANCH  16  17
ENDBRANCH  14  16
ENDBRANCH  13  15
ENDBRANCH  11  13
ENDBRANCH  10  12
ENDBRANCH   9  10
ENDBRANCH   8   9
ENDBRANCH   7   8
ENDBRANCH   6   7
ENDBRANCH   5   6
ENDBRANCH   4   5
ENDBRANCH   3   4
ENDBRANCH   1   3
BRANCH   2  21
ATOM     21  O   UNL     1       0.767   7.216  21.209  0.00  0.00    +0.000 OA
BRANCH  21  22
ATOM     22  C   UNL     1       0.656   8.636  21.059  0.00  0.00    +0.000 C 
BRANCH  22  23
ATOM     23  C   UNL     1       0.539   9.225  22.460  0.00  0.00    +0.000 C 
BRANCH  23  24
ATOM     24  O   UNL     1       1.834   9.561  22.966  0.00  0.00    +0.000 OA
ATOM     25  H   UNL     1       1.719  10.479  23.280  0.00  0.00    +0.000 HD
ENDBRANCH  23  24
BRANCH  23  26
ATOM     26  C   UNL     1      -0.292  10.501  22.441  0.00  0.00    +0.000 C 
BRANCH  26  27
ATOM     27  O   UNL     1      -0.504  10.912  21.102  0.00  0.00    +0.000 OA
BRANCH  27  28
ATOM     28  P   UNL     1      -0.104  12.587  20.937  0.00  0.00    +0.000 P 
ATOM     29  O   UNL     1      -0.623  12.852  22.353  0.00  0.00    +0.000 OA
BRANCH  28  30
ATOM     30  O   UNL     1       1.452  12.123  21.125  0.00  0.00    +0.000 OA
ATOM     31  H   UNL     1       1.409  11.173  21.352  0.00  0.00    +0.000 HD
ENDBRANCH  28  30
BRANCH  28  32
ATOM     32  O   UNL     1       0.295  14.262  20.773  0.00  0.00    +0.000 OA
BRANCH  32  33
ATOM     33  C   UNL     1      -0.715  15.004  20.086  0.00  0.00    +0.000 C 
BRANCH  33  34
ATOM     34  C   UNL     1      -0.098  15.850  18.976  0.00  0.00    +0.000 C 
BRANCH  34  35
ATOM     35  N   UNL     1       1.350  15.648  18.963  0.00  0.00    +0.000 NA
ATOM     36  H   UNL     1       1.673  15.977  18.049  0.00  0.00    +0.000 HD
ATOM     37  H   UNL     1       1.547  14.651  19.008  0.00  0.00    +0.000 HD
ENDBRANCH  34  35
ENDBRANCH  33  34
ENDBRANCH  32  33
ENDBRANCH  28  32
ENDBRANCH  27  28
ENDBRANCH  26  27
ENDBRANCH  23  26
ENDBRANCH  22  23
ENDBRANCH  21  22
ENDBRANCH   2  21
TORSDOF 27
ENDMDL
MODEL 5
REMARK VINA RESULT:      -5.3      2.798      5.208
REMARK  Name = 
REMARK  28 active torsions:
REMARK  status: ('A' for Active; 'I' for Inactive)
REMARK    1  A    between atoms: C_1  and  C_2
REMARK    2  A    between atoms: C_2  and  C_3
REMARK    3  A    between atoms: C_3  and  C_4
REMARK    4  A    between atoms: C_4  and  C_5
REMARK    5  A    between atoms: C_5  and  C_6
REMARK    6  A    between atoms: C_7  and  C_8
REMARK    7  A    between atoms: C_8  and  C_9
REMARK    8  A    between atoms: C_10  and  C_11
REMARK    9  A    between atoms: C_11  and  C_12
REMARK   10  A    between atoms: C_12  and  C_13
REMARK   11  A    between atoms: C_13  and  C_14
REMARK   12  A    between atoms: C_14  and  C_15
REMARK   13  A    between atoms: C_15  and  C_16
REMARK   14  A    between atoms: C_16  and  C_17
REMARK   15  A    between atoms: C_17  and  C_18
REMARK   16  A    between atoms: C_18  and  C_19
REMARK   17  A    between atoms: C_20  and  O_21
REMARK   18  A    between atoms: O_21  and  C_22
REMARK   19  A    between atoms: C_22  and  C_23
REMARK   20  A    between atoms: C_23  and  O_24
REMARK   21  A    between atoms: C_23  and  C_25
REMARK   22  A    between atoms: C_25  and  O_26
REMARK   23  A    between atoms: O_26  and  P_27
REMARK   24  A    between atoms: P_27  and  O_29
REMARK   25  A    between atoms: P_27  and  O_30
REMARK   26  A    between atoms: O_30  and  C_31
REMARK   27  A    between atoms: C_31  and  C_32
REMARK   28  A    between atoms: C_32  and  N_33
REMARK                            x       y       z     vdW  Elec       q    Type
REMARK                         _______ _______ _______ _____ _____    ______ ____
ROOT
ATOM      1  C   UNL     1       1.634   8.940  19.707  0.00  0.00    +0.000 C 
ATOM      2  C   UNL     1       0.647   9.754  20.064  0.00  0.00    +0.000 C 
ENDROOT
BRANCH   1   3
ATOM      3  C   UNL     1       1.918   8.656  18.255  0.00  0.00    +0.000 C 
BRANCH   3   4
ATOM      4  C   UNL     1       2.075   7.177  17.961  0.00  0.00    +0.000 C 
BRANCH   4   5
ATOM      5  C   UNL     1       3.537   6.751  18.062  0.00  0.00    +0.000 C 
BRANCH   5   6
ATOM      6  C   UNL     1       4.299   7.187  16.832  0.00  0.00    +0.000 C 
BRANCH   6   7
ATOM      7  C   UNL     1       5.734   7.551  17.198  0.00  0.00    +0.000 C 
BRANCH   7   8
ATOM      8  C   UNL     1       6.340   6.526  18.143  0.00  0.00    +0.000 C 
BRANCH   8   9
ATOM      9  C   UNL     1       7.512   5.789  17.493  0.00  0.00    +0.000 C 
BRANCH   9  10
ATOM     10  C   UNL     1       7.164   4.332  17.283  0.00  0.00    +0.000 C 
BRANCH  10  12
ATOM     11  C   UNL     1       4.954   3.702  16.337  0.00  0.00    +0.000 C 
ATOM     12  C   UNL     1       6.207   4.138  16.145  0.00  0.00    +0.000 C 
BRANCH  11  13
ATOM     13  C   UNL     1       4.426   3.376  17.699  0.00  0.00    +0.000 C 
BRANCH  13  15
ATOM     14  C   UNL     1       2.232   2.211  17.934  0.00  0.00    +0.000 C 
ATOM     15  C   UNL     1       3.549   2.165  17.705  0.00  0.00    +0.000 C 
BRANCH  14  16
ATOM     16  C   UNL     1       1.498   3.485  18.238  0.00  0.00    +0.000 C 
BRANCH  16  17
ATOM     17  C   UNL     1       0.706   3.427  19.538  0.00  0.00    +0.000 C 
BRANCH  17  18
ATOM     18  C   UNL     1       1.126   4.578  20.451  0.00  0.00    +0.000 C 
BRANCH  18  20
ATOM     19  C   UNL     1       2.368   2.787  21.698  0.00  0.00    +0.000 C 
ATOM     20  C   UNL     1       2.384   4.228  21.237  0.00  0.00    +0.000 C 
ENDBRANCH  18  20
ENDBRANCH  17  18
ENDBRANCH  16  17
ENDBRANCH  14  16
ENDBRANCH  13  15
ENDBRANCH  11  13
ENDBRANCH  10  12
ENDBRANCH   9  10
ENDBRANCH   8   9
ENDBRANCH   7   8
ENDBRANCH   6   7
ENDBRANCH   5   6
ENDBRANCH   4   5
ENDBRANCH   3   4
ENDBRANCH   1   3
BRANCH   2  21
ATOM     21  O   UNL     1      -0.153  10.334  19.133  0.00  0.00    +0.000 OA
BRANCH  21  22
ATOM     22  C   UNL     1      -1.197  11.140  19.693  0.00  0.00    +0.000 C 
BRANCH  22  23
ATOM     23  C   UNL     1      -1.373  12.342  18.774  0.00  0.00    +0.000 C 
BRANCH  23  24
ATOM     24  O   UNL     1      -1.996  13.420  19.479  0.00  0.00    +0.000 OA
ATOM     25  H   UNL     1      -2.769  12.995  19.899  0.00  0.00    +0.000 HD
ENDBRANCH  23  24
BRANCH  23  26
ATOM     26  C   UNL     1      -0.023  12.841  18.275  0.00  0.00    +0.000 C 
BRANCH  26  27
ATOM     27  O   UNL     1       0.282  14.082  18.884  0.00  0.00    +0.000 OA
BRANCH  27  28
ATOM     28  P   UNL     1       1.981  14.173  19.201  0.00  0.00    +0.000 P 
ATOM     29  O   UNL     1       1.799  15.580  19.778  0.00  0.00    +0.000 OA
BRANCH  28  30
ATOM     30  O   UNL     1       1.693  13.153  20.445  0.00  0.00    +0.000 OA
ATOM     31  H   UNL     1       2.376  13.367  21.113  0.00  0.00    +0.000 HD
ENDBRANCH  28  30
BRANCH  28  32
ATOM     32  O   UNL     1       3.678  14.265  19.518  0.00  0.00    +0.000 OA
BRANCH  32  33
ATOM     33  C   UNL     1       4.026  15.388  20.331  0.00  0.00    +0.000 C 
BRANCH  33  34
ATOM     34  C   UNL     1       4.857  14.943  21.532  0.00  0.00    +0.000 C 
BRANCH  34  35
ATOM     35  N   UNL     1       4.228  13.776  22.149  0.00  0.00    +0.000 NA
ATOM     36  H   UNL     1       4.455  12.981  21.546  0.00  0.00    +0.000 HD
ATOM     37  H   UNL     1       3.218  13.891  22.125  0.00  0.00    +0.000 HD
ENDBRANCH  34  35
ENDBRANCH  33  34
ENDBRANCH  32  33
ENDBRANCH  28  32
ENDBRANCH  27  28
ENDBRANCH  26  27
ENDBRANCH  23  26
ENDBRANCH  22  23
ENDBRANCH  21  22
ENDBRANCH   2  21
TORSDOF 27
ENDMDL
MODEL 6
REMARK VINA RESULT:      -5.3      5.438      7.436
REMARK  Name = 
REMARK  28 active torsions:
REMARK  status: ('A' for Active; 'I' for Inactive)
REMARK    1  A    between atoms: C_1  and  C_2
REMARK    2  A    between atoms: C_2  and  C_3
REMARK    3  A    between atoms: C_3  and  C_4
REMARK    4  A    between atoms: C_4  and  C_5
REMARK    5  A    between atoms: C_5  and  C_6
REMARK    6  A    between atoms: C_7  and  C_8
REMARK    7  A    between atoms: C_8  and  C_9
REMARK    8  A    between atoms: C_10  and  C_11
REMARK    9  A    between atoms: C_11  and  C_12
REMARK   10  A    between atoms: C_12  and  C_13
REMARK   11  A    between atoms: C_13  and  C_14
REMARK   12  A    between atoms: C_14  and  C_15
REMARK   13  A    between atoms: C_15  and  C_16
REMARK   14  A    between atoms: C_16  and  C_17
REMARK   15  A    between atoms: C_17  and  C_18
REMARK   16  A    between atoms: C_18  and  C_19
REMARK   17  A    between atoms: C_20  and  O_21
REMARK   18  A    between atoms: O_21  and  C_22
REMARK   19  A    between atoms: C_22  and  C_23
REMARK   20  A    between atoms: C_23  and  O_24
REMARK   21  A    between atoms: C_23  and  C_25
REMARK   22  A    between atoms: C_25  and  O_26
REMARK   23  A    between atoms: O_26  and  P_27
REMARK   24  A    between atoms: P_27  and  O_29
REMARK   25  A    between atoms: P_27  and  O_30
REMARK   26  A    between atoms: O_30  and  C_31
REMARK   27  A    between atoms: C_31  and  C_32
REMARK   28  A    between atoms: C_32  and  N_33
REMARK                            x       y       z     vdW  Elec       q    Type
REMARK                         _______ _______ _______ _____ _____    ______ ____
ROOT
ATOM      1  C   UNL     1       0.985   9.962  20.783  0.00  0.00    +0.000 C 
ATOM      2  C   UNL     1       0.098  10.074  21.765  0.00  0.00    +0.000 C 
ENDROOT
BRANCH   1   3
ATOM      3  C   UNL     1       0.935  10.874  19.586  0.00  0.00    +0.000 C 
BRANCH   3   4
ATOM      4  C   UNL     1       1.638  10.297  18.373  0.00  0.00    +0.000 C 
BRANCH   4   5
ATOM      5  C   UNL     1       1.304   8.818  18.199  0.00  0.00    +0.000 C 
BRANCH   5   6
ATOM      6  C   UNL     1       2.565   8.018  17.968  0.00  0.00    +0.000 C 
BRANCH   6   7
ATOM      7  C   UNL     1       2.452   6.647  18.628  0.00  0.00    +0.000 C 
BRANCH   7   8
ATOM      8  C   UNL     1       2.321   6.771  20.138  0.00  0.00    +0.000 C 
BRANCH   8   9
ATOM      9  C   UNL     1       1.614   5.555  20.740  0.00  0.00    +0.000 C 
BRANCH   9  10
ATOM     10  C   UNL     1       1.205   4.593  19.647  0.00  0.00    +0.000 C 
BRANCH  10  12
ATOM     11  C   UNL     1       2.201   2.329  19.895  0.00  0.00    +0.000 C 
ATOM     12  C   UNL     1       1.184   3.171  20.125  0.00  0.00    +0.000 C 
BRANCH  11  13
ATOM     13  C   UNL     1       3.425   2.749  19.144  0.00  0.00    +0.000 C 
BRANCH  13  15
ATOM     14  C   UNL     1       3.967   3.526  16.835  0.00  0.00    +0.000 C 
ATOM     15  C   UNL     1       3.206   2.804  17.666  0.00  0.00    +0.000 C 
BRANCH  14  16
ATOM     16  C   UNL     1       5.107   4.381  17.304  0.00  0.00    +0.000 C 
BRANCH  16  17
ATOM     17  C   UNL     1       5.447   5.512  16.341  0.00  0.00    +0.000 C 
BRANCH  17  18
ATOM     18  C   UNL     1       6.930   5.860  16.455  0.00  0.00    +0.000 C 
BRANCH  18  20
ATOM     19  C   UNL     1       7.890   6.440  18.701  0.00  0.00    +0.000 C 
ATOM     20  C   UNL     1       7.162   6.961  17.481  0.00  0.00    +0.000 C 
ENDBRANCH  18  20
ENDBRANCH  17  18
ENDBRANCH  16  17
ENDBRANCH  14  16
ENDBRANCH  13  15
ENDBRANCH  11  13
ENDBRANCH  10  12
ENDBRANCH   9  10
ENDBRANCH   8   9
ENDBRANCH   7   8
ENDBRANCH   6   7
ENDBRANCH   5   6
ENDBRANCH   4   5
ENDBRANCH   3   4
ENDBRANCH   1   3
BRANCH   2  21
ATOM     21  O   UNL     1      -0.898  10.995  21.708  0.00  0.00    +0.000 OA
BRANCH  21  22
ATOM     22  C   UNL     1      -1.204  11.593  22.973  0.00  0.00    +0.000 C 
BRANCH  22  23
ATOM     23  C   UNL     1      -1.214  13.102  22.763  0.00  0.00    +0.000 C 
BRANCH  23  24
ATOM     24  O   UNL     1       0.122  13.594  22.633  0.00  0.00    +0.000 OA
ATOM     25  H   UNL     1       0.433  13.183  21.803  0.00  0.00    +0.000 HD
ENDBRANCH  23  24
BRANCH  23  26
ATOM     26  C   UNL     1      -1.961  13.463  21.486  0.00  0.00    +0.000 C 
BRANCH  26  27
ATOM     27  O   UNL     1      -3.239  13.979  21.811  0.00  0.00    +0.000 OA
BRANCH  27  28
ATOM     28  P   UNL     1      -4.447  13.184  20.862  0.00  0.00    +0.000 P 
ATOM     29  O   UNL     1      -3.354  12.441  20.089  0.00  0.00    +0.000 OA
BRANCH  28  30
ATOM     30  O   UNL     1      -4.736  12.274  22.189  0.00  0.00    +0.000 OA
ATOM     31  H   UNL     1      -4.623  11.349  21.893  0.00  0.00    +0.000 HD
ENDBRANCH  28  30
BRANCH  28  32
ATOM     32  O   UNL     1      -5.655  12.388  19.913  0.00  0.00    +0.000 OA
BRANCH  32  33
ATOM     33  C   UNL     1      -6.858  13.152  19.801  0.00  0.00    +0.000 C 
BRANCH  33  34
ATOM     34  C   UNL     1      -6.608  14.433  19.009  0.00  0.00    +0.000 C 
BRANCH  34  35
ATOM     35  N   UNL     1      -6.353  14.094  17.610  0.00  0.00    +0.000 NA
ATOM     36  H   UNL     1      -5.396  13.732  17.577  0.00  0.00    +0.000 HD
ATOM     37  H   UNL     1      -6.369  14.945  17.053  0.00  0.00    +0.000 HD
ENDBRANCH  34  35
ENDBRANCH  33  34
ENDBRANCH  32  33
ENDBRANCH  28  32
ENDBRANCH  27  28
ENDBRANCH  26  27
ENDBRANCH  23  26
ENDBRANCH  22  23
ENDBRANCH  21  22
ENDBRANCH   2  21
TORSDOF 27
ENDMDL
MODEL 7
REMARK VINA RESULT:      -5.3      6.224     10.549
REMARK  Name = 
REMARK  28 active torsions:
REMARK  status: ('A' for Active; 'I' for Inactive)
REMARK    1  A    between atoms: C_1  and  C_2
REMARK    2  A    between atoms: C_2  and  C_3
REMARK    3  A    between atoms: C_3  and  C_4
REMARK    4  A    between atoms: C_4  and  C_5
REMARK    5  A    between atoms: C_5  and  C_6
REMARK    6  A    between atoms: C_7  and  C_8
REMARK    7  A    between atoms: C_8  and  C_9
REMARK    8  A    between atoms: C_10  and  C_11
REMARK    9  A    between atoms: C_11  and  C_12
REMARK   10  A    between atoms: C_12  and  C_13
REMARK   11  A    between atoms: C_13  and  C_14
REMARK   12  A    between atoms: C_14  and  C_15
REMARK   13  A    between atoms: C_15  and  C_16
REMARK   14  A    between atoms: C_16  and  C_17
REMARK   15  A    between atoms: C_17  and  C_18
REMARK   16  A    between atoms: C_18  and  C_19
REMARK   17  A    between atoms: C_20  and  O_21
REMARK   18  A    between atoms: O_21  and  C_22
REMARK   19  A    between atoms: C_22  and  C_23
REMARK   20  A    between atoms: C_23  and  O_24
REMARK   21  A    between atoms: C_23  and  C_25
REMARK   22  A    between atoms: C_25  and  O_26
REMARK   23  A    between atoms: O_26  and  P_27
REMARK   24  A    between atoms: P_27  and  O_29
REMARK   25  A    between atoms: P_27  and  O_30
REMARK   26  A    between atoms: O_30  and  C_31
REMARK   27  A    between atoms: C_31  and  C_32
REMARK   28  A    between atoms: C_32  and  N_33
REMARK                            x       y       z     vdW  Elec       q    Type
REMARK                         _______ _______ _______ _____ _____    ______ ____
ROOT
ATOM      1  C   UNL     1       3.697   5.065  19.665  0.00  0.00    +0.000 C 
ATOM      2  C   UNL     1       4.827   4.374  19.576  0.00  0.00    +0.000 C 
ENDROOT
BRANCH   1   3
ATOM      3  C   UNL     1       3.280   6.012  18.571  0.00  0.00    +0.000 C 
BRANCH   3   4
ATOM      4  C   UNL     1       2.446   7.173  19.078  0.00  0.00    +0.000 C 
BRANCH   4   5
ATOM      5  C   UNL     1       2.365   8.285  18.035  0.00  0.00    +0.000 C 
BRANCH   5   6
ATOM      6  C   UNL     1       1.337   9.314  18.443  0.00  0.00    +0.000 C 
BRANCH   6   7
ATOM      7  C   UNL     1       1.040   9.206  19.935  0.00  0.00    +0.000 C 
BRANCH   7   8
ATOM      8  C   UNL     1      -0.073  10.157  20.347  0.00  0.00    +0.000 C 
BRANCH   8   9
ATOM      9  C   UNL     1      -0.299  10.133  21.860  0.00  0.00    +0.000 C 
BRANCH   9  10
ATOM     10  C   UNL     1      -0.674  11.511  22.357  0.00  0.00    +0.000 C 
BRANCH  10  12
ATOM     11  C   UNL     1      -2.715  12.702  21.587  0.00  0.00    +0.000 C 
ATOM     12  C   UNL     1      -1.467  12.280  21.342  0.00  0.00    +0.000 C 
BRANCH  11  13
ATOM     13  C   UNL     1      -3.405  12.431  22.887  0.00  0.00    +0.000 C 
BRANCH  13  15
ATOM     14  C   UNL     1      -4.383  14.378  24.102  0.00  0.00    +0.000 C 
ATOM     15  C   UNL     1      -4.492  13.414  23.182  0.00  0.00    +0.000 C 
BRANCH  14  16
ATOM     16  C   UNL     1      -3.164  14.558  24.959  0.00  0.00    +0.000 C 
BRANCH  16  17
ATOM     17  C   UNL     1      -2.281  15.717  24.514  0.00  0.00    +0.000 C 
BRANCH  17  18
ATOM     18  C   UNL     1      -0.951  15.181  23.988  0.00  0.00    +0.000 C 
BRANCH  18  20
ATOM     19  C   UNL     1       0.690  15.253  22.088  0.00  0.00    +0.000 C 
ATOM     20  C   UNL     1      -0.687  15.662  22.567  0.00  0.00    +0.000 C 
ENDBRANCH  18  20
ENDBRANCH  17  18
ENDBRANCH  16  17
ENDBRANCH  14  16
ENDBRANCH  13  15
ENDBRANCH  11  13
ENDBRANCH  10  12
ENDBRANCH   9  10
ENDBRANCH   8   9
ENDBRANCH   7   8
ENDBRANCH   6   7
ENDBRANCH   5   6
ENDBRANCH   4   5
ENDBRANCH   3   4
ENDBRANCH   1   3
BRANCH   2  21
ATOM     21  O   UNL     1       5.655   4.519  18.511  0.00  0.00    +0.000 OA
BRANCH  21  22
ATOM     22  C   UNL     1       6.972   4.963  18.860  0.00  0.00    +0.000 C 
BRANCH  22  23
ATOM     23  C   UNL     1       7.087   6.414  18.408  0.00  0.00    +0.000 C 
BRANCH  23  24
ATOM     24  O   UNL     1       8.355   6.954  18.789  0.00  0.00    +0.000 OA
ATOM     25  H   UNL     1       8.978   6.518  18.177  0.00  0.00    +0.000 HD
ENDBRANCH  23  24
BRANCH  23  26
ATOM     26  C   UNL     1       6.983   6.516  16.892  0.00  0.00    +0.000 C 
BRANCH  26  27
ATOM     27  O   UNL     1       7.596   5.388  16.295  0.00  0.00    +0.000 OA
BRANCH  27  28
ATOM     28  P   UNL     1       6.599   4.793  15.012  0.00  0.00    +0.000 P 
ATOM     29  O   UNL     1       5.624   5.953  15.229  0.00  0.00    +0.000 OA
BRANCH  28  30
ATOM     30  O   UNL     1       7.745   5.371  13.999  0.00  0.00    +0.000 OA
ATOM     31  H   UNL     1       7.608   6.339  13.986  0.00  0.00    +0.000 HD
ENDBRANCH  28  30
BRANCH  28  32
ATOM     32  O   UNL     1       5.602   4.198  13.730  0.00  0.00    +0.000 OA
BRANCH  32  33
ATOM     33  C   UNL     1       6.363   3.656  12.648  0.00  0.00    +0.000 C 
BRANCH  33  34
ATOM     34  C   UNL     1       5.497   2.735  11.793  0.00  0.00    +0.000 C 
BRANCH  34  35
ATOM     35  N   UNL     1       6.213   1.482  11.554  0.00  0.00    +0.000 NA
ATOM     36  H   UNL     1       5.979   0.870  12.340  0.00  0.00    +0.000 HD
ATOM     37  H   UNL     1       7.213   1.658  11.600  0.00  0.00    +0.000 HD
ENDBRANCH  34  35
ENDBRANCH  33  34
ENDBRANCH  32  33
ENDBRANCH  28  32
ENDBRANCH  27  28
ENDBRANCH  26  27
ENDBRANCH  23  26
ENDBRANCH  22  23
ENDBRANCH  21  22
ENDBRANCH   2  21
TORSDOF 27
ENDMDL
MODEL 8
REMARK VINA RESULT:      -5.3      5.144      6.474
REMARK  Name = 
REMARK  28 active torsions:
REMARK  status: ('A' for Active; 'I' for Inactive)
REMARK    1  A    between atoms: C_1  and  C_2
REMARK    2  A    between atoms: C_2  and  C_3
REMARK    3  A    between atoms: C_3  and  C_4
REMARK    4  A    between atoms: C_4  and  C_5
REMARK    5  A    between atoms: C_5  and  C_6
REMARK    6  A    between atoms: C_7  and  C_8
REMARK    7  A    between atoms: C_8  and  C_9
REMARK    8  A    between atoms: C_10  and  C_11
REMARK    9  A    between atoms: C_11  and  C_12
REMARK   10  A    between atoms: C_12  and  C_13
REMARK   11  A    between atoms: C_13  and  C_14
REMARK   12  A    between atoms: C_14  and  C_15
REMARK   13  A    between atoms: C_15  and  C_16
REMARK   14  A    between atoms: C_16  and  C_17
REMARK   15  A    between atoms: C_17  and  C_18
REMARK   16  A    between atoms: C_18  and  C_19
REMARK   17  A    between atoms: C_20  and  O_21
REMARK   18  A    between atoms: O_21  and  C_22
REMARK   19  A    between atoms: C_22  and  C_23
REMARK   20  A    between atoms: C_23  and  O_24
REMARK   21  A    between atoms: C_23  and  C_25
REMARK   22  A    between atoms: C_25  and  O_26
REMARK   23  A    between atoms: O_26  and  P_27
REMARK   24  A    between atoms: P_27  and  O_29
REMARK   25  A    between atoms: P_27  and  O_30
REMARK   26  A    between atoms: O_30  and  C_31
REMARK   27  A    between atoms: C_31  and  C_32
REMARK   28  A    between atoms: C_32  and  N_33
REMARK                            x       y       z     vdW  Elec       q    Type
REMARK                         _______ _______ _______ _____ _____    ______ ____
ROOT
ATOM      1  C   UNL     1       2.315   8.752  17.819  0.00  0.00    +0.000 C 
ATOM      2  C   UNL     1       1.462   9.731  18.097  0.00  0.00    +0.000 C 
ENDROOT
BRANCH   1   3
ATOM      3  C   UNL     1       2.078   7.352  18.322  0.00  0.00    +0.000 C 
BRANCH   3   4
ATOM      4  C   UNL     1       2.483   7.167  19.772  0.00  0.00    +0.000 C 
BRANCH   4   5
ATOM      5  C   UNL     1       2.571   5.686  20.131  0.00  0.00    +0.000 C 
BRANCH   5   6
ATOM      6  C   UNL     1       1.194   5.062  20.132  0.00  0.00    +0.000 C 
BRANCH   6   7
ATOM      7  C   UNL     1       1.244   3.667  20.746  0.00  0.00    +0.000 C 
BRANCH   7   8
ATOM      8  C   UNL     1       2.460   2.893  20.259  0.00  0.00    +0.000 C 
BRANCH   8   9
ATOM      9  C   UNL     1       2.088   1.912  19.145  0.00  0.00    +0.000 C 
BRANCH   9  10
ATOM     10  C   UNL     1       2.993   2.109  17.950  0.00  0.00    +0.000 C 
BRANCH  10  12
ATOM     11  C   UNL     1       3.575   4.331  17.001  0.00  0.00    +0.000 C 
ATOM     12  C   UNL     1       2.668   3.364  17.196  0.00  0.00    +0.000 C 
BRANCH  11  13
ATOM     13  C   UNL     1       4.973   4.227  17.526  0.00  0.00    +0.000 C 
BRANCH  13  15
ATOM     14  C   UNL     1       6.420   4.991  15.643  0.00  0.00    +0.000 C 
ATOM     15  C   UNL     1       5.913   5.183  16.865  0.00  0.00    +0.000 C 
BRANCH  14  16
ATOM     16  C   UNL     1       6.121   3.776  14.814  0.00  0.00    +0.000 C 
BRANCH  16  17
ATOM     17  C   UNL     1       5.262   4.077  13.593  0.00  0.00    +0.000 C 
BRANCH  17  18
ATOM     18  C   UNL     1       5.775   3.285  12.391  0.00  0.00    +0.000 C 
BRANCH  18  20
ATOM     19  C   UNL     1       7.420   5.101  11.843  0.00  0.00    +0.000 C 
ATOM     20  C   UNL     1       7.230   3.620  12.090  0.00  0.00    +0.000 C 
ENDBRANCH  18  20
ENDBRANCH  17  18
ENDBRANCH  16  17
ENDBRANCH  14  16
ENDBRANCH  13  15
ENDBRANCH  11  13
ENDBRANCH  10  12
ENDBRANCH   9  10
ENDBRANCH   8   9
ENDBRANCH   7   8
ENDBRANCH   6   7
ENDBRANCH   5   6
ENDBRANCH   4   5
ENDBRANCH   3   4
ENDBRANCH   1   3
BRANCH   2  21
ATOM     21  O   UNL     1       0.365   9.508  18.865  0.00  0.00    +0.000 OA
BRANCH  21  22
ATOM     22  C   UNL     1      -0.683  10.464  18.665  0.00  0.00    +0.000 C 
BRANCH  22  23
ATOM     23  C   UNL     1      -0.039  11.845  18.694  0.00  0.00    +0.000 C 
BRANCH  23  24
ATOM     24  O   UNL     1      -0.533  12.646  17.617  0.00  0.00    +0.000 OA
ATOM     25  H   UNL     1      -0.245  13.547  17.858  0.00  0.00    +0.000 HD
ENDBRANCH  23  24
BRANCH  23  26
ATOM     26  C   UNL     1      -0.371  12.567  19.992  0.00  0.00    +0.000 C 
BRANCH  26  27
ATOM     27  O   UNL     1      -1.707  12.284  20.368  0.00  0.00    +0.000 OA
BRANCH  27  28
ATOM     28  P   UNL     1      -1.965  12.763  22.010  0.00  0.00    +0.000 P 
ATOM     29  O   UNL     1      -0.759  11.926  22.446  0.00  0.00    +0.000 OA
BRANCH  28  30
ATOM     30  O   UNL     1      -1.352  14.213  21.569  0.00  0.00    +0.000 OA
ATOM     31  H   UNL     1      -0.387  14.134  21.704  0.00  0.00    +0.000 HD
ENDBRANCH  28  30
BRANCH  28  32
ATOM     32  O   UNL     1      -2.223  13.242  23.652  0.00  0.00    +0.000 OA
BRANCH  32  33
ATOM     33  C   UNL     1      -1.379  14.327  24.047  0.00  0.00    +0.000 C 
BRANCH  33  34
ATOM     34  C   UNL     1      -2.182  15.381  24.805  0.00  0.00    +0.000 C 
BRANCH  34  35
ATOM     35  N   UNL     1      -1.586  15.585  26.125  0.00  0.00    +0.000 NA
ATOM     36  H   UNL     1      -2.314  16.018  26.700  0.00  0.00    +0.000 HD
ATOM     37  H   UNL     1      -0.827  16.258  26.046  0.00  0.00    +0.000 HD
ENDBRANCH  34  35
ENDBRANCH  33  34
ENDBRANCH  32  33
ENDBRANCH  28  32
ENDBRANCH  27  28
ENDBRANCH  26  27
ENDBRANCH  23  26
ENDBRANCH  22  23
ENDBRANCH  21  22
ENDBRANCH   2  21
TORSDOF 27
ENDMDL
MODEL 9
REMARK VINA RESULT:      -5.3      5.309      7.435
REMARK  Name = 
REMARK  28 active torsions:
REMARK  status: ('A' for Active; 'I' for Inactive)
REMARK    1  A    between atoms: C_1  and  C_2
REMARK    2  A    between atoms: C_2  and  C_3
REMARK    3  A    between atoms: C_3  and  C_4
REMARK    4  A    between atoms: C_4  and  C_5
REMARK    5  A    between atoms: C_5  and  C_6
REMARK    6  A    between atoms: C_7  and  C_8
REMARK    7  A    between atoms: C_8  and  C_9
REMARK    8  A    between atoms: C_10  and  C_11
REMARK    9  A    between atoms: C_11  and  C_12
REMARK   10  A    between atoms: C_12  and  C_13
REMARK   11  A    between atoms: C_13  and  C_14
REMARK   12  A    between atoms: C_14  and  C_15
REMARK   13  A    between atoms: C_15  and  C_16
REMARK   14  A    between atoms: C_16  and  C_17
REMARK   15  A    between atoms: C_17  and  C_18
REMARK   16  A    between atoms: C_18  and  C_19
REMARK   17  A    between atoms: C_20  and  O_21
REMARK   18  A    between atoms: O_21  and  C_22
REMARK   19  A    between atoms: C_22  and  C_23
REMARK   20  A    between atoms: C_23  and  O_24
REMARK   21  A    between atoms: C_23  and  C_25
REMARK   22  A    between atoms: C_25  and  O_26
REMARK   23  A    between atoms: O_26  and  P_27
REMARK   24  A    between atoms: P_27  and  O_29
REMARK   25  A    between atoms: P_27  and  O_30
REMARK   26  A    between atoms: O_30  and  C_31
REMARK   27  A    between atoms: C_31  and  C_32
REMARK   28  A    between atoms: C_32  and  N_33
REMARK                            x       y       z     vdW  Elec       q    Type
REMARK                         _______ _______ _______ _____ _____    ______ ____
ROOT
ATOM      1  C   UNL     1       2.498   8.329  17.494  0.00  0.00    +0.000 C 
ATOM      2  C   UNL     1       2.015   9.504  17.884  0.00  0.00    +0.000 C 
ENDROOT
BRANCH   1   3
ATOM      3  C   UNL     1       2.432   7.126  18.397  0.00  0.00    +0.000 C 
BRANCH   3   4
ATOM      4  C   UNL     1       2.820   5.838  17.697  0.00  0.00    +0.000 C 
BRANCH   4   5
ATOM      5  C   UNL     1       1.706   4.800  17.803  0.00  0.00    +0.000 C 
BRANCH   5   6
ATOM      6  C   UNL     1       1.688   4.187  19.184  0.00  0.00    +0.000 C 
BRANCH   6   7
ATOM      7  C   UNL     1       2.531   2.916  19.211  0.00  0.00    +0.000 C 
BRANCH   7   8
ATOM      8  C   UNL     1       3.747   3.080  20.110  0.00  0.00    +0.000 C 
BRANCH   8   9
ATOM      9  C   UNL     1       4.991   3.460  19.305  0.00  0.00    +0.000 C 
BRANCH   9  10
ATOM     10  C   UNL     1       5.219   4.954  19.367  0.00  0.00    +0.000 C 
BRANCH  10  12
ATOM     11  C   UNL     1       7.352   5.092  18.098  0.00  0.00    +0.000 C 
ATOM     12  C   UNL     1       6.670   5.310  19.231  0.00  0.00    +0.000 C 
BRANCH  11  13
ATOM     13  C   UNL     1       6.714   4.474  16.893  0.00  0.00    +0.000 C 
BRANCH  13  15
ATOM     14  C   UNL     1       6.743   4.789  14.418  0.00  0.00    +0.000 C 
ATOM     15  C   UNL     1       7.328   4.939  15.612  0.00  0.00    +0.000 C 
BRANCH  14  16
ATOM     16  C   UNL     1       5.417   4.110  14.236  0.00  0.00    +0.000 C 
BRANCH  16  17
ATOM     17  C   UNL     1       5.132   3.722  12.791  0.00  0.00    +0.000 C 
BRANCH  17  18
ATOM     18  C   UNL     1       6.343   3.001  12.200  0.00  0.00    +0.000 C 
BRANCH  18  20
ATOM     19  C   UNL     1       6.311   0.643  11.340  0.00  0.00    +0.000 C 
ATOM     20  C   UNL     1       5.934   2.081  11.058  0.00  0.00    +0.000 C 
ENDBRANCH  18  20
ENDBRANCH  17  18
ENDBRANCH  16  17
ENDBRANCH  14  16
ENDBRANCH  13  15
ENDBRANCH  11  13
ENDBRANCH  10  12
ENDBRANCH   9  10
ENDBRANCH   8   9
ENDBRANCH   7   8
ENDBRANCH   6   7
ENDBRANCH   5   6
ENDBRANCH   4   5
ENDBRANCH   3   4
ENDBRANCH   1   3
BRANCH   2  21
ATOM     21  O   UNL     1       1.472   9.663  19.118  0.00  0.00    +0.000 OA
BRANCH  21  22
ATOM     22  C   UNL     1       0.915  10.964  19.339  0.00  0.00    +0.000 C 
BRANCH  22  23
ATOM     23  C   UNL     1       0.227  10.929  20.698  0.00  0.00    +0.000 C 
BRANCH  23  24
ATOM     24  O   UNL     1       0.908  11.782  21.622  0.00  0.00    +0.000 OA
ATOM     25  H   UNL     1       1.220  11.163  22.311  0.00  0.00    +0.000 HD
ENDBRANCH  23  24
BRANCH  23  26
ATOM     26  C   UNL     1      -1.209  11.426  20.588  0.00  0.00    +0.000 C 
BRANCH  26  27
ATOM     27  O   UNL     1      -1.366  12.168  19.392  0.00  0.00    +0.000 OA
BRANCH  27  28
ATOM     28  P   UNL     1      -2.435  11.327  18.322  0.00  0.00    +0.000 P 
ATOM     29  O   UNL     1      -3.619  12.124  18.876  0.00  0.00    +0.000 OA
BRANCH  28  30
ATOM     30  O   UNL     1      -1.803  12.258  17.135  0.00  0.00    +0.000 OA
ATOM     31  H   UNL     1      -1.604  13.115  17.562  0.00  0.00    +0.000 HD
ENDBRANCH  28  30
BRANCH  28  32
ATOM     32  O   UNL     1      -3.503  10.488  17.252  0.00  0.00    +0.000 OA
BRANCH  32  33
ATOM     33  C   UNL     1      -3.512  11.044  15.935  0.00  0.00    +0.000 C 
BRANCH  33  34
ATOM     34  C   UNL     1      -2.974  10.034  14.924  0.00  0.00    +0.000 C 
BRANCH  34  35
ATOM     35  N   UNL     1      -3.816  10.052  13.729  0.00  0.00    +0.000 NA
ATOM     36  H   UNL     1      -3.489   9.279  13.142  0.00  0.00    +0.000 HD
ATOM     37  H   UNL     1      -3.643  10.912  13.213  0.00  0.00    +0.000 HD
ENDBRANCH  34  35
ENDBRANCH  33  34
ENDBRANCH  32  33
ENDBRANCH  28  32
ENDBRANCH  27  28
ENDBRANCH  26  27
ENDBRANCH  23  26
ENDBRANCH  22  23
ENDBRANCH  21  22
ENDBRANCH   2  21
TORSDOF 27
ENDMDL
