MODEL 1
REMARK VINA RESULT:      -7.2      0.000      0.000
REMARK  Name = 
REMARK  9 active torsions:
REMARK  status: ('A' for Active; 'I' for Inactive)
REMARK    1  A    between atoms: C_1  and  C_2
REMARK    2  A    between atoms: C_2  and  C_3
REMARK    3  A    between atoms: C_3  and  C_4
REMARK    4  A    between atoms: C_4  and  N_5
REMARK    5  A    between atoms: N_5  and  C_6
REMARK    6  A    between atoms: C_6  and  C_7
REMARK    7  A    between atoms: C_21  and  C_22
REMARK    8  A    between atoms: C_23  and  C_25
REMARK    9  A    between atoms: C_25  and  C_26
REMARK                            x       y       z     vdW  Elec       q    Type
REMARK                         _______ _______ _______ _____ _____    ______ ____
ROOT
ATOM      1  C   UNL     1       1.833   7.330  20.196  0.00  0.00    +0.000 C 
ATOM      2  O   UNL     1       1.777   6.793  21.311  0.00  0.00    +0.000 OA
ATOM      3  N   UNL     1       1.384   8.643  19.912  0.00  0.00    +0.000 N 
ATOM      4  C   UNL     1       0.616   9.378  20.919  0.00  0.00    +0.000 A 
ATOM      5  C   UNL     1       0.024   8.733  22.025  0.00  0.00    +0.000 A 
ATOM      6  C   UNL     1      -0.646   9.426  23.042  0.00  0.00    +0.000 A 
ATOM      7  C   UNL     1      -0.808  10.796  22.955  0.00  0.00    +0.000 A 
ATOM      8  C   UNL     1      -0.287  11.470  21.853  0.00  0.00    +0.000 A 
ATOM      9  C   UNL     1       0.427  10.764  20.858  0.00  0.00    +0.000 A 
ATOM     10  N   UNL     1       1.022  11.477  19.804  0.00  0.00    +0.000 N 
ATOM     11  C   UNL     1       0.994  12.832  19.557  0.00  0.00    +0.000 A 
ATOM     12  C   UNL     1       1.772  13.100  18.454  0.00  0.00    +0.000 A 
ATOM     13  C   UNL     1       2.276  11.864  17.999  0.00  0.00    +0.000 A 
ATOM     14  C   UNL     1       1.773  10.876  18.828  0.00  0.00    +0.000 A 
ATOM     15  C   UNL     1       1.909   9.388  18.732  0.00  0.00    +0.000 C 
ATOM     16  C   UNL     1       1.320   8.963  17.373  0.00  0.00    +0.000 C 
ENDROOT
BRANCH   1  17
ATOM     17  C   UNL     1       2.439   6.463  19.083  0.00  0.00    +0.000 C 
BRANCH  17  18
ATOM     18  N   UNL     1       3.423   5.396  19.386  0.00  0.00    +0.000 N 
ATOM     19  C   UNL     1       2.995   4.049  19.386  0.00  0.00    +0.000 C 
ATOM     20  O   UNL     1       3.793   3.110  19.277  0.00  0.00    +0.000 OA
BRANCH  19  21
ATOM     21  C   UNL     1       1.498   3.767  19.595  0.00  0.00    +0.000 C 
ATOM     22  C   UNL     1       0.959   2.717  18.635  0.00  0.00    +0.000 C 
ATOM     23 CL   UNL     1       1.298   3.217  21.284  0.00  0.00    +0.000 Cl
ENDBRANCH  19  21
BRANCH  18  24
ATOM     24  C   UNL     1       4.862   5.626  19.145  0.00  0.00    +0.000 C 
BRANCH  24  25
ATOM     25  C   UNL     1       5.235   6.251  17.793  0.00  0.00    +0.000 C 
BRANCH  25  27
ATOM     26  C   UNL     1       7.518   7.388  17.550  0.00  0.00    +0.000 C 
ATOM     27  C   UNL     1       6.700   6.118  17.372  0.00  0.00    +0.000 C 
ENDBRANCH  25  27
ENDBRANCH  24  25
ENDBRANCH  18  24
ENDBRANCH  17  18
ENDBRANCH   1  17
TORSDOF 6
ENDMDL
MODEL 2
REMARK VINA RESULT:      -6.9      3.336      5.969
REMARK  Name = 
REMARK  9 active torsions:
REMARK  status: ('A' for Active; 'I' for Inactive)
REMARK    1  A    between atoms: C_1  and  C_2
REMARK    2  A    between atoms: C_2  and  C_3
REMARK    3  A    between atoms: C_3  and  C_4
REMARK    4  A    between atoms: C_4  and  N_5
REMARK    5  A    between atoms: N_5  and  C_6
REMARK    6  A    between atoms: C_6  and  C_7
REMARK    7  A    between atoms: C_21  and  C_22
REMARK    8  A    between atoms: C_23  and  C_25
REMARK    9  A    between atoms: C_25  and  C_26
REMARK                            x       y       z     vdW  Elec       q    Type
REMARK                         _______ _______ _______ _____ _____    ______ ____
ROOT
ATOM      1  C   UNL     1       4.174   4.719  17.119  0.00  0.00    +0.000 C 
ATOM      2  O   UNL     1       4.530   3.532  17.125  0.00  0.00    +0.000 OA
ATOM      3  N   UNL     1       3.171   5.263  17.958  0.00  0.00    +0.000 N 
ATOM      4  C   UNL     1       2.335   4.367  18.759  0.00  0.00    +0.000 A 
ATOM      5  C   UNL     1       2.258   2.983  18.497  0.00  0.00    +0.000 A 
ATOM      6  C   UNL     1       1.529   2.095  19.299  0.00  0.00    +0.000 A 
ATOM      7  C   UNL     1       0.789   2.574  20.364  0.00  0.00    +0.000 A 
ATOM      8  C   UNL     1       0.791   3.940  20.630  0.00  0.00    +0.000 A 
ATOM      9  C   UNL     1       1.568   4.819  19.840  0.00  0.00    +0.000 A 
ATOM     10  N   UNL     1       1.628   6.180  20.183  0.00  0.00    +0.000 N 
ATOM     11  C   UNL     1       0.987   6.838  21.211  0.00  0.00    +0.000 A 
ATOM     12  C   UNL     1       1.391   8.153  21.217  0.00  0.00    +0.000 A 
ATOM     13  C   UNL     1       2.292   8.310  20.143  0.00  0.00    +0.000 A 
ATOM     14  C   UNL     1       2.396   7.087  19.503  0.00  0.00    +0.000 A 
ATOM     15  C   UNL     1       3.134   6.725  18.251  0.00  0.00    +0.000 C 
ATOM     16  C   UNL     1       2.573   7.607  17.119  0.00  0.00    +0.000 C 
ENDROOT
BRANCH   1  17
ATOM     17  C   UNL     1       4.904   5.615  16.108  0.00  0.00    +0.000 C 
BRANCH  17  18
ATOM     18  N   UNL     1       6.298   5.327  15.688  0.00  0.00    +0.000 N 
ATOM     19  C   UNL     1       7.324   5.348  16.659  0.00  0.00    +0.000 C 
ATOM     20  O   UNL     1       8.412   4.790  16.472  0.00  0.00    +0.000 OA
BRANCH  19  21
ATOM     21  C   UNL     1       7.082   6.150  17.949  0.00  0.00    +0.000 C 
ATOM     22  C   UNL     1       7.786   5.548  19.155  0.00  0.00    +0.000 C 
ATOM     23 CL   UNL     1       7.676   7.811  17.654  0.00  0.00    +0.000 Cl
ENDBRANCH  19  21
BRANCH  18  24
ATOM     24  C   UNL     1       6.555   4.515  14.481  0.00  0.00    +0.000 C 
BRANCH  24  25
ATOM     25  C   UNL     1       5.319   4.006  13.726  0.00  0.00    +0.000 C 
BRANCH  25  27
ATOM     26  C   UNL     1       4.373   3.236  11.474  0.00  0.00    +0.000 C 
ATOM     27  C   UNL     1       5.585   3.313  12.389  0.00  0.00    +0.000 C 
ENDBRANCH  25  27
ENDBRANCH  24  25
ENDBRANCH  18  24
ENDBRANCH  17  18
ENDBRANCH   1  17
TORSDOF 6
ENDMDL
MODEL 3
REMARK VINA RESULT:      -6.7      1.350      3.042
REMARK  Name = 
REMARK  9 active torsions:
REMARK  status: ('A' for Active; 'I' for Inactive)
REMARK    1  A    between atoms: C_1  and  C_2
REMARK    2  A    between atoms: C_2  and  C_3
REMARK    3  A    between atoms: C_3  and  C_4
REMARK    4  A    between atoms: C_4  and  N_5
REMARK    5  A    between atoms: N_5  and  C_6
REMARK    6  A    between atoms: C_6  and  C_7
REMARK    7  A    between atoms: C_21  and  C_22
REMARK    8  A    between atoms: C_23  and  C_25
REMARK    9  A    between atoms: C_25  and  C_26
REMARK                            x       y       z     vdW  Elec       q    Type
REMARK                         _______ _______ _______ _____ _____    ______ ____
ROOT
ATOM      1  C   UNL     1       1.889   7.388  20.204  0.00  0.00    +0.000 C 
ATOM      2  O   UNL     1       1.848   6.850  21.319  0.00  0.00    +0.000 OA
ATOM      3  N   UNL     1       1.407   8.689  19.920  0.00  0.00    +0.000 N 
ATOM      4  C   UNL     1       0.625   9.407  20.929  0.00  0.00    +0.000 A 
ATOM      5  C   UNL     1       0.052   8.748  22.037  0.00  0.00    +0.000 A 
ATOM      6  C   UNL     1      -0.631   9.426  23.056  0.00  0.00    +0.000 A 
ATOM      7  C   UNL     1      -0.826  10.791  22.968  0.00  0.00    +0.000 A 
ATOM      8  C   UNL     1      -0.324  11.477  21.865  0.00  0.00    +0.000 A 
ATOM      9  C   UNL     1       0.403  10.788  20.867  0.00  0.00    +0.000 A 
ATOM     10  N   UNL     1       0.978  11.514  19.811  0.00  0.00    +0.000 N 
ATOM     11  C   UNL     1       0.916  12.868  19.563  0.00  0.00    +0.000 A 
ATOM     12  C   UNL     1       1.684  13.154  18.458  0.00  0.00    +0.000 A 
ATOM     13  C   UNL     1       2.216  11.929  18.002  0.00  0.00    +0.000 A 
ATOM     14  C   UNL     1       1.739  10.931  18.834  0.00  0.00    +0.000 A 
ATOM     15  C   UNL     1       1.911   9.446  18.738  0.00  0.00    +0.000 C 
ATOM     16  C   UNL     1       1.328   9.007  17.381  0.00  0.00    +0.000 C 
ENDROOT
BRANCH   1  17
ATOM     17  C   UNL     1       2.511   6.535  19.089  0.00  0.00    +0.000 C 
BRANCH  17  18
ATOM     18  N   UNL     1       3.071   5.191  19.369  0.00  0.00    +0.000 N 
ATOM     19  C   UNL     1       4.444   4.957  19.131  0.00  0.00    +0.000 C 
ATOM     20  O   UNL     1       5.046   4.011  19.654  0.00  0.00    +0.000 OA
BRANCH  19  21
ATOM     21  C   UNL     1       5.172   5.879  18.138  0.00  0.00    +0.000 C 
ATOM     22  C   UNL     1       6.682   5.865  18.324  0.00  0.00    +0.000 C 
ATOM     23 CL   UNL     1       4.748   5.319  16.494  0.00  0.00    +0.000 Cl
ENDBRANCH  19  21
BRANCH  18  24
ATOM     24  C   UNL     1       2.418   4.307  20.357  0.00  0.00    +0.000 C 
BRANCH  24  25
ATOM     25  C   UNL     1       1.051   3.734  19.960  0.00  0.00    +0.000 C 
BRANCH  25  27
ATOM     26  C   UNL     1       2.293   1.881  18.701  0.00  0.00    +0.000 C 
ATOM     27  C   UNL     1       1.048   2.750  18.788  0.00  0.00    +0.000 C 
ENDBRANCH  25  27
ENDBRANCH  24  25
ENDBRANCH  18  24
ENDBRANCH  17  18
ENDBRANCH   1  17
TORSDOF 6
ENDMDL
MODEL 4
REMARK VINA RESULT:      -6.5      1.517      3.355
REMARK  Name = 
REMARK  9 active torsions:
REMARK  status: ('A' for Active; 'I' for Inactive)
REMARK    1  A    between atoms: C_1  and  C_2
REMARK    2  A    between atoms: C_2  and  C_3
REMARK    3  A    between atoms: C_3  and  C_4
REMARK    4  A    between atoms: C_4  and  N_5
REMARK    5  A    between atoms: N_5  and  C_6
REMARK    6  A    between atoms: C_6  and  C_7
REMARK    7  A    between atoms: C_21  and  C_22
REMARK    8  A    between atoms: C_23  and  C_25
REMARK    9  A    between atoms: C_25  and  C_26
REMARK                            x       y       z     vdW  Elec       q    Type
REMARK                         _______ _______ _______ _____ _____    ______ ____
ROOT
ATOM      1  C   UNL     1       1.814   8.766  18.162  0.00  0.00    +0.000 C 
ATOM      2  O   UNL     1       2.019   9.234  17.033  0.00  0.00    +0.000 OA
ATOM      3  N   UNL     1       1.488   9.537  19.305  0.00  0.00    +0.000 N 
ATOM      4  C   UNL     1       1.583  10.997  19.243  0.00  0.00    +0.000 A 
ATOM      5  C   UNL     1       2.288  11.657  18.215  0.00  0.00    +0.000 A 
ATOM      6  C   UNL     1       2.324  13.052  18.091  0.00  0.00    +0.000 A 
ATOM      7  C   UNL     1       1.706  13.847  19.038  0.00  0.00    +0.000 A 
ATOM      8  C   UNL     1       1.042  13.241  20.101  0.00  0.00    +0.000 A 
ATOM      9  C   UNL     1       0.974  11.832  20.189  0.00  0.00    +0.000 A 
ATOM     10  N   UNL     1       0.222  11.243  21.218  0.00  0.00    +0.000 N 
ATOM     11  C   UNL     1      -0.478  11.858  22.233  0.00  0.00    +0.000 A 
ATOM     12  C   UNL     1      -1.127  10.897  22.973  0.00  0.00    +0.000 A 
ATOM     13  C   UNL     1      -0.795   9.649  22.404  0.00  0.00    +0.000 A 
ATOM     14  C   UNL     1       0.063   9.888  21.344  0.00  0.00    +0.000 A 
ATOM     15  C   UNL     1       0.791   8.916  20.468  0.00  0.00    +0.000 C 
ATOM     16  C   UNL     1       1.683   8.056  21.384  0.00  0.00    +0.000 C 
ENDROOT
BRANCH   1  17
ATOM     17  C   UNL     1       1.939   7.240  18.270  0.00  0.00    +0.000 C 
BRANCH  17  18
ATOM     18  N   UNL     1       3.229   6.595  18.619  0.00  0.00    +0.000 N 
ATOM     19  C   UNL     1       3.220   5.277  19.128  0.00  0.00    +0.000 C 
ATOM     20  O   UNL     1       4.229   4.562  19.106  0.00  0.00    +0.000 OA
BRANCH  19  21
ATOM     21  C   UNL     1       1.926   4.764  19.782  0.00  0.00    +0.000 C 
ATOM     22  C   UNL     1       1.293   3.617  19.010  0.00  0.00    +0.000 C 
ATOM     23 CL   UNL     1       2.348   4.234  21.437  0.00  0.00    +0.000 Cl
ENDBRANCH  19  21
BRANCH  18  24
ATOM     24  C   UNL     1       4.478   7.037  17.965  0.00  0.00    +0.000 C 
BRANCH  24  25
ATOM     25  C   UNL     1       4.622   6.702  16.474  0.00  0.00    +0.000 C 
BRANCH  25  27
ATOM     26  C   UNL     1       5.313   4.422  15.534  0.00  0.00    +0.000 C 
ATOM     27  C   UNL     1       5.767   5.758  16.103  0.00  0.00    +0.000 C 
ENDBRANCH  25  27
ENDBRANCH  24  25
ENDBRANCH  18  24
ENDBRANCH  17  18
ENDBRANCH   1  17
TORSDOF 6
ENDMDL
MODEL 5
REMARK VINA RESULT:      -6.3      2.060      4.502
REMARK  Name = 
REMARK  9 active torsions:
REMARK  status: ('A' for Active; 'I' for Inactive)
REMARK    1  A    between atoms: C_1  and  C_2
REMARK    2  A    between atoms: C_2  and  C_3
REMARK    3  A    between atoms: C_3  and  C_4
REMARK    4  A    between atoms: C_4  and  N_5
REMARK    5  A    between atoms: N_5  and  C_6
REMARK    6  A    between atoms: C_6  and  C_7
REMARK    7  A    between atoms: C_21  and  C_22
REMARK    8  A    between atoms: C_23  and  C_25
REMARK    9  A    between atoms: C_25  and  C_26
REMARK                            x       y       z     vdW  Elec       q    Type
REMARK                         _______ _______ _______ _____ _____    ______ ____
ROOT
ATOM      1  C   UNL     1       2.094   8.277  18.604  0.00  0.00    +0.000 C 
ATOM      2  O   UNL     1       2.246   8.551  17.405  0.00  0.00    +0.000 OA
ATOM      3  N   UNL     1       1.649   9.193  19.589  0.00  0.00    +0.000 N 
ATOM      4  C   UNL     1       1.541  10.615  19.258  0.00  0.00    +0.000 A 
ATOM      5  C   UNL     1       2.160  11.165  18.116  0.00  0.00    +0.000 A 
ATOM      6  C   UNL     1       2.004  12.505  17.736  0.00  0.00    +0.000 A 
ATOM      7  C   UNL     1       1.269  13.367  18.527  0.00  0.00    +0.000 A 
ATOM      8  C   UNL     1       0.682  12.881  19.693  0.00  0.00    +0.000 A 
ATOM      9  C   UNL     1       0.809  11.517  20.041  0.00  0.00    +0.000 A 
ATOM     10  N   UNL     1       0.133  11.029  21.171  0.00  0.00    +0.000 N 
ATOM     11  C   UNL     1      -0.658  11.718  22.064  0.00  0.00    +0.000 A 
ATOM     12  C   UNL     1      -1.176  10.829  22.977  0.00  0.00    +0.000 A 
ATOM     13  C   UNL     1      -0.667   9.556  22.644  0.00  0.00    +0.000 A 
ATOM     14  C   UNL     1       0.163   9.713  21.547  0.00  0.00    +0.000 A 
ATOM     15  C   UNL     1       1.030   8.706  20.856  0.00  0.00    +0.000 C 
ATOM     16  C   UNL     1       2.021   8.163  21.903  0.00  0.00    +0.000 C 
ENDROOT
BRANCH   1  17
ATOM     17  C   UNL     1       2.429   6.830  18.991  0.00  0.00    +0.000 C 
BRANCH  17  18
ATOM     18  N   UNL     1       2.492   5.754  17.972  0.00  0.00    +0.000 N 
ATOM     19  C   UNL     1       3.754   5.330  17.499  0.00  0.00    +0.000 C 
ATOM     20  O   UNL     1       3.910   4.238  16.940  0.00  0.00    +0.000 OA
BRANCH  19  21
ATOM     21  C   UNL     1       4.939   6.301  17.635  0.00  0.00    +0.000 C 
ATOM     22  C   UNL     1       6.111   5.694  18.392  0.00  0.00    +0.000 C 
ATOM     23 CL   UNL     1       5.442   6.753  15.980  0.00  0.00    +0.000 Cl
ENDBRANCH  19  21
BRANCH  18  24
ATOM     24  C   UNL     1       1.388   4.778  17.856  0.00  0.00    +0.000 C 
BRANCH  24  25
ATOM     25  C   UNL     1       1.420   3.595  18.833  0.00  0.00    +0.000 C 
BRANCH  25  27
ATOM     26  C   UNL     1       1.330   2.840  21.279  0.00  0.00    +0.000 C 
ATOM     27  C   UNL     1       0.912   3.877  20.249  0.00  0.00    +0.000 C 
ENDBRANCH  25  27
ENDBRANCH  24  25
ENDBRANCH  18  24
ENDBRANCH  17  18
ENDBRANCH   1  17
TORSDOF 6
ENDMDL
MODEL 6
REMARK VINA RESULT:      -6.3      3.830      6.386
REMARK  Name = 
REMARK  9 active torsions:
REMARK  status: ('A' for Active; 'I' for Inactive)
REMARK    1  A    between atoms: C_1  and  C_2
REMARK    2  A    between atoms: C_2  and  C_3
REMARK    3  A    between atoms: C_3  and  C_4
REMARK    4  A    between atoms: C_4  and  N_5
REMARK    5  A    between atoms: N_5  and  C_6
REMARK    6  A    between atoms: C_6  and  C_7
REMARK    7  A    between atoms: C_21  and  C_22
REMARK    8  A    between atoms: C_23  and  C_25
REMARK    9  A    between atoms: C_25  and  C_26
REMARK                            x       y       z     vdW  Elec       q    Type
REMARK                         _______ _______ _______ _____ _____    ______ ____
ROOT
ATOM      1  C   UNL     1       4.578   5.479  16.683  0.00  0.00    +0.000 C 
ATOM      2  O   UNL     1       4.300   6.415  15.922  0.00  0.00    +0.000 OA
ATOM      3  N   UNL     1       4.006   5.288  17.966  0.00  0.00    +0.000 N 
ATOM      4  C   UNL     1       3.180   6.344  18.553  0.00  0.00    +0.000 A 
ATOM      5  C   UNL     1       3.189   7.664  18.054  0.00  0.00    +0.000 A 
ATOM      6  C   UNL     1       2.348   8.670  18.549  0.00  0.00    +0.000 A 
ATOM      7  C   UNL     1       1.507   8.408  19.613  0.00  0.00    +0.000 A 
ATOM      8  C   UNL     1       1.502   7.133  20.174  0.00  0.00    +0.000 A 
ATOM      9  C   UNL     1       2.322   6.115  19.636  0.00  0.00    +0.000 A 
ATOM     10  N   UNL     1       2.233   4.814  20.158  0.00  0.00    +0.000 N 
ATOM     11  C   UNL     1       1.447   4.352  21.192  0.00  0.00    +0.000 A 
ATOM     12  C   UNL     1       1.628   2.995  21.317  0.00  0.00    +0.000 A 
ATOM     13  C   UNL     1       2.572   2.616  20.339  0.00  0.00    +0.000 A 
ATOM     14  C   UNL     1       2.953   3.761  19.660  0.00  0.00    +0.000 A 
ATOM     15  C   UNL     1       3.997   3.939  18.602  0.00  0.00    +0.000 C 
ATOM     16  C   UNL     1       5.342   3.491  19.208  0.00  0.00    +0.000 C 
ENDROOT
BRANCH   1  17
ATOM     17  C   UNL     1       5.622   4.489  16.149  0.00  0.00    +0.000 C 
BRANCH  17  18
ATOM     18  N   UNL     1       6.906   4.959  15.574  0.00  0.00    +0.000 N 
ATOM     19  C   UNL     1       7.129   4.814  14.186  0.00  0.00    +0.000 C 
ATOM     20  O   UNL     1       7.986   5.477  13.590  0.00  0.00    +0.000 OA
BRANCH  19  21
ATOM     21  C   UNL     1       6.318   3.747  13.432  0.00  0.00    +0.000 C 
ATOM     22  C   UNL     1       4.924   4.227  13.057  0.00  0.00    +0.000 C 
ATOM     23 CL   UNL     1       7.242   3.327  11.960  0.00  0.00    +0.000 Cl
ENDBRANCH  19  21
BRANCH  18  24
ATOM     24  C   UNL     1       7.678   6.019  16.254  0.00  0.00    +0.000 C 
BRANCH  24  25
ATOM     25  C   UNL     1       7.392   6.218  17.749  0.00  0.00    +0.000 C 
BRANCH  25  27
ATOM     26  C   UNL     1       7.947   8.718  17.812  0.00  0.00    +0.000 C 
ATOM     27  C   UNL     1       8.161   7.348  18.436  0.00  0.00    +0.000 C 
ENDBRANCH  25  27
ENDBRANCH  24  25
ENDBRANCH  18  24
ENDBRANCH  17  18
ENDBRANCH   1  17
TORSDOF 6
ENDMDL
MODEL 7
REMARK VINA RESULT:      -6.2      2.942      5.427
REMARK  Name = 
REMARK  9 active torsions:
REMARK  status: ('A' for Active; 'I' for Inactive)
REMARK    1  A    between atoms: C_1  and  C_2
REMARK    2  A    between atoms: C_2  and  C_3
REMARK    3  A    between atoms: C_3  and  C_4
REMARK    4  A    between atoms: C_4  and  N_5
REMARK    5  A    between atoms: N_5  and  C_6
REMARK    6  A    between atoms: C_6  and  C_7
REMARK    7  A    between atoms: C_21  and  C_22
REMARK    8  A    between atoms: C_23  and  C_25
REMARK    9  A    between atoms: C_25  and  C_26
REMARK                            x       y       z     vdW  Elec       q    Type
REMARK                         _______ _______ _______ _____ _____    ______ ____
ROOT
ATOM      1  C   UNL     1       4.818   5.393  18.037  0.00  0.00    +0.000 C 
ATOM      2  O   UNL     1       5.487   4.385  18.302  0.00  0.00    +0.000 OA
ATOM      3  N   UNL     1       3.609   5.749  18.683  0.00  0.00    +0.000 N 
ATOM      4  C   UNL     1       2.965   4.795  19.588  0.00  0.00    +0.000 A 
ATOM      5  C   UNL     1       3.310   3.427  19.600  0.00  0.00    +0.000 A 
ATOM      6  C   UNL     1       2.765   2.512  20.512  0.00  0.00    +0.000 A 
ATOM      7  C   UNL     1       1.798   2.923  21.409  0.00  0.00    +0.000 A 
ATOM      8  C   UNL     1       1.386   4.253  21.399  0.00  0.00    +0.000 A 
ATOM      9  C   UNL     1       1.977   5.175  20.505  0.00  0.00    +0.000 A 
ATOM     10  N   UNL     1       1.613   6.530  20.575  0.00  0.00    +0.000 N 
ATOM     11  C   UNL     1       0.695   7.133  21.408  0.00  0.00    +0.000 A 
ATOM     12  C   UNL     1       0.711   8.489  21.181  0.00  0.00    +0.000 A 
ATOM     13  C   UNL     1       1.657   8.722  20.160  0.00  0.00    +0.000 A 
ATOM     14  C   UNL     1       2.174   7.495  19.782  0.00  0.00    +0.000 A 
ATOM     15  C   UNL     1       3.130   7.162  18.679  0.00  0.00    +0.000 C 
ATOM     16  C   UNL     1       2.487   7.632  17.360  0.00  0.00    +0.000 C 
ENDROOT
BRANCH   1  17
ATOM     17  C   UNL     1       5.386   6.280  16.921  0.00  0.00    +0.000 C 
BRANCH  17  18
ATOM     18  N   UNL     1       6.733   6.033  16.350  0.00  0.00    +0.000 N 
ATOM     19  C   UNL     1       6.840   5.352  15.117  0.00  0.00    +0.000 C 
ATOM     20  O   UNL     1       7.860   5.418  14.420  0.00  0.00    +0.000 OA
BRANCH  19  21
ATOM     21  C   UNL     1       5.668   4.455  14.683  0.00  0.00    +0.000 C 
ATOM     22  C   UNL     1       5.736   4.072  13.213  0.00  0.00    +0.000 C 
ATOM     23 CL   UNL     1       5.722   2.989  15.705  0.00  0.00    +0.000 Cl
ENDBRANCH  19  21
BRANCH  18  24
ATOM     24  C   UNL     1       7.863   6.913  16.712  0.00  0.00    +0.000 C 
BRANCH  24  25
ATOM     25  C   UNL     1       7.680   7.775  17.969  0.00  0.00    +0.000 C 
BRANCH  25  27
ATOM     26  C   UNL     1       9.012   9.762  18.884  0.00  0.00    +0.000 C 
ATOM     27  C   UNL     1       8.042   9.255  17.829  0.00  0.00    +0.000 C 
ENDBRANCH  25  27
ENDBRANCH  24  25
ENDBRANCH  18  24
ENDBRANCH  17  18
ENDBRANCH   1  17
TORSDOF 6
ENDMDL
MODEL 8
REMARK VINA RESULT:      -6.2      3.522      6.438
REMARK  Name = 
REMARK  9 active torsions:
REMARK  status: ('A' for Active; 'I' for Inactive)
REMARK    1  A    between atoms: C_1  and  C_2
REMARK    2  A    between atoms: C_2  and  C_3
REMARK    3  A    between atoms: C_3  and  C_4
REMARK    4  A    between atoms: C_4  and  N_5
REMARK    5  A    between atoms: N_5  and  C_6
REMARK    6  A    between atoms: C_6  and  C_7
REMARK    7  A    between atoms: C_21  and  C_22
REMARK    8  A    between atoms: C_23  and  C_25
REMARK    9  A    between atoms: C_25  and  C_26
REMARK                            x       y       z     vdW  Elec       q    Type
REMARK                         _______ _______ _______ _____ _____    ______ ____
ROOT
ATOM      1  C   UNL     1       3.970   5.714  17.214  0.00  0.00    +0.000 C 
ATOM      2  O   UNL     1       3.606   6.760  16.659  0.00  0.00    +0.000 OA
ATOM      3  N   UNL     1       3.515   5.276  18.482  0.00  0.00    +0.000 N 
ATOM      4  C   UNL     1       2.717   6.177  19.315  0.00  0.00    +0.000 A 
ATOM      5  C   UNL     1       2.652   7.564  19.064  0.00  0.00    +0.000 A 
ATOM      6  C   UNL     1       1.834   8.433  19.798  0.00  0.00    +0.000 A 
ATOM      7  C   UNL     1       1.093   7.953  20.862  0.00  0.00    +0.000 A 
ATOM      8  C   UNL     1       1.166   6.599  21.180  0.00  0.00    +0.000 A 
ATOM      9  C   UNL     1       1.961   5.725  20.403  0.00  0.00    +0.000 A 
ATOM     10  N   UNL     1       1.948   4.350  20.686  0.00  0.00    +0.000 N 
ATOM     11  C   UNL     1       1.264   3.682  21.679  0.00  0.00    +0.000 A 
ATOM     12  C   UNL     1       1.487   2.331  21.541  0.00  0.00    +0.000 A 
ATOM     13  C   UNL     1       2.353   2.170  20.439  0.00  0.00    +0.000 A 
ATOM     14  C   UNL     1       2.647   3.431  19.951  0.00  0.00    +0.000 A 
ATOM     15  C   UNL     1       3.592   3.835  18.862  0.00  0.00    +0.000 C 
ATOM     16  C   UNL     1       4.994   3.339  19.267  0.00  0.00    +0.000 C 
ENDROOT
BRANCH   1  17
ATOM     17  C   UNL     1       4.988   4.876  16.427  0.00  0.00    +0.000 C 
BRANCH  17  18
ATOM     18  N   UNL     1       6.015   5.516  15.570  0.00  0.00    +0.000 N 
ATOM     19  C   UNL     1       7.164   6.072  16.175  0.00  0.00    +0.000 C 
ATOM     20  O   UNL     1       8.198   6.295  15.533  0.00  0.00    +0.000 OA
BRANCH  19  21
ATOM     21  C   UNL     1       7.080   6.464  17.660  0.00  0.00    +0.000 C 
ATOM     22  C   UNL     1       7.790   5.472  18.569  0.00  0.00    +0.000 C 
ATOM     23 CL   UNL     1       7.820   8.084  17.819  0.00  0.00    +0.000 Cl
ENDBRANCH  19  21
BRANCH  18  24
ATOM     24  C   UNL     1       6.148   5.119  14.153  0.00  0.00    +0.000 C 
BRANCH  24  25
ATOM     25  C   UNL     1       5.815   3.658  13.820  0.00  0.00    +0.000 C 
BRANCH  25  27
ATOM     26  C   UNL     1       4.545   3.282  11.628  0.00  0.00    +0.000 C 
ATOM     27  C   UNL     1       5.888   3.271  12.342  0.00  0.00    +0.000 C 
ENDBRANCH  25  27
ENDBRANCH  24  25
ENDBRANCH  18  24
ENDBRANCH  17  18
ENDBRANCH   1  17
TORSDOF 6
ENDMDL
MODEL 9
REMARK VINA RESULT:      -6.2      1.847      3.408
REMARK  Name = 
REMARK  9 active torsions:
REMARK  status: ('A' for Active; 'I' for Inactive)
REMARK    1  A    between atoms: C_1  and  C_2
REMARK    2  A    between atoms: C_2  and  C_3
REMARK    3  A    between atoms: C_3  and  C_4
REMARK    4  A    between atoms: C_4  and  N_5
REMARK    5  A    between atoms: N_5  and  C_6
REMARK    6  A    between atoms: C_6  and  C_7
REMARK    7  A    between atoms: C_21  and  C_22
REMARK    8  A    between atoms: C_23  and  C_25
REMARK    9  A    between atoms: C_25  and  C_26
REMARK                            x       y       z     vdW  Elec       q    Type
REMARK                         _______ _______ _______ _____ _____    ______ ____
ROOT
ATOM      1  C   UNL     1       1.910   8.118  19.731  0.00  0.00    +0.000 C 
ATOM      2  O   UNL     1       2.281   7.530  20.756  0.00  0.00    +0.000 OA
ATOM      3  N   UNL     1       1.043   9.238  19.715  0.00  0.00    +0.000 N 
ATOM      4  C   UNL     1       0.358   9.639  20.946  0.00  0.00    +0.000 A 
ATOM      5  C   UNL     1       0.263   8.781  22.062  0.00  0.00    +0.000 A 
ATOM      6  C   UNL     1      -0.316   9.173  23.276  0.00  0.00    +0.000 A 
ATOM      7  C   UNL     1      -0.887  10.425  23.398  0.00  0.00    +0.000 A 
ATOM      8  C   UNL     1      -0.865  11.288  22.305  0.00  0.00    +0.000 A 
ATOM      9  C   UNL     1      -0.236  10.898  21.101  0.00  0.00    +0.000 A 
ATOM     10  N   UNL     1      -0.146  11.817  20.043  0.00  0.00    +0.000 N 
ATOM     11  C   UNL     1      -0.627  13.107  19.980  0.00  0.00    +0.000 A 
ATOM     12  C   UNL     1      -0.249  13.665  18.781  0.00  0.00    +0.000 A 
ATOM     13  C   UNL     1       0.470  12.675  18.078  0.00  0.00    +0.000 A 
ATOM     14  C   UNL     1       0.491  11.536  18.864  0.00  0.00    +0.000 A 
ATOM     15  C   UNL     1       1.029  10.173  18.554  0.00  0.00    +0.000 C 
ATOM     16  C   UNL     1       0.282   9.661  17.308  0.00  0.00    +0.000 C 
ENDROOT
BRANCH   1  17
ATOM     17  C   UNL     1       2.457   7.547  18.415  0.00  0.00    +0.000 C 
BRANCH  17  18
ATOM     18  N   UNL     1       2.848   6.121  18.297  0.00  0.00    +0.000 N 
ATOM     19  C   UNL     1       4.195   5.800  18.017  0.00  0.00    +0.000 C 
ATOM     20  O   UNL     1       4.661   4.678  18.248  0.00  0.00    +0.000 OA
BRANCH  19  21
ATOM     21  C   UNL     1       5.068   6.873  17.344  0.00  0.00    +0.000 C 
ATOM     22  C   UNL     1       6.531   6.777  17.748  0.00  0.00    +0.000 C 
ATOM     23 CL   UNL     1       4.900   6.654  15.577  0.00  0.00    +0.000 Cl
ENDBRANCH  19  21
BRANCH  18  24
ATOM     24  C   UNL     1       2.054   5.077  18.977  0.00  0.00    +0.000 C 
BRANCH  24  25
ATOM     25  C   UNL     1       1.440   3.994  18.079  0.00  0.00    +0.000 C 
BRANCH  25  27
ATOM     26  C   UNL     1       1.122   2.751  20.296  0.00  0.00    +0.000 C 
ATOM     27  C   UNL     1       1.001   2.707  18.781  0.00  0.00    +0.000 C 
ENDBRANCH  25  27
ENDBRANCH  24  25
ENDBRANCH  18  24
ENDBRANCH  17  18
ENDBRANCH   1  17
TORSDOF 6
ENDMDL
