MODEL 1
REMARK VINA RESULT:      -7.7      0.000      0.000
REMARK  Name = 
REMARK  12 active torsions:
REMARK  status: ('A' for Active; 'I' for Inactive)
REMARK    1  A    between atoms: C_1  and  O_2
REMARK    2  A    between atoms: O_2  and  C_3
REMARK    3  A    between atoms: C_5  and  N_6
REMARK    4  A    between atoms: N_6  and  C_7
REMARK    5  A    between atoms: C_7  and  C_8
REMARK    6  A    between atoms: C_11  and  C_12
REMARK    7  A    between atoms: N_14  and  C_15
REMARK    8  A    between atoms: C_20  and  N_21
REMARK    9  A    between atoms: C_25  and  O_26
REMARK   10  A    between atoms: O_26  and  C_27
REMARK   11  A    between atoms: C_28  and  O_29
REMARK   12  A    between atoms: O_29  and  C_30
REMARK                            x       y       z     vdW  Elec       q    Type
REMARK                         _______ _______ _______ _____ _____    ______ ____
ROOT
ATOM      1  C   UNL     1       0.871   9.687  19.771  0.00  0.00    +0.000 A 
ATOM      2  C   UNL     1       1.266   9.701  18.426  0.00  0.00    +0.000 A 
ATOM      3  C   UNL     1       2.011   8.648  17.903  0.00  0.00    +0.000 A 
ATOM      4  C   UNL     1       2.363   7.564  18.715  0.00  0.00    +0.000 A 
ATOM      5  C   UNL     1       1.982   7.537  20.057  0.00  0.00    +0.000 A 
ATOM      6  C   UNL     1       1.234   8.602  20.583  0.00  0.00    +0.000 A 
ENDROOT
BRANCH   4   7
ATOM      7  C   UNL     1       3.258   6.542  18.118  0.00  0.00    +0.000 C 
ATOM      8  O   UNL     1       2.963   5.373  18.344  0.00  0.00    +0.000 OA
ATOM      9  N   UNL     1       4.358   6.993  17.407  0.00  0.00    +0.000 N 
ATOM     10  H   UNL     1       4.628   7.959  17.521  0.00  0.00    +0.000 HD
BRANCH   9  11
ATOM     11  C   UNL     1       5.303   6.149  16.763  0.00  0.00    +0.000 A 
ATOM     12  C   UNL     1       5.286   5.955  15.371  0.00  0.00    +0.000 A 
ATOM     13  C   UNL     1       6.150   5.055  14.751  0.00  0.00    +0.000 A 
ATOM     14  C   UNL     1       7.055   4.334  15.514  0.00  0.00    +0.000 A 
ATOM     15  C   UNL     1       7.110   4.536  16.894  0.00  0.00    +0.000 A 
ATOM     16  C   UNL     1       6.283   5.478  17.531  0.00  0.00    +0.000 A 
BRANCH  16  17
ATOM     17  N   UNL     1       6.317   5.548  18.941  0.00  0.00    +0.000 N 
ATOM     18  H   UNL     1       6.898   4.819  19.350  0.00  0.00    +0.000 HD
ATOM     19  H   UNL     1       6.574   6.457  19.300  0.00  0.00    +0.000 HD
ENDBRANCH  16  17
ENDBRANCH   9  11
ENDBRANCH   4   7
BRANCH   1  20
ATOM     20  C   UNL     1       0.098  10.857  20.325  0.00  0.00    +0.000 C 
BRANCH  20  21
ATOM     21  N   UNL     1      -0.444  11.643  19.224  0.00  0.00    +0.000 N 
ATOM     22  H   UNL     1       0.117  11.572  18.379  0.00  0.00    +0.000 HD
BRANCH  21  25
ATOM     23  C   UNL     1      -4.102  12.346  19.454  0.00  0.00    +0.000 A 
ATOM     24  C   UNL     1      -2.748  12.224  19.807  0.00  0.00    +0.000 A 
ATOM     25  C   UNL     1      -1.818  11.605  18.977  0.00  0.00    +0.000 A 
ATOM     26  C   UNL     1      -2.293  11.066  17.782  0.00  0.00    +0.000 A 
ATOM     27  C   UNL     1      -3.660  11.075  17.447  0.00  0.00    +0.000 A 
ATOM     28  C   UNL     1      -4.590  11.723  18.288  0.00  0.00    +0.000 A 
BRANCH  23  30
ATOM     29  C   UNL     1      -4.467  13.307  21.595  0.00  0.00    +0.000 C 
ATOM     30  O   UNL     1      -4.951  13.045  20.275  0.00  0.00    +0.000 OA
ENDBRANCH  23  30
BRANCH  27  31
ATOM     31  O   UNL     1      -3.884  10.422  16.257  0.00  0.00    +0.000 OA
ATOM     32  C   UNL     1      -3.112  10.759  15.116  0.00  0.00    +0.000 C 
ENDBRANCH  27  31
BRANCH  28  33
ATOM     33  O   UNL     1      -5.898  11.686  17.891  0.00  0.00    +0.000 OA
ATOM     34  C   UNL     1      -6.456  12.751  17.140  0.00  0.00    +0.000 C 
ENDBRANCH  28  33
ENDBRANCH  21  25
ENDBRANCH  20  21
ENDBRANCH   1  20
TORSDOF 9
ENDMDL
MODEL 2
REMARK VINA RESULT:      -7.6      0.560      2.568
REMARK  Name = 
REMARK  12 active torsions:
REMARK  status: ('A' for Active; 'I' for Inactive)
REMARK    1  A    between atoms: C_1  and  O_2
REMARK    2  A    between atoms: O_2  and  C_3
REMARK    3  A    between atoms: C_5  and  N_6
REMARK    4  A    between atoms: N_6  and  C_7
REMARK    5  A    between atoms: C_7  and  C_8
REMARK    6  A    between atoms: C_11  and  C_12
REMARK    7  A    between atoms: N_14  and  C_15
REMARK    8  A    between atoms: C_20  and  N_21
REMARK    9  A    between atoms: C_25  and  O_26
REMARK   10  A    between atoms: O_26  and  C_27
REMARK   11  A    between atoms: C_28  and  O_29
REMARK   12  A    between atoms: O_29  and  C_30
REMARK                            x       y       z     vdW  Elec       q    Type
REMARK                         _______ _______ _______ _____ _____    ______ ____
ROOT
ATOM      1  C   UNL     1       0.668   9.590  19.839  0.00  0.00    +0.000 A 
ATOM      2  C   UNL     1       1.190   8.495  20.541  0.00  0.00    +0.000 A 
ATOM      3  C   UNL     1       2.044   7.599  19.906  0.00  0.00    +0.000 A 
ATOM      4  C   UNL     1       2.393   7.789  18.564  0.00  0.00    +0.000 A 
ATOM      5  C   UNL     1       1.877   8.872  17.850  0.00  0.00    +0.000 A 
ATOM      6  C   UNL     1       1.013   9.772  18.492  0.00  0.00    +0.000 A 
ENDROOT
BRANCH   4   7
ATOM      7  C   UNL     1       3.209   6.727  17.926  0.00  0.00    +0.000 C 
ATOM      8  O   UNL     1       2.700   5.611  17.883  0.00  0.00    +0.000 OA
ATOM      9  N   UNL     1       4.475   7.073  17.483  0.00  0.00    +0.000 N 
ATOM     10  H   UNL     1       4.868   7.943  17.815  0.00  0.00    +0.000 HD
BRANCH   9  11
ATOM     11  C   UNL     1       5.377   6.182  16.842  0.00  0.00    +0.000 A 
ATOM     12  C   UNL     1       5.332   5.965  15.454  0.00  0.00    +0.000 A 
ATOM     13  C   UNL     1       6.151   5.021  14.838  0.00  0.00    +0.000 A 
ATOM     14  C   UNL     1       7.038   4.277  15.600  0.00  0.00    +0.000 A 
ATOM     15  C   UNL     1       7.121   4.500  16.976  0.00  0.00    +0.000 A 
ATOM     16  C   UNL     1       6.340   5.485  17.607  0.00  0.00    +0.000 A 
BRANCH  16  17
ATOM     17  N   UNL     1       6.398   5.577  19.016  0.00  0.00    +0.000 N 
ATOM     18  H   UNL     1       5.878   6.376  19.373  0.00  0.00    +0.000 HD
ATOM     19  H   UNL     1       6.127   4.729  19.493  0.00  0.00    +0.000 HD
ENDBRANCH  16  17
ENDBRANCH   9  11
ENDBRANCH   4   7
BRANCH   1  20
ATOM     20  C   UNL     1      -0.286  10.527  20.537  0.00  0.00    +0.000 C 
BRANCH  20  21
ATOM     21  N   UNL     1      -0.569  11.662  19.670  0.00  0.00    +0.000 N 
ATOM     22  H   UNL     1       0.150  11.808  18.967  0.00  0.00    +0.000 HD
BRANCH  21  25
ATOM     23  C   UNL     1      -3.584  11.399  17.486  0.00  0.00    +0.000 A 
ATOM     24  C   UNL     1      -2.243  11.403  17.904  0.00  0.00    +0.000 A 
ATOM     25  C   UNL     1      -1.865  11.829  19.174  0.00  0.00    +0.000 A 
ATOM     26  C   UNL     1      -2.874  12.294  20.015  0.00  0.00    +0.000 A 
ATOM     27  C   UNL     1      -4.212  12.405  19.591  0.00  0.00    +0.000 A 
ATOM     28  C   UNL     1      -4.586  11.952  18.308  0.00  0.00    +0.000 A 
BRANCH  23  30
ATOM     29  C   UNL     1      -3.044   9.850  15.770  0.00  0.00    +0.000 C 
ATOM     30  O   UNL     1      -3.902  10.885  16.253  0.00  0.00    +0.000 OA
ENDBRANCH  23  30
BRANCH  27  31
ATOM     31  O   UNL     1      -5.000  12.957  20.574  0.00  0.00    +0.000 OA
ATOM     32  C   UNL     1      -4.824  14.317  20.933  0.00  0.00    +0.000 C 
ENDBRANCH  27  31
BRANCH  28  33
ATOM     33  O   UNL     1      -5.904  12.097  17.972  0.00  0.00    +0.000 OA
ATOM     34  C   UNL     1      -6.846  11.089  18.299  0.00  0.00    +0.000 C 
ENDBRANCH  28  33
ENDBRANCH  21  25
ENDBRANCH  20  21
ENDBRANCH   1  20
TORSDOF 9
ENDMDL
MODEL 3
REMARK VINA RESULT:      -7.6      7.670     10.280
REMARK  Name = 
REMARK  12 active torsions:
REMARK  status: ('A' for Active; 'I' for Inactive)
REMARK    1  A    between atoms: C_1  and  O_2
REMARK    2  A    between atoms: O_2  and  C_3
REMARK    3  A    between atoms: C_5  and  N_6
REMARK    4  A    between atoms: N_6  and  C_7
REMARK    5  A    between atoms: C_7  and  C_8
REMARK    6  A    between atoms: C_11  and  C_12
REMARK    7  A    between atoms: N_14  and  C_15
REMARK    8  A    between atoms: C_20  and  N_21
REMARK    9  A    between atoms: C_25  and  O_26
REMARK   10  A    between atoms: O_26  and  C_27
REMARK   11  A    between atoms: C_28  and  O_29
REMARK   12  A    between atoms: O_29  and  C_30
REMARK                            x       y       z     vdW  Elec       q    Type
REMARK                         _______ _______ _______ _____ _____    ______ ____
ROOT
ATOM      1  C   UNL     1       7.812   7.858  17.974  0.00  0.00    +0.000 A 
ATOM      2  C   UNL     1       8.129   6.842  18.886  0.00  0.00    +0.000 A 
ATOM      3  C   UNL     1       7.244   5.790  19.098  0.00  0.00    +0.000 A 
ATOM      4  C   UNL     1       6.034   5.735  18.397  0.00  0.00    +0.000 A 
ATOM      5  C   UNL     1       5.701   6.742  17.489  0.00  0.00    +0.000 A 
ATOM      6  C   UNL     1       6.594   7.804  17.279  0.00  0.00    +0.000 A 
ENDROOT
BRANCH   4   7
ATOM      7  C   UNL     1       5.093   4.649  18.766  0.00  0.00    +0.000 C 
ATOM      8  O   UNL     1       5.605   3.577  19.075  0.00  0.00    +0.000 OA
ATOM      9  N   UNL     1       3.737   4.924  18.686  0.00  0.00    +0.000 N 
ATOM     10  H   UNL     1       3.453   5.745  18.171  0.00  0.00    +0.000 HD
BRANCH   9  11
ATOM     11  C   UNL     1       2.707   4.002  19.015  0.00  0.00    +0.000 A 
ATOM     12  C   UNL     1       2.289   3.014  18.106  0.00  0.00    +0.000 A 
ATOM     13  C   UNL     1       1.216   2.172  18.390  0.00  0.00    +0.000 A 
ATOM     14  C   UNL     1       0.542   2.299  19.594  0.00  0.00    +0.000 A 
ATOM     15  C   UNL     1       0.962   3.252  20.524  0.00  0.00    +0.000 A 
ATOM     16  C   UNL     1       2.075   4.075  20.278  0.00  0.00    +0.000 A 
BRANCH  16  17
ATOM     17  N   UNL     1       2.372   5.089  21.215  0.00  0.00    +0.000 N 
ATOM     18  H   UNL     1       1.579   5.705  21.382  0.00  0.00    +0.000 HD
ATOM     19  H   UNL     1       2.750   4.744  22.086  0.00  0.00    +0.000 HD
ENDBRANCH  16  17
ENDBRANCH   9  11
ENDBRANCH   4   7
BRANCH   1  20
ATOM     20  C   UNL     1       8.769   9.008  17.789  0.00  0.00    +0.000 C 
BRANCH  20  21
ATOM     21  N   UNL     1       9.233   9.465  19.091  0.00  0.00    +0.000 N 
ATOM     22  H   UNL     1       9.991   8.897  19.460  0.00  0.00    +0.000 HD
BRANCH  21  25
ATOM     23  C   UNL     1       9.720  12.751  20.793  0.00  0.00    +0.000 A 
ATOM     24  C   UNL     1       9.345  11.417  20.562  0.00  0.00    +0.000 A 
ATOM     25  C   UNL     1       9.420  10.834  19.302  0.00  0.00    +0.000 A 
ATOM     26  C   UNL     1       9.852  11.644  18.252  0.00  0.00    +0.000 A 
ATOM     27  C   UNL     1      10.133  13.012  18.427  0.00  0.00    +0.000 A 
ATOM     28  C   UNL     1      10.070  13.586  19.714  0.00  0.00    +0.000 A 
BRANCH  23  30
ATOM     29  C   UNL     1       8.427  13.638  22.577  0.00  0.00    +0.000 C 
ATOM     30  O   UNL     1       9.706  13.241  22.076  0.00  0.00    +0.000 OA
ENDBRANCH  23  30
BRANCH  27  31
ATOM     31  O   UNL     1      10.468  13.606  17.233  0.00  0.00    +0.000 OA
ATOM     32  C   UNL     1      11.738  13.353  16.655  0.00  0.00    +0.000 C 
ENDBRANCH  27  31
BRANCH  28  33
ATOM     33  O   UNL     1      10.357  14.922  19.799  0.00  0.00    +0.000 OA
ATOM     34  C   UNL     1      11.691  15.363  19.985  0.00  0.00    +0.000 C 
ENDBRANCH  28  33
ENDBRANCH  21  25
ENDBRANCH  20  21
ENDBRANCH   1  20
TORSDOF 9
ENDMDL
MODEL 4
REMARK VINA RESULT:      -7.5      7.698     10.460
REMARK  Name = 
REMARK  12 active torsions:
REMARK  status: ('A' for Active; 'I' for Inactive)
REMARK    1  A    between atoms: C_1  and  O_2
REMARK    2  A    between atoms: O_2  and  C_3
REMARK    3  A    between atoms: C_5  and  N_6
REMARK    4  A    between atoms: N_6  and  C_7
REMARK    5  A    between atoms: C_7  and  C_8
REMARK    6  A    between atoms: C_11  and  C_12
REMARK    7  A    between atoms: N_14  and  C_15
REMARK    8  A    between atoms: C_20  and  N_21
REMARK    9  A    between atoms: C_25  and  O_26
REMARK   10  A    between atoms: O_26  and  C_27
REMARK   11  A    between atoms: C_28  and  O_29
REMARK   12  A    between atoms: O_29  and  C_30
REMARK                            x       y       z     vdW  Elec       q    Type
REMARK                         _______ _______ _______ _____ _____    ______ ____
ROOT
ATOM      1  C   UNL     1       7.810   7.835  18.017  0.00  0.00    +0.000 A 
ATOM      2  C   UNL     1       8.118   6.813  18.925  0.00  0.00    +0.000 A 
ATOM      3  C   UNL     1       7.233   5.757  19.119  0.00  0.00    +0.000 A 
ATOM      4  C   UNL     1       6.032   5.705  18.402  0.00  0.00    +0.000 A 
ATOM      5  C   UNL     1       5.708   6.717  17.498  0.00  0.00    +0.000 A 
ATOM      6  C   UNL     1       6.601   7.782  17.307  0.00  0.00    +0.000 A 
ENDROOT
BRANCH   4   7
ATOM      7  C   UNL     1       5.089   4.614  18.752  0.00  0.00    +0.000 C 
ATOM      8  O   UNL     1       5.597   3.524  18.998  0.00  0.00    +0.000 OA
ATOM      9  N   UNL     1       3.735   4.907  18.726  0.00  0.00    +0.000 N 
ATOM     10  H   UNL     1       3.446   5.752  18.256  0.00  0.00    +0.000 HD
BRANCH   9  11
ATOM     11  C   UNL     1       2.704   3.982  19.045  0.00  0.00    +0.000 A 
ATOM     12  C   UNL     1       2.275   3.014  18.121  0.00  0.00    +0.000 A 
ATOM     13  C   UNL     1       1.201   2.171  18.397  0.00  0.00    +0.000 A 
ATOM     14  C   UNL     1       0.537   2.276  19.609  0.00  0.00    +0.000 A 
ATOM     15  C   UNL     1       0.968   3.209  20.554  0.00  0.00    +0.000 A 
ATOM     16  C   UNL     1       2.083   4.033  20.314  0.00  0.00    +0.000 A 
BRANCH  16  17
ATOM     17  N   UNL     1       2.392   5.028  21.269  0.00  0.00    +0.000 N 
ATOM     18  H   UNL     1       2.752   5.877  20.839  0.00  0.00    +0.000 HD
ATOM     19  H   UNL     1       1.632   5.238  21.901  0.00  0.00    +0.000 HD
ENDBRANCH  16  17
ENDBRANCH   9  11
ENDBRANCH   4   7
BRANCH   1  20
ATOM     20  C   UNL     1       8.767   8.988  17.852  0.00  0.00    +0.000 C 
BRANCH  20  21
ATOM     21  N   UNL     1       9.231   9.422  19.162  0.00  0.00    +0.000 N 
ATOM     22  H   UNL     1       9.905   8.781  19.573  0.00  0.00    +0.000 HD
BRANCH  21  25
ATOM     23  C   UNL     1      10.065  12.994  18.470  0.00  0.00    +0.000 A 
ATOM     24  C   UNL     1       9.918  11.607  18.301  0.00  0.00    +0.000 A 
ATOM     25  C   UNL     1       9.565  10.765  19.352  0.00  0.00    +0.000 A 
ATOM     26  C   UNL     1       9.398  11.351  20.606  0.00  0.00    +0.000 A 
ATOM     27  C   UNL     1       9.642  12.718  20.833  0.00  0.00    +0.000 A 
ATOM     28  C   UNL     1       9.981  13.564  19.756  0.00  0.00    +0.000 A 
BRANCH  23  30
ATOM     29  C   UNL     1      11.448  13.386  16.580  0.00  0.00    +0.000 C 
ATOM     30  O   UNL     1      10.329  13.780  17.376  0.00  0.00    +0.000 OA
ENDBRANCH  23  30
BRANCH  27  31
ATOM     31  O   UNL     1       9.479  13.038  22.161  0.00  0.00    +0.000 OA
ATOM     32  C   UNL     1       8.191  13.381  22.647  0.00  0.00    +0.000 C 
ENDBRANCH  27  31
BRANCH  28  33
ATOM     33  O   UNL     1      10.203  14.879  20.061  0.00  0.00    +0.000 OA
ATOM     34  C   UNL     1      11.524  15.370  20.219  0.00  0.00    +0.000 C 
ENDBRANCH  28  33
ENDBRANCH  21  25
ENDBRANCH  20  21
ENDBRANCH   1  20
TORSDOF 9
ENDMDL
MODEL 5
REMARK VINA RESULT:      -7.5      3.567     10.849
REMARK  Name = 
REMARK  12 active torsions:
REMARK  status: ('A' for Active; 'I' for Inactive)
REMARK    1  A    between atoms: C_1  and  O_2
REMARK    2  A    between atoms: O_2  and  C_3
REMARK    3  A    between atoms: C_5  and  N_6
REMARK    4  A    between atoms: N_6  and  C_7
REMARK    5  A    between atoms: C_7  and  C_8
REMARK    6  A    between atoms: C_11  and  C_12
REMARK    7  A    between atoms: N_14  and  C_15
REMARK    8  A    between atoms: C_20  and  N_21
REMARK    9  A    between atoms: C_25  and  O_26
REMARK   10  A    between atoms: O_26  and  C_27
REMARK   11  A    between atoms: C_28  and  O_29
REMARK   12  A    between atoms: O_29  and  C_30
REMARK                            x       y       z     vdW  Elec       q    Type
REMARK                         _______ _______ _______ _____ _____    ______ ____
ROOT
ATOM      1  C   UNL     1       1.323   9.150  19.235  0.00  0.00    +0.000 A 
ATOM      2  C   UNL     1       1.250   8.648  20.541  0.00  0.00    +0.000 A 
ATOM      3  C   UNL     1       0.571   9.357  21.527  0.00  0.00    +0.000 A 
ATOM      4  C   UNL     1      -0.049  10.573  21.219  0.00  0.00    +0.000 A 
ATOM      5  C   UNL     1       0.019  11.089  19.924  0.00  0.00    +0.000 A 
ATOM      6  C   UNL     1       0.707  10.373  18.932  0.00  0.00    +0.000 A 
ENDROOT
BRANCH   4   7
ATOM      7  C   UNL     1      -0.647  11.326  22.348  0.00  0.00    +0.000 C 
ATOM      8  O   UNL     1      -0.589  10.783  23.447  0.00  0.00    +0.000 OA
ATOM      9  N   UNL     1      -1.252  12.539  22.059  0.00  0.00    +0.000 N 
ATOM     10  H   UNL     1      -1.463  12.741  21.092  0.00  0.00    +0.000 HD
BRANCH   9  11
ATOM     11  C   UNL     1      -1.859  13.388  23.023  0.00  0.00    +0.000 A 
ATOM     12  C   UNL     1      -1.109  14.331  23.747  0.00  0.00    +0.000 A 
ATOM     13  C   UNL     1      -1.684  15.096  24.760  0.00  0.00    +0.000 A 
ATOM     14  C   UNL     1      -3.027  14.936  25.064  0.00  0.00    +0.000 A 
ATOM     15  C   UNL     1      -3.797  14.028  24.335  0.00  0.00    +0.000 A 
ATOM     16  C   UNL     1      -3.247  13.285  23.276  0.00  0.00    +0.000 A 
BRANCH  16  17
ATOM     17  N   UNL     1      -4.058  12.307  22.658  0.00  0.00    +0.000 N 
ATOM     18  H   UNL     1      -4.403  11.616  23.320  0.00  0.00    +0.000 HD
ATOM     19  H   UNL     1      -4.815  12.691  22.109  0.00  0.00    +0.000 HD
ENDBRANCH  16  17
ENDBRANCH   9  11
ENDBRANCH   4   7
BRANCH   1  20
ATOM     20  C   UNL     1       2.096   8.382  18.192  0.00  0.00    +0.000 C 
BRANCH  20  21
ATOM     21  N   UNL     1       2.210   6.990  18.603  0.00  0.00    +0.000 N 
ATOM     22  H   UNL     1       1.312   6.513  18.626  0.00  0.00    +0.000 HD
BRANCH  21  25
ATOM     23  C   UNL     1       4.079   4.070  17.221  0.00  0.00    +0.000 A 
ATOM     24  C   UNL     1       3.132   4.825  17.932  0.00  0.00    +0.000 A 
ATOM     25  C   UNL     1       3.234   6.206  18.065  0.00  0.00    +0.000 A 
ATOM     26  C   UNL     1       4.347   6.819  17.492  0.00  0.00    +0.000 A 
ATOM     27  C   UNL     1       5.369   6.082  16.866  0.00  0.00    +0.000 A 
ATOM     28  C   UNL     1       5.245   4.684  16.720  0.00  0.00    +0.000 A 
BRANCH  23  30
ATOM     29  C   UNL     1       3.468   2.003  18.217  0.00  0.00    +0.000 C 
ATOM     30  O   UNL     1       3.876   2.723  17.051  0.00  0.00    +0.000 OA
ENDBRANCH  23  30
BRANCH  27  31
ATOM     31  O   UNL     1       6.389   6.904  16.446  0.00  0.00    +0.000 OA
ATOM     32  C   UNL     1       7.379   7.322  17.372  0.00  0.00    +0.000 C 
ENDBRANCH  27  31
BRANCH  28  33
ATOM     33  O   UNL     1       6.282   4.042  16.101  0.00  0.00    +0.000 OA
ATOM     34  C   UNL     1       6.312   3.914  14.690  0.00  0.00    +0.000 C 
ENDBRANCH  28  33
ENDBRANCH  21  25
ENDBRANCH  20  21
ENDBRANCH   1  20
TORSDOF 9
ENDMDL
MODEL 6
REMARK VINA RESULT:      -7.4      2.211      2.487
REMARK  Name = 
REMARK  12 active torsions:
REMARK  status: ('A' for Active; 'I' for Inactive)
REMARK    1  A    between atoms: C_1  and  O_2
REMARK    2  A    between atoms: O_2  and  C_3
REMARK    3  A    between atoms: C_5  and  N_6
REMARK    4  A    between atoms: N_6  and  C_7
REMARK    5  A    between atoms: C_7  and  C_8
REMARK    6  A    between atoms: C_11  and  C_12
REMARK    7  A    between atoms: N_14  and  C_15
REMARK    8  A    between atoms: C_20  and  N_21
REMARK    9  A    between atoms: C_25  and  O_26
REMARK   10  A    between atoms: O_26  and  C_27
REMARK   11  A    between atoms: C_28  and  O_29
REMARK   12  A    between atoms: O_29  and  C_30
REMARK                            x       y       z     vdW  Elec       q    Type
REMARK                         _______ _______ _______ _____ _____    ______ ____
ROOT
ATOM      1  C   UNL     1       0.989  10.406  19.118  0.00  0.00    +0.000 A 
ATOM      2  C   UNL     1       1.581   9.990  17.918  0.00  0.00    +0.000 A 
ATOM      3  C   UNL     1       2.149   8.723  17.819  0.00  0.00    +0.000 A 
ATOM      4  C   UNL     1       2.127   7.855  18.916  0.00  0.00    +0.000 A 
ATOM      5  C   UNL     1       1.546   8.256  20.120  0.00  0.00    +0.000 A 
ATOM      6  C   UNL     1       0.977   9.535  20.217  0.00  0.00    +0.000 A 
ENDROOT
BRANCH   4   7
ATOM      7  C   UNL     1       2.858   6.572  18.771  0.00  0.00    +0.000 C 
ATOM      8  O   UNL     1       4.059   6.662  18.533  0.00  0.00    +0.000 OA
ATOM      9  N   UNL     1       2.121   5.402  18.868  0.00  0.00    +0.000 N 
ATOM     10  H   UNL     1       1.117   5.472  18.798  0.00  0.00    +0.000 HD
BRANCH   9  11
ATOM     11  C   UNL     1       2.668   4.095  18.765  0.00  0.00    +0.000 A 
ATOM     12  C   UNL     1       3.016   3.541  17.520  0.00  0.00    +0.000 A 
ATOM     13  C   UNL     1       3.462   2.226  17.408  0.00  0.00    +0.000 A 
ATOM     14  C   UNL     1       3.574   1.438  18.543  0.00  0.00    +0.000 A 
ATOM     15  C   UNL     1       3.264   1.979  19.792  0.00  0.00    +0.000 A 
ATOM     16  C   UNL     1       2.863   3.320  19.931  0.00  0.00    +0.000 A 
BRANCH  16  17
ATOM     17  N   UNL     1       2.460   3.764  21.210  0.00  0.00    +0.000 N 
ATOM     18  H   UNL     1       3.251   3.924  21.831  0.00  0.00    +0.000 HD
ATOM     19  H   UNL     1       1.849   4.569  21.190  0.00  0.00    +0.000 HD
ENDBRANCH  16  17
ENDBRANCH   9  11
ENDBRANCH   4   7
BRANCH   1  20
ATOM     20  C   UNL     1       0.414  11.797  19.212  0.00  0.00    +0.000 C 
BRANCH  20  21
ATOM     21  N   UNL     1      -0.381  12.073  18.023  0.00  0.00    +0.000 N 
ATOM     22  H   UNL     1       0.078  11.774  17.166  0.00  0.00    +0.000 HD
BRANCH  21  25
ATOM     23  C   UNL     1      -3.954  11.943  19.092  0.00  0.00    +0.000 A 
ATOM     24  C   UNL     1      -2.555  12.051  19.145  0.00  0.00    +0.000 A 
ATOM     25  C   UNL     1      -1.748  11.790  18.042  0.00  0.00    +0.000 A 
ATOM     26  C   UNL     1      -2.386  11.374  16.874  0.00  0.00    +0.000 A 
ATOM     27  C   UNL     1      -3.775  11.152  16.816  0.00  0.00    +0.000 A 
ATOM     28  C   UNL     1      -4.583  11.439  17.937  0.00  0.00    +0.000 A 
BRANCH  23  30
ATOM     29  C   UNL     1      -4.778  13.701  20.459  0.00  0.00    +0.000 C 
ATOM     30  O   UNL     1      -4.699  12.300  20.189  0.00  0.00    +0.000 OA
ENDBRANCH  23  30
BRANCH  27  31
ATOM     31  O   UNL     1      -4.151  10.677  15.581  0.00  0.00    +0.000 OA
ATOM     32  C   UNL     1      -3.164  10.189  14.687  0.00  0.00    +0.000 C 
ENDBRANCH  27  31
BRANCH  28  33
ATOM     33  O   UNL     1      -5.923  11.195  17.799  0.00  0.00    +0.000 OA
ATOM     34  C   UNL     1      -6.823  12.251  17.512  0.00  0.00    +0.000 C 
ENDBRANCH  28  33
ENDBRANCH  21  25
ENDBRANCH  20  21
ENDBRANCH   1  20
TORSDOF 9
ENDMDL
MODEL 7
REMARK VINA RESULT:      -7.4      7.048     10.806
REMARK  Name = 
REMARK  12 active torsions:
REMARK  status: ('A' for Active; 'I' for Inactive)
REMARK    1  A    between atoms: C_1  and  O_2
REMARK    2  A    between atoms: O_2  and  C_3
REMARK    3  A    between atoms: C_5  and  N_6
REMARK    4  A    between atoms: N_6  and  C_7
REMARK    5  A    between atoms: C_7  and  C_8
REMARK    6  A    between atoms: C_11  and  C_12
REMARK    7  A    between atoms: N_14  and  C_15
REMARK    8  A    between atoms: C_20  and  N_21
REMARK    9  A    between atoms: C_25  and  O_26
REMARK   10  A    between atoms: O_26  and  C_27
REMARK   11  A    between atoms: C_28  and  O_29
REMARK   12  A    between atoms: O_29  and  C_30
REMARK                            x       y       z     vdW  Elec       q    Type
REMARK                         _______ _______ _______ _____ _____    ______ ____
ROOT
ATOM      1  C   UNL     1       8.583   9.427  18.411  0.00  0.00    +0.000 A 
ATOM      2  C   UNL     1       9.378   9.882  19.472  0.00  0.00    +0.000 A 
ATOM      3  C   UNL     1       9.670  11.237  19.597  0.00  0.00    +0.000 A 
ATOM      4  C   UNL     1       9.166  12.154  18.668  0.00  0.00    +0.000 A 
ATOM      5  C   UNL     1       8.377  11.716  17.604  0.00  0.00    +0.000 A 
ATOM      6  C   UNL     1       8.087  10.349  17.478  0.00  0.00    +0.000 A 
ENDROOT
BRANCH   4   7
ATOM      7  C   UNL     1       9.620  13.561  18.801  0.00  0.00    +0.000 C 
ATOM      8  O   UNL     1      10.412  13.786  19.711  0.00  0.00    +0.000 OA
ATOM      9  N   UNL     1       9.082  14.491  17.926  0.00  0.00    +0.000 N 
ATOM     10  H   UNL     1       8.255  14.228  17.410  0.00  0.00    +0.000 HD
BRANCH   9  11
ATOM     11  C   UNL     1       9.418  15.872  17.911  0.00  0.00    +0.000 A 
ATOM     12  C   UNL     1       8.703  16.809  18.677  0.00  0.00    +0.000 A 
ATOM     13  C   UNL     1       8.969  18.174  18.589  0.00  0.00    +0.000 A 
ATOM     14  C   UNL     1       9.962  18.628  17.736  0.00  0.00    +0.000 A 
ATOM     15  C   UNL     1      10.705  17.711  16.991  0.00  0.00    +0.000 A 
ATOM     16  C   UNL     1      10.487  16.326  17.105  0.00  0.00    +0.000 A 
BRANCH  16  17
ATOM     17  N   UNL     1      11.200  15.467  16.240  0.00  0.00    +0.000 N 
ATOM     18  H   UNL     1      11.315  14.534  16.630  0.00  0.00    +0.000 HD
ATOM     19  H   UNL     1      10.821  15.422  15.304  0.00  0.00    +0.000 HD
ENDBRANCH  16  17
ENDBRANCH   9  11
ENDBRANCH   4   7
BRANCH   1  20
ATOM     20  C   UNL     1       8.311   7.950  18.275  0.00  0.00    +0.000 C 
BRANCH  20  21
ATOM     21  N   UNL     1       7.503   7.716  17.086  0.00  0.00    +0.000 N 
ATOM     22  H   UNL     1       8.051   7.725  16.230  0.00  0.00    +0.000 HD
BRANCH  21  25
ATOM     23  C   UNL     1       4.331   5.864  17.746  0.00  0.00    +0.000 A 
ATOM     24  C   UNL     1       5.378   6.791  17.872  0.00  0.00    +0.000 A 
ATOM     25  C   UNL     1       6.540   6.704  17.111  0.00  0.00    +0.000 A 
ATOM     26  C   UNL     1       6.645   5.625  16.234  0.00  0.00    +0.000 A 
ATOM     27  C   UNL     1       5.663   4.620  16.160  0.00  0.00    +0.000 A 
ATOM     28  C   UNL     1       4.481   4.730  16.923  0.00  0.00    +0.000 A 
BRANCH  23  30
ATOM     29  C   UNL     1       2.502   7.297  18.239  0.00  0.00    +0.000 C 
ATOM     30  O   UNL     1       3.174   6.055  18.461  0.00  0.00    +0.000 OA
ENDBRANCH  23  30
BRANCH  27  31
ATOM     31  O   UNL     1       6.029   3.631  15.278  0.00  0.00    +0.000 OA
ATOM     32  C   UNL     1       6.232   3.951  13.911  0.00  0.00    +0.000 C 
ENDBRANCH  27  31
BRANCH  28  33
ATOM     33  O   UNL     1       3.577   3.711  16.796  0.00  0.00    +0.000 OA
ATOM     34  C   UNL     1       3.487   2.698  17.784  0.00  0.00    +0.000 C 
ENDBRANCH  28  33
ENDBRANCH  21  25
ENDBRANCH  20  21
ENDBRANCH   1  20
TORSDOF 9
ENDMDL
MODEL 8
REMARK VINA RESULT:      -7.4      3.561     10.522
REMARK  Name = 
REMARK  12 active torsions:
REMARK  status: ('A' for Active; 'I' for Inactive)
REMARK    1  A    between atoms: C_1  and  O_2
REMARK    2  A    between atoms: O_2  and  C_3
REMARK    3  A    between atoms: C_5  and  N_6
REMARK    4  A    between atoms: N_6  and  C_7
REMARK    5  A    between atoms: C_7  and  C_8
REMARK    6  A    between atoms: C_11  and  C_12
REMARK    7  A    between atoms: N_14  and  C_15
REMARK    8  A    between atoms: C_20  and  N_21
REMARK    9  A    between atoms: C_25  and  O_26
REMARK   10  A    between atoms: O_26  and  C_27
REMARK   11  A    between atoms: C_28  and  O_29
REMARK   12  A    between atoms: O_29  and  C_30
REMARK                            x       y       z     vdW  Elec       q    Type
REMARK                         _______ _______ _______ _____ _____    ______ ____
ROOT
ATOM      1  C   UNL     1       1.325   9.361  18.970  0.00  0.00    +0.000 A 
ATOM      2  C   UNL     1       0.985  10.719  18.903  0.00  0.00    +0.000 A 
ATOM      3  C   UNL     1       0.415  11.354  20.002  0.00  0.00    +0.000 A 
ATOM      4  C   UNL     1       0.184  10.641  21.185  0.00  0.00    +0.000 A 
ATOM      5  C   UNL     1       0.513   9.287  21.266  0.00  0.00    +0.000 A 
ATOM      6  C   UNL     1       1.085   8.649  20.154  0.00  0.00    +0.000 A 
ENDROOT
BRANCH   4   7
ATOM      7  C   UNL     1      -0.536  11.355  22.268  0.00  0.00    +0.000 C 
ATOM      8  O   UNL     1      -0.504  10.824  23.374  0.00  0.00    +0.000 OA
ATOM      9  N   UNL     1      -1.209  12.517  21.929  0.00  0.00    +0.000 N 
ATOM     10  H   UNL     1      -1.375  12.696  20.950  0.00  0.00    +0.000 HD
BRANCH   9  11
ATOM     11  C   UNL     1      -1.935  13.325  22.846  0.00  0.00    +0.000 A 
ATOM     12  C   UNL     1      -1.283  14.221  23.711  0.00  0.00    +0.000 A 
ATOM     13  C   UNL     1      -1.984  14.942  24.676  0.00  0.00    +0.000 A 
ATOM     14  C   UNL     1      -3.356  14.784  24.790  0.00  0.00    +0.000 A 
ATOM     15  C   UNL     1      -4.027  13.924  23.919  0.00  0.00    +0.000 A 
ATOM     16  C   UNL     1      -3.344  13.228  22.906  0.00  0.00    +0.000 A 
BRANCH  16  17
ATOM     17  N   UNL     1      -4.071  12.293  22.136  0.00  0.00    +0.000 N 
ATOM     18  H   UNL     1      -3.669  11.359  22.181  0.00  0.00    +0.000 HD
ATOM     19  H   UNL     1      -5.060  12.270  22.346  0.00  0.00    +0.000 HD
ENDBRANCH  16  17
ENDBRANCH   9  11
ENDBRANCH   4   7
BRANCH   1  20
ATOM     20  C   UNL     1       1.907   8.686  17.753  0.00  0.00    +0.000 C 
BRANCH  20  21
ATOM     21  N   UNL     1       3.082   7.919  18.142  0.00  0.00    +0.000 N 
ATOM     22  H   UNL     1       3.406   8.145  19.079  0.00  0.00    +0.000 HD
BRANCH  21  25
ATOM     23  C   UNL     1       4.305   4.554  17.089  0.00  0.00    +0.000 A 
ATOM     24  C   UNL     1       4.183   5.949  17.197  0.00  0.00    +0.000 A 
ATOM     25  C   UNL     1       3.120   6.550  17.864  0.00  0.00    +0.000 A 
ATOM     26  C   UNL     1       2.145   5.707  18.396  0.00  0.00    +0.000 A 
ATOM     27  C   UNL     1       2.180   4.312  18.213  0.00  0.00    +0.000 A 
ATOM     28  C   UNL     1       3.273   3.713  17.552  0.00  0.00    +0.000 A 
BRANCH  23  30
ATOM     29  C   UNL     1       6.670   4.604  16.878  0.00  0.00    +0.000 C 
ATOM     30  O   UNL     1       5.422   4.020  16.495  0.00  0.00    +0.000 OA
ENDBRANCH  23  30
BRANCH  27  31
ATOM     31  O   UNL     1       1.074   3.711  18.768  0.00  0.00    +0.000 OA
ATOM     32  C   UNL     1       1.010   3.520  20.172  0.00  0.00    +0.000 C 
ENDBRANCH  27  31
BRANCH  28  33
ATOM     33  O   UNL     1       3.230   2.352  17.415  0.00  0.00    +0.000 OA
ATOM     34  C   UNL     1       3.725   1.508  18.441  0.00  0.00    +0.000 C 
ENDBRANCH  28  33
ENDBRANCH  21  25
ENDBRANCH  20  21
ENDBRANCH   1  20
TORSDOF 9
ENDMDL
MODEL 9
REMARK VINA RESULT:      -7.3      4.030     10.577
REMARK  Name = 
REMARK  12 active torsions:
REMARK  status: ('A' for Active; 'I' for Inactive)
REMARK    1  A    between atoms: C_1  and  O_2
REMARK    2  A    between atoms: O_2  and  C_3
REMARK    3  A    between atoms: C_5  and  N_6
REMARK    4  A    between atoms: N_6  and  C_7
REMARK    5  A    between atoms: C_7  and  C_8
REMARK    6  A    between atoms: C_11  and  C_12
REMARK    7  A    between atoms: N_14  and  C_15
REMARK    8  A    between atoms: C_20  and  N_21
REMARK    9  A    between atoms: C_25  and  O_26
REMARK   10  A    between atoms: O_26  and  C_27
REMARK   11  A    between atoms: C_28  and  O_29
REMARK   12  A    between atoms: O_29  and  C_30
REMARK                            x       y       z     vdW  Elec       q    Type
REMARK                         _______ _______ _______ _____ _____    ______ ____
ROOT
ATOM      1  C   UNL     1       1.842   8.491  19.200  0.00  0.00    +0.000 A 
ATOM      2  C   UNL     1       1.265   9.752  18.994  0.00  0.00    +0.000 A 
ATOM      3  C   UNL     1       0.654  10.423  20.049  0.00  0.00    +0.000 A 
ATOM      4  C   UNL     1       0.618   9.847  21.324  0.00  0.00    +0.000 A 
ATOM      5  C   UNL     1       1.184   8.590  21.543  0.00  0.00    +0.000 A 
ATOM      6  C   UNL     1       1.796   7.914  20.477  0.00  0.00    +0.000 A 
ENDROOT
BRANCH   4   7
ATOM      7  C   UNL     1      -0.155  10.568  22.364  0.00  0.00    +0.000 C 
ATOM      8  O   UNL     1      -0.088  10.107  23.500  0.00  0.00    +0.000 OA
ATOM      9  N   UNL     1      -0.911  11.656  21.959  0.00  0.00    +0.000 N 
ATOM     10  H   UNL     1      -1.087  11.764  20.970  0.00  0.00    +0.000 HD
BRANCH   9  11
ATOM     11  C   UNL     1      -1.697  12.461  22.827  0.00  0.00    +0.000 A 
ATOM     12  C   UNL     1      -2.904  11.989  23.373  0.00  0.00    +0.000 A 
ATOM     13  C   UNL     1      -3.722  12.810  24.147  0.00  0.00    +0.000 A 
ATOM     14  C   UNL     1      -3.344  14.119  24.396  0.00  0.00    +0.000 A 
ATOM     15  C   UNL     1      -2.134  14.597  23.891  0.00  0.00    +0.000 A 
ATOM     16  C   UNL     1      -1.270  13.769  23.152  0.00  0.00    +0.000 A 
BRANCH  16  17
ATOM     17  N   UNL     1      -0.118  14.352  22.580  0.00  0.00    +0.000 N 
ATOM     18  H   UNL     1      -0.039  14.157  21.584  0.00  0.00    +0.000 HD
ATOM     19  H   UNL     1      -0.027  15.342  22.762  0.00  0.00    +0.000 HD
ENDBRANCH  16  17
ENDBRANCH   9  11
ENDBRANCH   4   7
BRANCH   1  20
ATOM     20  C   UNL     1       2.465   7.766  18.033  0.00  0.00    +0.000 C 
BRANCH  20  21
ATOM     21  N   UNL     1       1.908   6.423  17.946  0.00  0.00    +0.000 N 
ATOM     22  H   UNL     1       1.458   6.242  17.053  0.00  0.00    +0.000 HD
BRANCH  21  25
ATOM     23  C   UNL     1       4.823   4.291  18.887  0.00  0.00    +0.000 A 
ATOM     24  C   UNL     1       4.048   5.278  18.257  0.00  0.00    +0.000 A 
ATOM     25  C   UNL     1       2.666   5.345  18.408  0.00  0.00    +0.000 A 
ATOM     26  C   UNL     1       2.065   4.358  19.188  0.00  0.00    +0.000 A 
ATOM     27  C   UNL     1       2.797   3.293  19.745  0.00  0.00    +0.000 A 
ATOM     28  C   UNL     1       4.201   3.248  19.600  0.00  0.00    +0.000 A 
BRANCH  23  30
ATOM     29  C   UNL     1       6.825   5.505  19.287  0.00  0.00    +0.000 C 
ATOM     30  O   UNL     1       6.191   4.333  18.769  0.00  0.00    +0.000 OA
ENDBRANCH  23  30
BRANCH  27  31
ATOM     31  O   UNL     1       1.971   2.415  20.407  0.00  0.00    +0.000 OA
ATOM     32  C   UNL     1       1.381   2.799  21.638  0.00  0.00    +0.000 C 
ENDBRANCH  27  31
BRANCH  28  33
ATOM     33  O   UNL     1       4.837   2.180  20.171  0.00  0.00    +0.000 OA
ATOM     34  C   UNL     1       4.820   0.909  19.541  0.00  0.00    +0.000 C 
ENDBRANCH  28  33
ENDBRANCH  21  25
ENDBRANCH  20  21
ENDBRANCH   1  20
TORSDOF 9
ENDMDL
