MODEL 1
REMARK VINA RESULT:      -8.6      0.000      0.000
REMARK  Name = 
REMARK  7 active torsions:
REMARK  status: ('A' for Active; 'I' for Inactive)
REMARK    1  A    between atoms: C_1  and  O_2
REMARK    2  A    between atoms: O_2  and  C_3
REMARK    3  A    between atoms: C_6  and  C_7
REMARK    4  A    between atoms: C_7  and  N_8
REMARK    5  A    between atoms: C_11  and  C_12
REMARK    6  A    between atoms: N_23  and  C_24
REMARK    7  A    between atoms: C_24  and  C_25
REMARK                            x       y       z     vdW  Elec       q    Type
REMARK                         _______ _______ _______ _____ _____    ______ ____
ROOT
ATOM      1  N   UNL     1       3.964   5.566  17.240  0.00  0.00    +0.000 NA
ATOM      2  C   UNL     1       4.271   4.153  16.980  0.00  0.00    +0.000 C 
ATOM      3  C   UNL     1       5.639   3.660  17.549  0.00  0.00    +0.000 C 
ATOM      4  C   UNL     1       6.879   4.315  16.795  0.00  0.00    +0.000 C 
ATOM      5  C   UNL     1       7.309   5.640  17.447  0.00  0.00    +0.000 C 
ATOM      6  C   UNL     1       6.152   6.624  17.595  0.00  0.00    +0.000 C 
ATOM      7  O   UNL     1       6.265   7.786  17.191  0.00  0.00    +0.000 OA
ATOM      8  C   UNL     1       4.860   6.136  18.277  0.00  0.00    +0.000 C 
ATOM      9  C   UNL     1       5.272   5.199  19.441  0.00  0.00    +0.000 C 
ATOM     10  N   UNL     1       5.710   3.828  19.052  0.00  0.00    +0.000 NA
ENDROOT
BRANCH   4  11
ATOM     11  C   UNL     1       6.684   4.424  15.268  0.00  0.00    +0.000 A 
ATOM     12  C   UNL     1       5.734   3.651  14.575  0.00  0.00    +0.000 A 
ATOM     13  C   UNL     1       5.732   3.570  13.182  0.00  0.00    +0.000 A 
ATOM     14  C   UNL     1       6.653   4.297  12.445  0.00  0.00    +0.000 A 
ATOM     15  C   UNL     1       7.534   5.155  13.101  0.00  0.00    +0.000 A 
ATOM     16  C   UNL     1       7.538   5.235  14.501  0.00  0.00    +0.000 A 
ENDBRANCH   4  11
BRANCH   1  17
ATOM     17  C   UNL     1       2.528   5.778  17.502  0.00  0.00    +0.000 C 
BRANCH  17  21
ATOM     18  C   UNL     1       1.534   9.561  19.469  0.00  0.00    +0.000 A 
ATOM     19  C   UNL     1       1.599   8.367  20.188  0.00  0.00    +0.000 A 
ATOM     20  C   UNL     1       1.935   7.158  19.563  0.00  0.00    +0.000 A 
ATOM     21  C   UNL     1       2.191   7.105  18.187  0.00  0.00    +0.000 A 
ATOM     22  C   UNL     1       2.134   8.314  17.470  0.00  0.00    +0.000 A 
ATOM     23  C   UNL     1       1.818   9.534  18.105  0.00  0.00    +0.000 A 
BRANCH  18  25
ATOM     24  C   UNL     1       0.531  10.419  21.468  0.00  0.00    +0.000 C 
ATOM     25  O   UNL     1       1.145  10.641  20.211  0.00  0.00    +0.000 OA
ENDBRANCH  18  25
ENDBRANCH  17  21
ENDBRANCH   1  17
BRANCH  10  26
ATOM     26  C   UNL     1       4.897   2.817  19.775  0.00  0.00    +0.000 C 
BRANCH  26  27
ATOM     27  C   UNL     1       3.383   3.034  19.817  0.00  0.00    +0.000 A 
ATOM     28  C   UNL     1       2.575   2.307  18.917  0.00  0.00    +0.000 A 
ATOM     29  C   UNL     1       1.179   2.397  18.951  0.00  0.00    +0.000 A 
ATOM     30  C   UNL     1       0.556   3.212  19.891  0.00  0.00    +0.000 A 
ATOM     31  C   UNL     1       1.336   3.934  20.796  0.00  0.00    +0.000 A 
ATOM     32  C   UNL     1       2.737   3.840  20.765  0.00  0.00    +0.000 A 
ENDBRANCH  26  27
ENDBRANCH  10  26
TORSDOF 6
ENDMDL
MODEL 2
REMARK VINA RESULT:      -7.3      7.465     10.143
REMARK  Name = 
REMARK  7 active torsions:
REMARK  status: ('A' for Active; 'I' for Inactive)
REMARK    1  A    between atoms: C_1  and  O_2
REMARK    2  A    between atoms: O_2  and  C_3
REMARK    3  A    between atoms: C_6  and  C_7
REMARK    4  A    between atoms: C_7  and  N_8
REMARK    5  A    between atoms: C_11  and  C_12
REMARK    6  A    between atoms: N_23  and  C_24
REMARK    7  A    between atoms: C_24  and  C_25
REMARK                            x       y       z     vdW  Elec       q    Type
REMARK                         _______ _______ _______ _____ _____    ______ ____
ROOT
ATOM      1  N   UNL     1       0.212  13.355  18.969  0.00  0.00    +0.000 NA
ATOM      2  C   UNL     1      -1.153  13.317  19.510  0.00  0.00    +0.000 C 
ATOM      3  C   UNL     1      -1.460  12.102  20.441  0.00  0.00    +0.000 C 
ATOM      4  C   UNL     1      -1.482  10.722  19.648  0.00  0.00    +0.000 C 
ATOM      5  C   UNL     1      -0.089  10.074  19.590  0.00  0.00    +0.000 C 
ATOM      6  C   UNL     1       0.977  11.022  19.048  0.00  0.00    +0.000 C 
ATOM      7  O   UNL     1       1.723  10.663  18.131  0.00  0.00    +0.000 OA
ATOM      8  C   UNL     1       1.109  12.417  19.689  0.00  0.00    +0.000 C 
ATOM      9  C   UNL     1       0.878  12.254  21.213  0.00  0.00    +0.000 C 
ATOM     10  N   UNL     1      -0.538  12.074  21.642  0.00  0.00    +0.000 NA
ENDROOT
BRANCH   4  11
ATOM     11  C   UNL     1      -2.166  10.816  18.268  0.00  0.00    +0.000 A 
ATOM     12  C   UNL     1      -3.345  11.557  18.063  0.00  0.00    +0.000 A 
ATOM     13  C   UNL     1      -4.090  11.439  16.889  0.00  0.00    +0.000 A 
ATOM     14  C   UNL     1      -3.650  10.607  15.871  0.00  0.00    +0.000 A 
ATOM     15  C   UNL     1      -2.430   9.946  16.004  0.00  0.00    +0.000 A 
ATOM     16  C   UNL     1      -1.683  10.063  17.184  0.00  0.00    +0.000 A 
ENDBRANCH   4  11
BRANCH   1  17
ATOM     17  C   UNL     1       0.730  14.732  18.875  0.00  0.00    +0.000 C 
BRANCH  17  21
ATOM     18  C   UNL     1       5.086  15.044  19.167  0.00  0.00    +0.000 A 
ATOM     19  C   UNL     1       4.472  14.568  18.008  0.00  0.00    +0.000 A 
ATOM     20  C   UNL     1       3.077  14.485  17.907  0.00  0.00    +0.000 A 
ATOM     21  C   UNL     1       2.252  14.853  18.978  0.00  0.00    +0.000 A 
ATOM     22  C   UNL     1       2.879  15.342  20.139  0.00  0.00    +0.000 A 
ATOM     23  C   UNL     1       4.283  15.447  20.231  0.00  0.00    +0.000 A 
BRANCH  18  25
ATOM     24  C   UNL     1       7.098  14.966  17.868  0.00  0.00    +0.000 C 
ATOM     25  O   UNL     1       6.453  15.016  19.127  0.00  0.00    +0.000 OA
ENDBRANCH  18  25
ENDBRANCH  17  21
ENDBRANCH   1  17
BRANCH  10  26
ATOM     26  C   UNL     1      -0.891  13.104  22.653  0.00  0.00    +0.000 C 
BRANCH  26  27
ATOM     27  C   UNL     1      -2.372  13.264  23.004  0.00  0.00    +0.000 A 
ATOM     28  C   UNL     1      -2.995  12.252  23.765  0.00  0.00    +0.000 A 
ATOM     29  C   UNL     1      -4.324  12.368  24.188  0.00  0.00    +0.000 A 
ATOM     30  C   UNL     1      -5.060  13.504  23.865  0.00  0.00    +0.000 A 
ATOM     31  C   UNL     1      -4.461  14.520  23.119  0.00  0.00    +0.000 A 
ATOM     32  C   UNL     1      -3.127  14.406  22.699  0.00  0.00    +0.000 A 
ENDBRANCH  26  27
ENDBRANCH  10  26
TORSDOF 6
ENDMDL
MODEL 3
REMARK VINA RESULT:      -7.2      7.838     10.708
REMARK  Name = 
REMARK  7 active torsions:
REMARK  status: ('A' for Active; 'I' for Inactive)
REMARK    1  A    between atoms: C_1  and  O_2
REMARK    2  A    between atoms: O_2  and  C_3
REMARK    3  A    between atoms: C_6  and  C_7
REMARK    4  A    between atoms: C_7  and  N_8
REMARK    5  A    between atoms: C_11  and  C_12
REMARK    6  A    between atoms: N_23  and  C_24
REMARK    7  A    between atoms: C_24  and  C_25
REMARK                            x       y       z     vdW  Elec       q    Type
REMARK                         _______ _______ _______ _____ _____    ______ ____
ROOT
ATOM      1  N   UNL     1      -0.188  12.971  21.617  0.00  0.00    +0.000 NA
ATOM      2  C   UNL     1      -1.092  13.218  20.486  0.00  0.00    +0.000 C 
ATOM      3  C   UNL     1      -0.535  12.795  19.091  0.00  0.00    +0.000 C 
ATOM      4  C   UNL     1       0.683  13.708  18.623  0.00  0.00    +0.000 C 
ATOM      5  C   UNL     1       2.032  13.153  19.111  0.00  0.00    +0.000 C 
ATOM      6  C   UNL     1       2.055  12.906  20.617  0.00  0.00    +0.000 C 
ATOM      7  O   UNL     1       2.972  13.358  21.310  0.00  0.00    +0.000 OA
ATOM      8  C   UNL     1       0.923  12.063  21.236  0.00  0.00    +0.000 C 
ATOM      9  C   UNL     1       0.590  10.924  20.239  0.00  0.00    +0.000 C 
ATOM     10  N   UNL     1      -0.212  11.316  19.045  0.00  0.00    +0.000 NA
ENDROOT
BRANCH   4  11
ATOM     11  C   UNL     1       0.490  15.204  18.944  0.00  0.00    +0.000 A 
ATOM     12  C   UNL     1      -0.682  15.903  18.594  0.00  0.00    +0.000 A 
ATOM     13  C   UNL     1      -0.752  17.294  18.659  0.00  0.00    +0.000 A 
ATOM     14  C   UNL     1       0.334  18.021  19.120  0.00  0.00    +0.000 A 
ATOM     15  C   UNL     1       1.467  17.349  19.575  0.00  0.00    +0.000 A 
ATOM     16  C   UNL     1       1.538  15.951  19.508  0.00  0.00    +0.000 A 
ENDBRANCH   4  11
BRANCH   1  17
ATOM     17  C   UNL     1      -0.920  12.553  22.827  0.00  0.00    +0.000 C 
BRANCH  17  21
ATOM     18  C   UNL     1      -3.465  15.639  24.605  0.00  0.00    +0.000 A 
ATOM     19  C   UNL     1      -2.082  15.803  24.521  0.00  0.00    +0.000 A 
ATOM     20  C   UNL     1      -1.268  14.824  23.935  0.00  0.00    +0.000 A 
ATOM     21  C   UNL     1      -1.816  13.633  23.438  0.00  0.00    +0.000 A 
ATOM     22  C   UNL     1      -3.211  13.481  23.517  0.00  0.00    +0.000 A 
ATOM     23  C   UNL     1      -4.032  14.478  24.086  0.00  0.00    +0.000 A 
BRANCH  18  25
ATOM     24  C   UNL     1      -3.537  17.953  25.221  0.00  0.00    +0.000 C 
ATOM     25  O   UNL     1      -4.111  16.659  25.247  0.00  0.00    +0.000 OA
ENDBRANCH  18  25
ENDBRANCH  17  21
ENDBRANCH   1  17
BRANCH  10  26
ATOM     26  C   UNL     1      -1.430  10.471  18.959  0.00  0.00    +0.000 C 
BRANCH  26  27
ATOM     27  C   UNL     1      -2.314  10.639  17.721  0.00  0.00    +0.000 A 
ATOM     28  C   UNL     1      -1.980   9.920  16.554  0.00  0.00    +0.000 A 
ATOM     29  C   UNL     1      -2.786   9.965  15.411  0.00  0.00    +0.000 A 
ATOM     30  C   UNL     1      -3.951  10.726  15.410  0.00  0.00    +0.000 A 
ATOM     31  C   UNL     1      -4.305  11.439  16.556  0.00  0.00    +0.000 A 
ATOM     32  C   UNL     1      -3.498  11.391  17.705  0.00  0.00    +0.000 A 
ENDBRANCH  26  27
ENDBRANCH  10  26
TORSDOF 6
ENDMDL
MODEL 4
REMARK VINA RESULT:      -7.2      7.187     10.218
REMARK  Name = 
REMARK  7 active torsions:
REMARK  status: ('A' for Active; 'I' for Inactive)
REMARK    1  A    between atoms: C_1  and  O_2
REMARK    2  A    between atoms: O_2  and  C_3
REMARK    3  A    between atoms: C_6  and  C_7
REMARK    4  A    between atoms: C_7  and  N_8
REMARK    5  A    between atoms: C_11  and  C_12
REMARK    6  A    between atoms: N_23  and  C_24
REMARK    7  A    between atoms: C_24  and  C_25
REMARK                            x       y       z     vdW  Elec       q    Type
REMARK                         _______ _______ _______ _____ _____    ______ ____
ROOT
ATOM      1  N   UNL     1       0.439  13.006  18.660  0.00  0.00    +0.000 NA
ATOM      2  C   UNL     1      -0.904  13.129  19.242  0.00  0.00    +0.000 C 
ATOM      3  C   UNL     1      -1.307  11.979  20.218  0.00  0.00    +0.000 C 
ATOM      4  C   UNL     1      -1.501  10.588  19.467  0.00  0.00    +0.000 C 
ATOM      5  C   UNL     1      -0.187   9.793  19.388  0.00  0.00    +0.000 C 
ATOM      6  C   UNL     1       0.955  10.608  18.786  0.00  0.00    +0.000 C 
ATOM      7  O   UNL     1       1.628  10.147  17.858  0.00  0.00    +0.000 OA
ATOM      8  C   UNL     1       1.255  11.997  19.381  0.00  0.00    +0.000 C 
ATOM      9  C   UNL     1       1.057  11.900  20.915  0.00  0.00    +0.000 C 
ATOM     10  N   UNL     1      -0.355  11.884  21.392  0.00  0.00    +0.000 NA
ENDROOT
BRANCH   4  11
ATOM     11  C   UNL     1      -2.217  10.718  18.106  0.00  0.00    +0.000 A 
ATOM     12  C   UNL     1      -3.376  11.498  17.938  0.00  0.00    +0.000 A 
ATOM     13  C   UNL     1      -4.153  11.416  16.783  0.00  0.00    +0.000 A 
ATOM     14  C   UNL     1      -3.765  10.582  15.746  0.00  0.00    +0.000 A 
ATOM     15  C   UNL     1      -2.564   9.881  15.842  0.00  0.00    +0.000 A 
ATOM     16  C   UNL     1      -1.784   9.962  17.003  0.00  0.00    +0.000 A 
ENDBRANCH   4  11
BRANCH   1  17
ATOM     17  C   UNL     1       1.096  14.318  18.510  0.00  0.00    +0.000 C 
BRANCH  17  21
ATOM     18  C   UNL     1      -0.662  17.506  20.939  0.00  0.00    +0.000 A 
ATOM     19  C   UNL     1       0.348  16.686  21.444  0.00  0.00    +0.000 A 
ATOM     20  C   UNL     1       0.924  15.677  20.662  0.00  0.00    +0.000 A 
ATOM     21  C   UNL     1       0.485  15.441  19.352  0.00  0.00    +0.000 A 
ATOM     22  C   UNL     1      -0.525  16.279  18.846  0.00  0.00    +0.000 A 
ATOM     23  C   UNL     1      -1.088  17.309  19.628  0.00  0.00    +0.000 A 
BRANCH  18  25
ATOM     24  C   UNL     1      -0.638  18.402  23.161  0.00  0.00    +0.000 C 
ATOM     25  O   UNL     1      -1.153  18.408  21.842  0.00  0.00    +0.000 OA
ENDBRANCH  18  25
ENDBRANCH  17  21
ENDBRANCH   1  17
BRANCH  10  26
ATOM     26  C   UNL     1      -0.564  12.972  22.381  0.00  0.00    +0.000 C 
BRANCH  26  27
ATOM     27  C   UNL     1      -2.007  13.300  22.770  0.00  0.00    +0.000 A 
ATOM     28  C   UNL     1      -2.743  12.336  23.492  0.00  0.00    +0.000 A 
ATOM     29  C   UNL     1      -4.040  12.597  23.947  0.00  0.00    +0.000 A 
ATOM     30  C   UNL     1      -4.631  13.832  23.698  0.00  0.00    +0.000 A 
ATOM     31  C   UNL     1      -3.918  14.802  22.991  0.00  0.00    +0.000 A 
ATOM     32  C   UNL     1      -2.615  14.542  22.538  0.00  0.00    +0.000 A 
ENDBRANCH  26  27
ENDBRANCH  10  26
TORSDOF 6
ENDMDL
MODEL 5
REMARK VINA RESULT:      -7.1      6.260     12.547
REMARK  Name = 
REMARK  7 active torsions:
REMARK  status: ('A' for Active; 'I' for Inactive)
REMARK    1  A    between atoms: C_1  and  O_2
REMARK    2  A    between atoms: O_2  and  C_3
REMARK    3  A    between atoms: C_6  and  C_7
REMARK    4  A    between atoms: C_7  and  N_8
REMARK    5  A    between atoms: C_11  and  C_12
REMARK    6  A    between atoms: N_23  and  C_24
REMARK    7  A    between atoms: C_24  and  C_25
REMARK                            x       y       z     vdW  Elec       q    Type
REMARK                         _______ _______ _______ _____ _____    ______ ____
ROOT
ATOM      1  N   UNL     1      -2.746  12.126  22.687  0.00  0.00    +0.000 NA
ATOM      2  C   UNL     1      -2.587  12.731  21.358  0.00  0.00    +0.000 C 
ATOM      3  C   UNL     1      -3.374  14.062  21.142  0.00  0.00    +0.000 C 
ATOM      4  C   UNL     1      -4.949  13.836  21.111  0.00  0.00    +0.000 C 
ATOM      5  C   UNL     1      -5.567  13.930  22.516  0.00  0.00    +0.000 C 
ATOM      6  C   UNL     1      -4.881  13.008  23.521  0.00  0.00    +0.000 C 
ATOM      7  O   UNL     1      -5.550  12.240  24.221  0.00  0.00    +0.000 OA
ATOM      8  C   UNL     1      -3.348  13.080  23.651  0.00  0.00    +0.000 C 
ATOM      9  C   UNL     1      -2.937  14.569  23.515  0.00  0.00    +0.000 C 
ATOM     10  N   UNL     1      -2.952  15.126  22.133  0.00  0.00    +0.000 NA
ENDROOT
BRANCH   4  11
ATOM     11  C   UNL     1      -5.375  12.567  20.344  0.00  0.00    +0.000 A 
ATOM     12  C   UNL     1      -4.768  12.181  19.133  0.00  0.00    +0.000 A 
ATOM     13  C   UNL     1      -5.315  11.185  18.325  0.00  0.00    +0.000 A 
ATOM     14  C   UNL     1      -6.460  10.517  18.729  0.00  0.00    +0.000 A 
ATOM     15  C   UNL     1      -7.019  10.803  19.973  0.00  0.00    +0.000 A 
ATOM     16  C   UNL     1      -6.471  11.805  20.785  0.00  0.00    +0.000 A 
ENDBRANCH   4  11
BRANCH   1  17
ATOM     17  C   UNL     1      -1.498  11.498  23.159  0.00  0.00    +0.000 C 
BRANCH  17  21
ATOM     18  C   UNL     1       0.850   9.470  20.070  0.00  0.00    +0.000 A 
ATOM     19  C   UNL     1       0.297   8.763  21.139  0.00  0.00    +0.000 A 
ATOM     20  C   UNL     1      -0.470   9.408  22.118  0.00  0.00    +0.000 A 
ATOM     21  C   UNL     1      -0.685  10.792  22.071  0.00  0.00    +0.000 A 
ATOM     22  C   UNL     1      -0.134  11.496  20.985  0.00  0.00    +0.000 A 
ATOM     23  C   UNL     1       0.618  10.841  19.986  0.00  0.00    +0.000 A 
BRANCH  18  25
ATOM     24  C   UNL     1       2.012   9.255  17.986  0.00  0.00    +0.000 C 
ATOM     25  O   UNL     1       1.611   8.707  19.229  0.00  0.00    +0.000 OA
ENDBRANCH  18  25
ENDBRANCH  17  21
ENDBRANCH   1  17
BRANCH  10  26
ATOM     26  C   UNL     1      -1.624  15.707  21.811  0.00  0.00    +0.000 C 
BRANCH  26  27
ATOM     27  C   UNL     1      -1.452  16.344  20.430  0.00  0.00    +0.000 A 
ATOM     28  C   UNL     1      -2.234  17.474  20.110  0.00  0.00    +0.000 A 
ATOM     29  C   UNL     1      -2.075  18.153  18.897  0.00  0.00    +0.000 A 
ATOM     30  C   UNL     1      -1.124  17.723  17.977  0.00  0.00    +0.000 A 
ATOM     31  C   UNL     1      -0.335  16.611  18.277  0.00  0.00    +0.000 A 
ATOM     32  C   UNL     1      -0.491  15.933  19.496  0.00  0.00    +0.000 A 
ENDBRANCH  26  27
ENDBRANCH  10  26
TORSDOF 6
ENDMDL
MODEL 6
REMARK VINA RESULT:      -7.1      7.824     10.667
REMARK  Name = 
REMARK  7 active torsions:
REMARK  status: ('A' for Active; 'I' for Inactive)
REMARK    1  A    between atoms: C_1  and  O_2
REMARK    2  A    between atoms: O_2  and  C_3
REMARK    3  A    between atoms: C_6  and  C_7
REMARK    4  A    between atoms: C_7  and  N_8
REMARK    5  A    between atoms: C_11  and  C_12
REMARK    6  A    between atoms: N_23  and  C_24
REMARK    7  A    between atoms: C_24  and  C_25
REMARK                            x       y       z     vdW  Elec       q    Type
REMARK                         _______ _______ _______ _____ _____    ______ ____
ROOT
ATOM      1  N   UNL     1      -0.198  12.934  21.625  0.00  0.00    +0.000 NA
ATOM      2  C   UNL     1      -1.110  13.185  20.501  0.00  0.00    +0.000 C 
ATOM      3  C   UNL     1      -0.551  12.790  19.098  0.00  0.00    +0.000 C 
ATOM      4  C   UNL     1       0.652  13.728  18.640  0.00  0.00    +0.000 C 
ATOM      5  C   UNL     1       2.011  13.186  19.115  0.00  0.00    +0.000 C 
ATOM      6  C   UNL     1       2.042  12.916  20.617  0.00  0.00    +0.000 C 
ATOM      7  O   UNL     1       2.955  13.372  21.314  0.00  0.00    +0.000 OA
ATOM      8  C   UNL     1       0.925  12.048  21.227  0.00  0.00    +0.000 C 
ATOM      9  C   UNL     1       0.604  10.920  20.214  0.00  0.00    +0.000 C 
ATOM     10  N   UNL     1      -0.207  11.318  19.029  0.00  0.00    +0.000 NA
ENDROOT
BRANCH   4  11
ATOM     11  C   UNL     1       0.438  15.216  18.983  0.00  0.00    +0.000 A 
ATOM     12  C   UNL     1      -0.641  15.959  18.466  0.00  0.00    +0.000 A 
ATOM     13  C   UNL     1      -0.692  17.349  18.576  0.00  0.00    +0.000 A 
ATOM     14  C   UNL     1       0.314  18.028  19.244  0.00  0.00    +0.000 A 
ATOM     15  C   UNL     1       1.337  17.308  19.859  0.00  0.00    +0.000 A 
ATOM     16  C   UNL     1       1.390  15.912  19.748  0.00  0.00    +0.000 A 
ENDBRANCH   4  11
BRANCH   1  17
ATOM     17  C   UNL     1      -0.920  12.488  22.831  0.00  0.00    +0.000 C 
BRANCH  17  21
ATOM     18  C   UNL     1      -4.515  14.794  23.792  0.00  0.00    +0.000 A 
ATOM     19  C   UNL     1      -3.251  15.384  23.813  0.00  0.00    +0.000 A 
ATOM     20  C   UNL     1      -2.101  14.652  23.488  0.00  0.00    +0.000 A 
ATOM     21  C   UNL     1      -2.182  13.293  23.156  0.00  0.00    +0.000 A 
ATOM     22  C   UNL     1      -3.460  12.708  23.127  0.00  0.00    +0.000 A 
ATOM     23  C   UNL     1      -4.619  13.453  23.432  0.00  0.00    +0.000 A 
BRANCH  18  25
ATOM     24  C   UNL     1      -6.845  15.349  23.746  0.00  0.00    +0.000 C 
ATOM     25  O   UNL     1      -5.527  15.627  24.182  0.00  0.00    +0.000 OA
ENDBRANCH  18  25
ENDBRANCH  17  21
ENDBRANCH   1  17
BRANCH  10  26
ATOM     26  C   UNL     1      -1.414  10.456  18.934  0.00  0.00    +0.000 C 
BRANCH  26  27
ATOM     27  C   UNL     1      -2.302  10.628  17.700  0.00  0.00    +0.000 A 
ATOM     28  C   UNL     1      -1.977   9.905  16.532  0.00  0.00    +0.000 A 
ATOM     29  C   UNL     1      -2.788   9.954  15.393  0.00  0.00    +0.000 A 
ATOM     30  C   UNL     1      -3.949  10.720  15.397  0.00  0.00    +0.000 A 
ATOM     31  C   UNL     1      -4.293  11.437  16.543  0.00  0.00    +0.000 A 
ATOM     32  C   UNL     1      -3.482  11.385  17.688  0.00  0.00    +0.000 A 
ENDBRANCH  26  27
ENDBRANCH  10  26
TORSDOF 6
ENDMDL
MODEL 7
REMARK VINA RESULT:      -7.1      7.837     10.733
REMARK  Name = 
REMARK  7 active torsions:
REMARK  status: ('A' for Active; 'I' for Inactive)
REMARK    1  A    between atoms: C_1  and  O_2
REMARK    2  A    between atoms: O_2  and  C_3
REMARK    3  A    between atoms: C_6  and  C_7
REMARK    4  A    between atoms: C_7  and  N_8
REMARK    5  A    between atoms: C_11  and  C_12
REMARK    6  A    between atoms: N_23  and  C_24
REMARK    7  A    between atoms: C_24  and  C_25
REMARK                            x       y       z     vdW  Elec       q    Type
REMARK                         _______ _______ _______ _____ _____    ______ ____
ROOT
ATOM      1  N   UNL     1      -0.209  12.979  21.590  0.00  0.00    +0.000 NA
ATOM      2  C   UNL     1      -1.156  13.202  20.490  0.00  0.00    +0.000 C 
ATOM      3  C   UNL     1      -0.643  12.770  19.080  0.00  0.00    +0.000 C 
ATOM      4  C   UNL     1       0.546  13.692  18.560  0.00  0.00    +0.000 C 
ATOM      5  C   UNL     1       1.918  13.161  19.005  0.00  0.00    +0.000 C 
ATOM      6  C   UNL     1       1.998  12.931  20.511  0.00  0.00    +0.000 C 
ATOM      7  O   UNL     1       2.933  13.403  21.166  0.00  0.00    +0.000 OA
ATOM      8  C   UNL     1       0.900  12.081  21.180  0.00  0.00    +0.000 C 
ATOM      9  C   UNL     1       0.546  10.927  20.208  0.00  0.00    +0.000 C 
ATOM     10  N   UNL     1      -0.303  11.295  19.039  0.00  0.00    +0.000 NA
ENDROOT
BRANCH   4  11
ATOM     11  C   UNL     1       0.344  15.190  18.870  0.00  0.00    +0.000 A 
ATOM     12  C   UNL     1      -0.923  15.736  19.152  0.00  0.00    +0.000 A 
ATOM     13  C   UNL     1      -1.136  17.114  19.186  0.00  0.00    +0.000 A 
ATOM     14  C   UNL     1      -0.076  17.983  18.982  0.00  0.00    +0.000 A 
ATOM     15  C   UNL     1       1.208  17.471  18.809  0.00  0.00    +0.000 A 
ATOM     16  C   UNL     1       1.422  16.086  18.773  0.00  0.00    +0.000 A 
ENDBRANCH   4  11
BRANCH   1  17
ATOM     17  C   UNL     1      -0.892  12.566  22.830  0.00  0.00    +0.000 C 
BRANCH  17  21
ATOM     18  C   UNL     1      -3.316  15.696  24.697  0.00  0.00    +0.000 A 
ATOM     19  C   UNL     1      -3.879  14.478  24.314  0.00  0.00    +0.000 A 
ATOM     20  C   UNL     1      -3.101  13.468  23.733  0.00  0.00    +0.000 A 
ATOM     21  C   UNL     1      -1.733  13.660  23.492  0.00  0.00    +0.000 A 
ATOM     22  C   UNL     1      -1.172  14.886  23.891  0.00  0.00    +0.000 A 
ATOM     23  C   UNL     1      -1.952  15.893  24.497  0.00  0.00    +0.000 A 
BRANCH  18  25
ATOM     24  C   UNL     1      -5.349  16.936  24.423  0.00  0.00    +0.000 C 
ATOM     25  O   UNL     1      -4.216  16.594  25.202  0.00  0.00    +0.000 OA
ENDBRANCH  18  25
ENDBRANCH  17  21
ENDBRANCH   1  17
BRANCH  10  26
ATOM     26  C   UNL     1      -1.512  10.434  19.006  0.00  0.00    +0.000 C 
BRANCH  26  27
ATOM     27  C   UNL     1      -2.357  10.460  17.730  0.00  0.00    +0.000 A 
ATOM     28  C   UNL     1      -3.542  11.226  17.724  0.00  0.00    +0.000 A 
ATOM     29  C   UNL     1      -4.322  11.358  16.570  0.00  0.00    +0.000 A 
ATOM     30  C   UNL     1      -3.932  10.732  15.391  0.00  0.00    +0.000 A 
ATOM     31  C   UNL     1      -2.759   9.976  15.372  0.00  0.00    +0.000 A 
ATOM     32  C   UNL     1      -1.974   9.847  16.528  0.00  0.00    +0.000 A 
ENDBRANCH  26  27
ENDBRANCH  10  26
TORSDOF 6
ENDMDL
MODEL 8
REMARK VINA RESULT:      -7.0      4.406      8.683
REMARK  Name = 
REMARK  7 active torsions:
REMARK  status: ('A' for Active; 'I' for Inactive)
REMARK    1  A    between atoms: C_1  and  O_2
REMARK    2  A    between atoms: O_2  and  C_3
REMARK    3  A    between atoms: C_6  and  C_7
REMARK    4  A    between atoms: C_7  and  N_8
REMARK    5  A    between atoms: C_11  and  C_12
REMARK    6  A    between atoms: N_23  and  C_24
REMARK    7  A    between atoms: C_24  and  C_25
REMARK                            x       y       z     vdW  Elec       q    Type
REMARK                         _______ _______ _______ _____ _____    ______ ____
ROOT
ATOM      1  N   UNL     1      -0.892  11.187  21.347  0.00  0.00    +0.000 NA
ATOM      2  C   UNL     1      -1.122   9.903  20.673  0.00  0.00    +0.000 C 
ATOM      3  C   UNL     1      -0.093   9.553  19.552  0.00  0.00    +0.000 C 
ATOM      4  C   UNL     1      -0.226  10.511  18.287  0.00  0.00    +0.000 C 
ATOM      5  C   UNL     1       0.652  11.766  18.427  0.00  0.00    +0.000 C 
ATOM      6  C   UNL     1       0.402  12.514  19.734  0.00  0.00    +0.000 C 
ATOM      7  O   UNL     1       0.176  13.729  19.725  0.00  0.00    +0.000 OA
ATOM      8  C   UNL     1       0.462  11.721  21.054  0.00  0.00    +0.000 C 
ATOM      9  C   UNL     1       1.611  10.688  20.925  0.00  0.00    +0.000 C 
ATOM     10  N   UNL     1       1.319   9.486  20.093  0.00  0.00    +0.000 NA
ENDROOT
BRANCH   4  11
ATOM     11  C   UNL     1      -1.687  10.831  17.907  0.00  0.00    +0.000 A 
ATOM     12  C   UNL     1      -2.465  11.758  18.626  0.00  0.00    +0.000 A 
ATOM     13  C   UNL     1      -3.843  11.859  18.437  0.00  0.00    +0.000 A 
ATOM     14  C   UNL     1      -4.472  11.066  17.491  0.00  0.00    +0.000 A 
ATOM     15  C   UNL     1      -3.710  10.217  16.689  0.00  0.00    +0.000 A 
ATOM     16  C   UNL     1      -2.325  10.114  16.880  0.00  0.00    +0.000 A 
ENDBRANCH   4  11
BRANCH   1  17
ATOM     17  C   UNL     1      -1.215  11.120  22.784  0.00  0.00    +0.000 C 
BRANCH  17  21
ATOM     18  C   UNL     1      -3.383  14.601  24.318  0.00  0.00    +0.000 A 
ATOM     19  C   UNL     1      -3.998  13.352  24.218  0.00  0.00    +0.000 A 
ATOM     20  C   UNL     1      -3.300  12.233  23.745  0.00  0.00    +0.000 A 
ATOM     21  C   UNL     1      -1.966  12.338  23.329  0.00  0.00    +0.000 A 
ATOM     22  C   UNL     1      -1.349  13.597  23.443  0.00  0.00    +0.000 A 
ATOM     23  C   UNL     1      -2.047  14.717  23.942  0.00  0.00    +0.000 A 
BRANCH  18  25
ATOM     24  C   UNL     1      -5.359  15.913  23.982  0.00  0.00    +0.000 C 
ATOM     25  O   UNL     1      -4.211  15.599  24.749  0.00  0.00    +0.000 OA
ENDBRANCH  18  25
ENDBRANCH  17  21
ENDBRANCH   1  17
BRANCH  10  26
ATOM     26  C   UNL     1       1.567   8.255  20.885  0.00  0.00    +0.000 C 
BRANCH  26  27
ATOM     27  C   UNL     1       1.971   6.995  20.115  0.00  0.00    +0.000 A 
ATOM     28  C   UNL     1       1.656   5.737  20.672  0.00  0.00    +0.000 A 
ATOM     29  C   UNL     1       1.927   4.547  19.988  0.00  0.00    +0.000 A 
ATOM     30  C   UNL     1       2.512   4.586  18.727  0.00  0.00    +0.000 A 
ATOM     31  C   UNL     1       2.825   5.820  18.154  0.00  0.00    +0.000 A 
ATOM     32  C   UNL     1       2.550   7.014  18.838  0.00  0.00    +0.000 A 
ENDBRANCH  26  27
ENDBRANCH  10  26
TORSDOF 6
ENDMDL
MODEL 9
REMARK VINA RESULT:      -7.0      4.845      9.172
REMARK  Name = 
REMARK  7 active torsions:
REMARK  status: ('A' for Active; 'I' for Inactive)
REMARK    1  A    between atoms: C_1  and  O_2
REMARK    2  A    between atoms: O_2  and  C_3
REMARK    3  A    between atoms: C_6  and  C_7
REMARK    4  A    between atoms: C_7  and  N_8
REMARK    5  A    between atoms: C_11  and  C_12
REMARK    6  A    between atoms: N_23  and  C_24
REMARK    7  A    between atoms: C_24  and  C_25
REMARK                            x       y       z     vdW  Elec       q    Type
REMARK                         _______ _______ _______ _____ _____    ______ ____
ROOT
ATOM      1  N   UNL     1      -1.291  11.747  21.197  0.00  0.00    +0.000 NA
ATOM      2  C   UNL     1      -1.410  10.438  20.542  0.00  0.00    +0.000 C 
ATOM      3  C   UNL     1      -0.333  10.147  19.449  0.00  0.00    +0.000 C 
ATOM      4  C   UNL     1      -0.508  11.071  18.165  0.00  0.00    +0.000 C 
ATOM      5  C   UNL     1       0.270  12.391  18.300  0.00  0.00    +0.000 C 
ATOM      6  C   UNL     1      -0.065  13.140  19.588  0.00  0.00    +0.000 C 
ATOM      7  O   UNL     1      -0.381  14.333  19.551  0.00  0.00    +0.000 OA
ATOM      8  C   UNL     1       0.025  12.375  20.922  0.00  0.00    +0.000 C 
ATOM      9  C   UNL     1       1.251  11.430  20.837  0.00  0.00    +0.000 C 
ATOM     10  N   UNL     1       1.068  10.196  20.021  0.00  0.00    +0.000 NA
ENDROOT
BRANCH   4  11
ATOM     11  C   UNL     1      -1.980  11.274  17.748  0.00  0.00    +0.000 A 
ATOM     12  C   UNL     1      -2.912  11.931  18.574  0.00  0.00    +0.000 A 
ATOM     13  C   UNL     1      -4.280  11.893  18.308  0.00  0.00    +0.000 A 
ATOM     14  C   UNL     1      -4.749  11.233  17.183  0.00  0.00    +0.000 A 
ATOM     15  C   UNL     1      -3.840  10.667  16.291  0.00  0.00    +0.000 A 
ATOM     16  C   UNL     1      -2.465  10.704  16.558  0.00  0.00    +0.000 A 
ENDBRANCH   4  11
BRANCH   1  17
ATOM     17  C   UNL     1      -1.641  11.680  22.628  0.00  0.00    +0.000 C 
BRANCH  17  21
ATOM     18  C   UNL     1      -5.599  13.270  23.610  0.00  0.00    +0.000 A 
ATOM     19  C   UNL     1      -5.098  13.330  22.308  0.00  0.00    +0.000 A 
ATOM     20  C   UNL     1      -3.839  12.805  21.989  0.00  0.00    +0.000 A 
ATOM     21  C   UNL     1      -3.029  12.225  22.974  0.00  0.00    +0.000 A 
ATOM     22  C   UNL     1      -3.545  12.158  24.281  0.00  0.00    +0.000 A 
ATOM     23  C   UNL     1      -4.823  12.667  24.596  0.00  0.00    +0.000 A 
BRANCH  18  25
ATOM     24  C   UNL     1      -7.713  13.896  22.671  0.00  0.00    +0.000 C 
ATOM     25  O   UNL     1      -6.818  13.870  23.768  0.00  0.00    +0.000 OA
ENDBRANCH  18  25
ENDBRANCH  17  21
ENDBRANCH   1  17
BRANCH  10  26
ATOM     26  C   UNL     1       1.389   9.000  20.841  0.00  0.00    +0.000 C 
BRANCH  26  27
ATOM     27  C   UNL     1       1.848   7.743  20.098  0.00  0.00    +0.000 A 
ATOM     28  C   UNL     1       1.648   6.489  20.713  0.00  0.00    +0.000 A 
ATOM     29  C   UNL     1       1.971   5.294  20.060  0.00  0.00    +0.000 A 
ATOM     30  C   UNL     1       2.496   5.325  18.772  0.00  0.00    +0.000 A 
ATOM     31  C   UNL     1       2.695   6.555  18.142  0.00  0.00    +0.000 A 
ATOM     32  C   UNL     1       2.367   7.753  18.796  0.00  0.00    +0.000 A 
ENDBRANCH  26  27
ENDBRANCH  10  26
TORSDOF 6
ENDMDL
