MODEL 1
REMARK VINA RESULT:      -6.4      0.000      0.000
REMARK  Name = 
REMARK  6 active torsions:
REMARK  status: ('A' for Active; 'I' for Inactive)
REMARK    1  A    between atoms: C_2  and  C_3
REMARK    2  A    between atoms: C_2  and  C_4
REMARK    3  A    between atoms: C_4  and  C_5
REMARK    4  A    between atoms: C_5  and  O_6
REMARK    5  A    between atoms: O_6  and  C_7
REMARK    6  A    between atoms: N_9  and  C_10
REMARK                            x       y       z     vdW  Elec       q    Type
REMARK                         _______ _______ _______ _____ _____    ______ ____
ROOT
ATOM      1  C   UNL     1       7.138   4.497  16.448  0.00  0.00    +0.000 C 
ATOM      2  O   UNL     1       8.039   4.226  17.213  0.00  0.00    +0.000 OA
ATOM      3  N   UNL     1       5.832   4.700  16.796  0.00  0.00    +0.000 N 
ATOM      4  H   UNL     1       5.178   4.790  16.030  0.00  0.00    +0.000 HD
ENDROOT
BRANCH   3   5
ATOM      5  C   UNL     1       5.440   5.020  18.161  0.00  0.00    +0.000 C 
ATOM      6  C   UNL     1       4.271   6.017  18.185  0.00  0.00    +0.000 C 
ATOM      7  C   UNL     1       2.955   5.382  17.735  0.00  0.00    +0.000 C 
ATOM      8  C   UNL     1       2.622   4.140  18.558  0.00  0.00    +0.000 C 
ATOM      9  C   UNL     1       3.768   3.132  18.546  0.00  0.00    +0.000 C 
ATOM     10  C   UNL     1       5.090   3.767  18.974  0.00  0.00    +0.000 C 
ENDBRANCH   3   5
BRANCH   1  11
ATOM     11  O   UNL     1       7.258   4.605  15.099  0.00  0.00    +0.000 OA
BRANCH  11  12
ATOM     12  C   UNL     1       6.251   3.876  14.379  0.00  0.00    +0.000 C 
BRANCH  12  13
ATOM     13  C   UNL     1       6.494   3.994  12.867  0.00  0.00    +0.000 C 
BRANCH  13  15
ATOM     14  C   UNL     1       6.261   1.860  11.591  0.00  0.00    +0.000 C 
ATOM     15  C   UNL     1       5.713   3.018  11.996  0.00  0.00    +0.000 C 
ATOM     16  C   UNL     1       4.314   3.381  11.576  0.00  0.00    +0.000 C 
ENDBRANCH  13  15
ENDBRANCH  12  13
ENDBRANCH  11  12
ENDBRANCH   1  11
TORSDOF 5
ENDMDL
MODEL 2
REMARK VINA RESULT:      -6.3      1.328      1.910
REMARK  Name = 
REMARK  6 active torsions:
REMARK  status: ('A' for Active; 'I' for Inactive)
REMARK    1  A    between atoms: C_2  and  C_3
REMARK    2  A    between atoms: C_2  and  C_4
REMARK    3  A    between atoms: C_4  and  C_5
REMARK    4  A    between atoms: C_5  and  O_6
REMARK    5  A    between atoms: O_6  and  C_7
REMARK    6  A    between atoms: N_9  and  C_10
REMARK                            x       y       z     vdW  Elec       q    Type
REMARK                         _______ _______ _______ _____ _____    ______ ____
ROOT
ATOM      1  C   UNL     1       6.394   4.781  17.518  0.00  0.00    +0.000 C 
ATOM      2  O   UNL     1       6.223   5.952  17.782  0.00  0.00    +0.000 OA
ATOM      3  N   UNL     1       5.826   3.725  18.176  0.00  0.00    +0.000 N 
ATOM      4  H   UNL     1       6.167   2.808  17.919  0.00  0.00    +0.000 HD
ENDROOT
BRANCH   3   5
ATOM      5  C   UNL     1       4.638   3.883  19.001  0.00  0.00    +0.000 C 
ATOM      6  C   UNL     1       3.476   4.479  18.192  0.00  0.00    +0.000 C 
ATOM      7  C   UNL     1       2.897   3.486  17.184  0.00  0.00    +0.000 C 
ATOM      8  C   UNL     1       2.473   2.185  17.860  0.00  0.00    +0.000 C 
ATOM      9  C   UNL     1       3.614   1.570  18.666  0.00  0.00    +0.000 C 
ATOM     10  C   UNL     1       4.209   2.566  19.661  0.00  0.00    +0.000 C 
ENDBRANCH   3   5
BRANCH   1  11
ATOM     11  O   UNL     1       7.215   4.305  16.546  0.00  0.00    +0.000 OA
BRANCH  11  12
ATOM     12  C   UNL     1       6.972   4.893  15.257  0.00  0.00    +0.000 C 
BRANCH  12  13
ATOM     13  C   UNL     1       6.102   3.955  14.406  0.00  0.00    +0.000 C 
BRANCH  13  15
ATOM     14  C   UNL     1       5.744   3.134  12.075  0.00  0.00    +0.000 C 
ATOM     15  C   UNL     1       6.427   3.928  12.918  0.00  0.00    +0.000 C 
ATOM     16  C   UNL     1       7.546   4.793  12.403  0.00  0.00    +0.000 C 
ENDBRANCH  13  15
ENDBRANCH  12  13
ENDBRANCH  11  12
ENDBRANCH   1  11
TORSDOF 5
ENDMDL
MODEL 3
REMARK VINA RESULT:      -6.3      1.158      1.606
REMARK  Name = 
REMARK  6 active torsions:
REMARK  status: ('A' for Active; 'I' for Inactive)
REMARK    1  A    between atoms: C_2  and  C_3
REMARK    2  A    between atoms: C_2  and  C_4
REMARK    3  A    between atoms: C_4  and  C_5
REMARK    4  A    between atoms: C_5  and  O_6
REMARK    5  A    between atoms: O_6  and  C_7
REMARK    6  A    between atoms: N_9  and  C_10
REMARK                            x       y       z     vdW  Elec       q    Type
REMARK                         _______ _______ _______ _____ _____    ______ ____
ROOT
ATOM      1  C   UNL     1       5.906   3.934  16.122  0.00  0.00    +0.000 C 
ATOM      2  O   UNL     1       6.635   4.824  16.506  0.00  0.00    +0.000 OA
ATOM      3  N   UNL     1       4.990   3.269  16.889  0.00  0.00    +0.000 N 
ATOM      4  H   UNL     1       4.550   2.467  16.457  0.00  0.00    +0.000 HD
ENDROOT
BRANCH   3   5
ATOM      5  C   UNL     1       4.490   3.819  18.140  0.00  0.00    +0.000 C 
ATOM      6  C   UNL     1       3.277   4.731  17.900  0.00  0.00    +0.000 C 
ATOM      7  C   UNL     1       2.026   3.944  17.506  0.00  0.00    +0.000 C 
ATOM      8  C   UNL     1       1.696   2.865  18.533  0.00  0.00    +0.000 C 
ATOM      9  C   UNL     1       2.886   1.943  18.785  0.00  0.00    +0.000 C 
ATOM     10  C   UNL     1       4.144   2.726  19.159  0.00  0.00    +0.000 C 
ENDBRANCH   3   5
BRANCH   1  11
ATOM     11  O   UNL     1       5.899   3.408  14.870  0.00  0.00    +0.000 OA
BRANCH  11  12
ATOM     12  C   UNL     1       6.158   4.379  13.843  0.00  0.00    +0.000 C 
BRANCH  12  13
ATOM     13  C   UNL     1       6.655   3.680  12.569  0.00  0.00    +0.000 C 
BRANCH  13  15
ATOM     14  C   UNL     1       4.375   3.317  11.619  0.00  0.00    +0.000 C 
ATOM     15  C   UNL     1       5.617   2.848  11.827  0.00  0.00    +0.000 C 
ATOM     16  C   UNL     1       5.998   1.473  11.347  0.00  0.00    +0.000 C 
ENDBRANCH  13  15
ENDBRANCH  12  13
ENDBRANCH  11  12
ENDBRANCH   1  11
TORSDOF 5
ENDMDL
MODEL 4
REMARK VINA RESULT:      -6.2      3.236      6.307
REMARK  Name = 
REMARK  6 active torsions:
REMARK  status: ('A' for Active; 'I' for Inactive)
REMARK    1  A    between atoms: C_2  and  C_3
REMARK    2  A    between atoms: C_2  and  C_4
REMARK    3  A    between atoms: C_4  and  C_5
REMARK    4  A    between atoms: C_5  and  O_6
REMARK    5  A    between atoms: O_6  and  C_7
REMARK    6  A    between atoms: N_9  and  C_10
REMARK                            x       y       z     vdW  Elec       q    Type
REMARK                         _______ _______ _______ _____ _____    ______ ____
ROOT
ATOM      1  C   UNL     1       3.193   3.142  17.429  0.00  0.00    +0.000 C 
ATOM      2  O   UNL     1       2.348   3.267  16.568  0.00  0.00    +0.000 OA
ATOM      3  N   UNL     1       4.521   3.438  17.292  0.00  0.00    +0.000 N 
ATOM      4  H   UNL     1       5.118   3.159  18.057  0.00  0.00    +0.000 HD
ENDROOT
BRANCH   3   5
ATOM      5  C   UNL     1       5.006   4.319  16.240  0.00  0.00    +0.000 C 
ATOM      6  C   UNL     1       4.785   5.795  16.605  0.00  0.00    +0.000 C 
ATOM      7  C   UNL     1       5.721   6.266  17.719  0.00  0.00    +0.000 C 
ATOM      8  C   UNL     1       7.184   6.011  17.366  0.00  0.00    +0.000 C 
ATOM      9  C   UNL     1       7.429   4.549  17.003  0.00  0.00    +0.000 C 
ATOM     10  C   UNL     1       6.482   4.067  15.905  0.00  0.00    +0.000 C 
ENDBRANCH   3   5
BRANCH   1  11
ATOM     11  O   UNL     1       2.979   2.643  18.675  0.00  0.00    +0.000 OA
BRANCH  11  12
ATOM     12  C   UNL     1       1.654   2.119  18.858  0.00  0.00    +0.000 C 
BRANCH  12  13
ATOM     13  C   UNL     1       0.829   3.066  19.742  0.00  0.00    +0.000 C 
BRANCH  13  15
ATOM     14  C   UNL     1       2.175   3.216  21.840  0.00  0.00    +0.000 C 
ATOM     15  C   UNL     1       1.618   3.842  20.789  0.00  0.00    +0.000 C 
ATOM     16  C   UNL     1       1.746   5.334  20.641  0.00  0.00    +0.000 C 
ENDBRANCH  13  15
ENDBRANCH  12  13
ENDBRANCH  11  12
ENDBRANCH   1  11
TORSDOF 5
ENDMDL
MODEL 5
REMARK VINA RESULT:      -6.2      3.127      6.204
REMARK  Name = 
REMARK  6 active torsions:
REMARK  status: ('A' for Active; 'I' for Inactive)
REMARK    1  A    between atoms: C_2  and  C_3
REMARK    2  A    between atoms: C_2  and  C_4
REMARK    3  A    between atoms: C_4  and  C_5
REMARK    4  A    between atoms: C_5  and  O_6
REMARK    5  A    between atoms: O_6  and  C_7
REMARK    6  A    between atoms: N_9  and  C_10
REMARK                            x       y       z     vdW  Elec       q    Type
REMARK                         _______ _______ _______ _____ _____    ______ ____
ROOT
ATOM      1  C   UNL     1       3.314   2.834  17.593  0.00  0.00    +0.000 C 
ATOM      2  O   UNL     1       2.311   3.104  16.967  0.00  0.00    +0.000 OA
ATOM      3  N   UNL     1       4.591   3.159  17.229  0.00  0.00    +0.000 N 
ATOM      4  H   UNL     1       5.328   2.752  17.788  0.00  0.00    +0.000 HD
ENDROOT
BRANCH   3   5
ATOM      5  C   UNL     1       4.871   4.215  16.267  0.00  0.00    +0.000 C 
ATOM      6  C   UNL     1       4.584   5.601  16.866  0.00  0.00    +0.000 C 
ATOM      7  C   UNL     1       5.613   6.004  17.923  0.00  0.00    +0.000 C 
ATOM      8  C   UNL     1       7.035   5.937  17.373  0.00  0.00    +0.000 C 
ATOM      9  C   UNL     1       7.346   4.567  16.777  0.00  0.00    +0.000 C 
ATOM     10  C   UNL     1       6.308   4.151  15.735  0.00  0.00    +0.000 C 
ENDBRANCH   3   5
BRANCH   1  11
ATOM     11  O   UNL     1       3.352   2.121  18.749  0.00  0.00    +0.000 OA
BRANCH  11  12
ATOM     12  C   UNL     1       4.110   2.762  19.788  0.00  0.00    +0.000 C 
BRANCH  12  13
ATOM     13  C   UNL     1       3.295   3.908  20.405  0.00  0.00    +0.000 C 
BRANCH  13  15
ATOM     14  C   UNL     1       0.821   4.186  20.208  0.00  0.00    +0.000 C 
ATOM     15  C   UNL     1       1.861   3.564  20.788  0.00  0.00    +0.000 C 
ATOM     16  C   UNL     1       1.625   2.524  21.850  0.00  0.00    +0.000 C 
ENDBRANCH  13  15
ENDBRANCH  12  13
ENDBRANCH  11  12
ENDBRANCH   1  11
TORSDOF 5
ENDMDL
MODEL 6
REMARK VINA RESULT:      -6.1      1.554      2.448
REMARK  Name = 
REMARK  6 active torsions:
REMARK  status: ('A' for Active; 'I' for Inactive)
REMARK    1  A    between atoms: C_2  and  C_3
REMARK    2  A    between atoms: C_2  and  C_4
REMARK    3  A    between atoms: C_4  and  C_5
REMARK    4  A    between atoms: C_5  and  O_6
REMARK    5  A    between atoms: O_6  and  C_7
REMARK    6  A    between atoms: N_9  and  C_10
REMARK                            x       y       z     vdW  Elec       q    Type
REMARK                         _______ _______ _______ _____ _____    ______ ____
ROOT
ATOM      1  C   UNL     1       6.703   5.048  18.823  0.00  0.00    +0.000 C 
ATOM      2  O   UNL     1       6.977   5.411  19.947  0.00  0.00    +0.000 OA
ATOM      3  N   UNL     1       5.724   4.154  18.491  0.00  0.00    +0.000 N 
ATOM      4  H   UNL     1       5.704   3.857  17.525  0.00  0.00    +0.000 HD
ENDROOT
BRANCH   3   5
ATOM      5  C   UNL     1       4.629   3.842  19.397  0.00  0.00    +0.000 C 
ATOM      6  C   UNL     1       3.598   4.981  19.435  0.00  0.00    +0.000 C 
ATOM      7  C   UNL     1       2.781   5.070  18.145  0.00  0.00    +0.000 C 
ATOM      8  C   UNL     1       2.106   3.741  17.817  0.00  0.00    +0.000 C 
ATOM      9  C   UNL     1       3.112   2.594  17.770  0.00  0.00    +0.000 C 
ATOM     10  C   UNL     1       3.945   2.514  19.048  0.00  0.00    +0.000 C 
ENDBRANCH   3   5
BRANCH   1  11
ATOM     11  O   UNL     1       7.350   5.435  17.692  0.00  0.00    +0.000 OA
BRANCH  11  12
ATOM     12  C   UNL     1       7.461   4.387  16.714  0.00  0.00    +0.000 C 
BRANCH  12  13
ATOM     13  C   UNL     1       7.256   4.958  15.303  0.00  0.00    +0.000 C 
BRANCH  13  15
ATOM     14  C   UNL     1       4.812   4.495  15.078  0.00  0.00    +0.000 C 
ATOM     15  C   UNL     1       6.045   4.426  14.547  0.00  0.00    +0.000 C 
ATOM     16  C   UNL     1       6.253   3.798  13.196  0.00  0.00    +0.000 C 
ENDBRANCH  13  15
ENDBRANCH  12  13
ENDBRANCH  11  12
ENDBRANCH   1  11
TORSDOF 5
ENDMDL
MODEL 7
REMARK VINA RESULT:      -6.1      1.249      1.455
REMARK  Name = 
REMARK  6 active torsions:
REMARK  status: ('A' for Active; 'I' for Inactive)
REMARK    1  A    between atoms: C_2  and  C_3
REMARK    2  A    between atoms: C_2  and  C_4
REMARK    3  A    between atoms: C_4  and  C_5
REMARK    4  A    between atoms: C_5  and  O_6
REMARK    5  A    between atoms: O_6  and  C_7
REMARK    6  A    between atoms: N_9  and  C_10
REMARK                            x       y       z     vdW  Elec       q    Type
REMARK                         _______ _______ _______ _____ _____    ______ ____
ROOT
ATOM      1  C   UNL     1       5.546   4.263  16.050  0.00  0.00    +0.000 C 
ATOM      2  O   UNL     1       6.492   4.732  16.647  0.00  0.00    +0.000 OA
ATOM      3  N   UNL     1       4.521   3.554  16.612  0.00  0.00    +0.000 N 
ATOM      4  H   UNL     1       3.876   3.121  15.965  0.00  0.00    +0.000 HD
ENDROOT
BRANCH   3   5
ATOM      5  C   UNL     1       4.227   3.625  18.035  0.00  0.00    +0.000 C 
ATOM      6  C   UNL     1       3.341   4.839  18.358  0.00  0.00    +0.000 C 
ATOM      7  C   UNL     1       1.907   4.663  17.859  0.00  0.00    +0.000 C 
ATOM      8  C   UNL     1       1.280   3.379  18.395  0.00  0.00    +0.000 C 
ATOM      9  C   UNL     1       2.141   2.158  18.082  0.00  0.00    +0.000 C 
ATOM     10  C   UNL     1       3.581   2.338  18.560  0.00  0.00    +0.000 C 
ENDBRANCH   3   5
BRANCH   1  11
ATOM     11  O   UNL     1       5.357   4.323  14.706  0.00  0.00    +0.000 OA
BRANCH  11  12
ATOM     12  C   UNL     1       6.421   3.715  13.954  0.00  0.00    +0.000 C 
BRANCH  12  13
ATOM     13  C   UNL     1       6.209   3.953  12.452  0.00  0.00    +0.000 C 
BRANCH  13  15
ATOM     14  C   UNL     1       5.915   1.691  11.435  0.00  0.00    +0.000 C 
ATOM     15  C   UNL     1       5.389   2.893  11.727  0.00  0.00    +0.000 C 
ATOM     16  C   UNL     1       3.977   3.221  11.320  0.00  0.00    +0.000 C 
ENDBRANCH  13  15
ENDBRANCH  12  13
ENDBRANCH  11  12
ENDBRANCH   1  11
TORSDOF 5
ENDMDL
MODEL 8
REMARK VINA RESULT:      -6.1      2.152      3.350
REMARK  Name = 
REMARK  6 active torsions:
REMARK  status: ('A' for Active; 'I' for Inactive)
REMARK    1  A    between atoms: C_2  and  C_3
REMARK    2  A    between atoms: C_2  and  C_4
REMARK    3  A    between atoms: C_4  and  C_5
REMARK    4  A    between atoms: C_5  and  O_6
REMARK    5  A    between atoms: O_6  and  C_7
REMARK    6  A    between atoms: N_9  and  C_10
REMARK                            x       y       z     vdW  Elec       q    Type
REMARK                         _______ _______ _______ _____ _____    ______ ____
ROOT
ATOM      1  C   UNL     1       5.548   4.617  19.079  0.00  0.00    +0.000 C 
ATOM      2  O   UNL     1       5.824   5.594  19.742  0.00  0.00    +0.000 OA
ATOM      3  N   UNL     1       4.372   3.923  19.135  0.00  0.00    +0.000 N 
ATOM      4  H   UNL     1       4.343   3.057  18.614  0.00  0.00    +0.000 HD
ENDROOT
BRANCH   3   5
ATOM      5  C   UNL     1       3.160   4.508  19.691  0.00  0.00    +0.000 C 
ATOM      6  C   UNL     1       2.205   4.969  18.578  0.00  0.00    +0.000 C 
ATOM      7  C   UNL     1       1.552   3.795  17.847  0.00  0.00    +0.000 C 
ATOM      8  C   UNL     1       0.839   2.858  18.817  0.00  0.00    +0.000 C 
ATOM      9  C   UNL     1       1.770   2.383  19.930  0.00  0.00    +0.000 C 
ATOM     10  C   UNL     1       2.441   3.552  20.649  0.00  0.00    +0.000 C 
ENDBRANCH   3   5
BRANCH   1  11
ATOM     11  O   UNL     1       6.378   4.010  18.191  0.00  0.00    +0.000 OA
BRANCH  11  12
ATOM     12  C   UNL     1       7.338   4.905  17.605  0.00  0.00    +0.000 C 
BRANCH  12  13
ATOM     13  C   UNL     1       7.298   4.794  16.074  0.00  0.00    +0.000 C 
BRANCH  13  15
ATOM     14  C   UNL     1       5.233   6.177  15.834  0.00  0.00    +0.000 C 
ATOM     15  C   UNL     1       5.960   5.123  15.425  0.00  0.00    +0.000 C 
ATOM     16  C   UNL     1       5.449   4.232  14.324  0.00  0.00    +0.000 C 
ENDBRANCH  13  15
ENDBRANCH  12  13
ENDBRANCH  11  12
ENDBRANCH   1  11
TORSDOF 5
ENDMDL
MODEL 9
REMARK VINA RESULT:      -6.1      2.272      3.505
REMARK  Name = 
REMARK  6 active torsions:
REMARK  status: ('A' for Active; 'I' for Inactive)
REMARK    1  A    between atoms: C_2  and  C_3
REMARK    2  A    between atoms: C_2  and  C_4
REMARK    3  A    between atoms: C_4  and  C_5
REMARK    4  A    between atoms: C_5  and  O_6
REMARK    5  A    between atoms: O_6  and  C_7
REMARK    6  A    between atoms: N_9  and  C_10
REMARK                            x       y       z     vdW  Elec       q    Type
REMARK                         _______ _______ _______ _____ _____    ______ ____
ROOT
ATOM      1  C   UNL     1       5.257   4.690  19.009  0.00  0.00    +0.000 C 
ATOM      2  O   UNL     1       5.452   5.656  19.715  0.00  0.00    +0.000 OA
ATOM      3  N   UNL     1       4.036   4.140  18.731  0.00  0.00    +0.000 N 
ATOM      4  H   UNL     1       4.049   3.262  18.231  0.00  0.00    +0.000 HD
ENDROOT
BRANCH   3   5
ATOM      5  C   UNL     1       2.799   4.886  18.912  0.00  0.00    +0.000 C 
ATOM      6  C   UNL     1       1.693   4.360  17.983  0.00  0.00    +0.000 C 
ATOM      7  C   UNL     1       1.174   2.988  18.414  0.00  0.00    +0.000 C 
ATOM      8  C   UNL     1       0.700   2.998  19.864  0.00  0.00    +0.000 C 
ATOM      9  C   UNL     1       1.784   3.512  20.808  0.00  0.00    +0.000 C 
ATOM     10  C   UNL     1       2.322   4.874  20.370  0.00  0.00    +0.000 C 
ENDBRANCH   3   5
BRANCH   1  11
ATOM     11  O   UNL     1       6.221   3.952  18.400  0.00  0.00    +0.000 OA
BRANCH  11  12
ATOM     12  C   UNL     1       7.271   4.749  17.827  0.00  0.00    +0.000 C 
BRANCH  12  13
ATOM     13  C   UNL     1       7.280   4.592  16.300  0.00  0.00    +0.000 C 
BRANCH  13  15
ATOM     14  C   UNL     1       5.411   4.073  14.727  0.00  0.00    +0.000 C 
ATOM     15  C   UNL     1       5.973   4.932  15.595  0.00  0.00    +0.000 C 
ATOM     16  C   UNL     1       5.326   6.263  15.870  0.00  0.00    +0.000 C 
ENDBRANCH  13  15
ENDBRANCH  12  13
ENDBRANCH  11  12
ENDBRANCH   1  11
TORSDOF 5
ENDMDL
