MODEL 1
REMARK VINA RESULT:      -8.5      0.000      0.000
REMARK  Name = 
REMARK  6 active torsions:
REMARK  status: ('A' for Active; 'I' for Inactive)
REMARK    1  A    between atoms: C_1  and  O_2
REMARK    2  A    between atoms: O_2  and  C_3
REMARK    3  A    between atoms: C_6  and  N_7
REMARK    4  A    between atoms: N_7  and  C_8
REMARK    5  A    between atoms: C_10  and  N_11
REMARK    6  A    between atoms: N_14  and  C_15
REMARK                            x       y       z     vdW  Elec       q    Type
REMARK                         _______ _______ _______ _____ _____    ______ ____
ROOT
ATOM      1  C   UNL     1      -0.402  11.003  19.204  0.00  0.00    +0.000 A 
ATOM      2  C   UNL     1      -0.938  11.792  20.279  0.00  0.00    +0.000 A 
ATOM      3  C   UNL     1      -0.613  11.688  21.679  0.00  0.00    +0.000 A 
ATOM      4  C   UNL     1       0.148  10.506  21.929  0.00  0.00    +0.000 A 
ATOM      5  N   UNL     1       0.545   9.856  23.053  0.00  0.00    +0.000 NA
ATOM      6  O   UNL     1       1.209   8.676  22.627  0.00  0.00    +0.000 OA
ATOM      7  C   UNL     1       1.273   8.679  21.273  0.00  0.00    +0.000 A 
ATOM      8  C   UNL     1       0.675   9.808  20.826  0.00  0.00    +0.000 A 
ATOM      9  C   UNL     1       0.570  10.038  19.477  0.00  0.00    +0.000 A 
ATOM     10  C   UNL     1       1.399   9.251  18.553  0.00  0.00    +0.000 C 
ATOM     11  O   UNL     1       1.568   9.636  17.405  0.00  0.00    +0.000 OA
ATOM     12  C   UNL     1       2.012   7.982  19.082  0.00  0.00    +0.000 A 
ATOM     13  C   UNL     1       2.626   7.107  18.192  0.00  0.00    +0.000 A 
ATOM     14  C   UNL     1       2.941   5.824  18.625  0.00  0.00    +0.000 A 
ATOM     15  C   UNL     1       2.653   5.431  19.938  0.00  0.00    +0.000 A 
ATOM     16  C   UNL     1       2.137   6.346  20.866  0.00  0.00    +0.000 A 
ATOM     17  C   UNL     1       1.843   7.640  20.449  0.00  0.00    +0.000 A 
ENDROOT
BRANCH   3  18
ATOM     18  N   UNL     1      -1.126  12.642  22.548  0.00  0.00    +0.000 N 
ATOM     19  C   UNL     1      -0.589  14.005  22.569  0.00  0.00    +0.000 C 
ATOM     20  C   UNL     1      -0.948  14.613  23.951  0.00  0.00    +0.000 C 
ATOM     21  N   UNL     1      -2.406  14.607  24.241  0.00  0.00    +0.000 NA
ATOM     22  C   UNL     1      -2.654  15.071  25.603  0.00  0.00    +0.000 C 
ATOM     23  C   UNL     1      -2.951  13.239  24.072  0.00  0.00    +0.000 C 
ATOM     24  C   UNL     1      -2.599  12.629  22.703  0.00  0.00    +0.000 C 
ENDBRANCH   3  18
BRANCH   1  25
ATOM     25  N   UNL     1      -0.959  11.111  17.912  0.00  0.00    +0.000 N 
ATOM     26  H   UNL     1      -0.385  10.683  17.183  0.00  0.00    +0.000 HD
BRANCH  25  30
ATOM     27  C   UNL     1      -5.043  11.735  16.920  0.00  0.00    +0.000 A 
ATOM     28  C   UNL     1      -4.541  12.023  18.186  0.00  0.00    +0.000 A 
ATOM     29  C   UNL     1      -3.182  11.850  18.478  0.00  0.00    +0.000 A 
ATOM     30  C   UNL     1      -2.294  11.356  17.521  0.00  0.00    +0.000 A 
ATOM     31  C   UNL     1      -2.810  11.047  16.251  0.00  0.00    +0.000 A 
ATOM     32  C   UNL     1      -4.170  11.245  15.948  0.00  0.00    +0.000 A 
BRANCH  27  34
ATOM     33  C   UNL     1      -7.128  12.156  17.967  0.00  0.00    +0.000 C 
ATOM     34  O   UNL     1      -6.390  11.926  16.776  0.00  0.00    +0.000 OA
ENDBRANCH  27  34
ENDBRANCH  25  30
ENDBRANCH   1  25
TORSDOF 4
ENDMDL
MODEL 2
REMARK VINA RESULT:      -8.3      3.260      6.191
REMARK  Name = 
REMARK  6 active torsions:
REMARK  status: ('A' for Active; 'I' for Inactive)
REMARK    1  A    between atoms: C_1  and  O_2
REMARK    2  A    between atoms: O_2  and  C_3
REMARK    3  A    between atoms: C_6  and  N_7
REMARK    4  A    between atoms: N_7  and  C_8
REMARK    5  A    between atoms: C_10  and  N_11
REMARK    6  A    between atoms: N_14  and  C_15
REMARK                            x       y       z     vdW  Elec       q    Type
REMARK                         _______ _______ _______ _____ _____    ______ ____
ROOT
ATOM      1  C   UNL     1       0.082  12.249  19.603  0.00  0.00    +0.000 A 
ATOM      2  C   UNL     1      -1.109  12.180  20.404  0.00  0.00    +0.000 A 
ATOM      3  C   UNL     1      -1.480  13.055  21.486  0.00  0.00    +0.000 A 
ATOM      4  C   UNL     1      -0.381  13.887  21.857  0.00  0.00    +0.000 A 
ATOM      5  N   UNL     1      -0.139  14.730  22.893  0.00  0.00    +0.000 NA
ATOM      6  O   UNL     1       1.193  15.195  22.737  0.00  0.00    +0.000 OA
ATOM      7  C   UNL     1       1.694  14.696  21.579  0.00  0.00    +0.000 A 
ATOM      8  C   UNL     1       0.736  13.934  21.002  0.00  0.00    +0.000 A 
ATOM      9  C   UNL     1       1.002  13.276  19.826  0.00  0.00    +0.000 A 
ATOM     10  C   UNL     1       2.176  13.675  19.036  0.00  0.00    +0.000 C 
ATOM     11  O   UNL     1       2.263  13.345  17.862  0.00  0.00    +0.000 OA
ATOM     12  C   UNL     1       3.235  14.489  19.731  0.00  0.00    +0.000 A 
ATOM     13  C   UNL     1       4.448  14.707  19.088  0.00  0.00    +0.000 A 
ATOM     14  C   UNL     1       5.515  15.211  19.825  0.00  0.00    +0.000 A 
ATOM     15  C   UNL     1       5.359  15.500  21.186  0.00  0.00    +0.000 A 
ATOM     16  C   UNL     1       4.107  15.385  21.807  0.00  0.00    +0.000 A 
ATOM     17  C   UNL     1       3.028  14.907  21.072  0.00  0.00    +0.000 A 
ENDROOT
BRANCH   3  18
ATOM     18  N   UNL     1      -2.746  12.917  22.042  0.00  0.00    +0.000 N 
ATOM     19  C   UNL     1      -3.916  12.672  21.196  0.00  0.00    +0.000 C 
ATOM     20  C   UNL     1      -5.163  13.120  22.003  0.00  0.00    +0.000 C 
ATOM     21  N   UNL     1      -5.297  12.433  23.315  0.00  0.00    +0.000 NA
ATOM     22  C   UNL     1      -6.414  12.996  24.070  0.00  0.00    +0.000 C 
ATOM     23  C   UNL     1      -4.045  12.576  24.094  0.00  0.00    +0.000 C 
ATOM     24  C   UNL     1      -2.802  12.134  23.298  0.00  0.00    +0.000 C 
ENDBRANCH   3  18
BRANCH   1  25
ATOM     25  N   UNL     1       0.379  11.207  18.699  0.00  0.00    +0.000 N 
ATOM     26  H   UNL     1       0.340  11.494  17.719  0.00  0.00    +0.000 HD
BRANCH  25  30
ATOM     27  C   UNL     1       2.346   7.469  19.155  0.00  0.00    +0.000 A 
ATOM     28  C   UNL     1       2.369   8.172  17.953  0.00  0.00    +0.000 A 
ATOM     29  C   UNL     1       1.750   9.423  17.839  0.00  0.00    +0.000 A 
ATOM     30  C   UNL     1       1.065   9.992  18.914  0.00  0.00    +0.000 A 
ATOM     31  C   UNL     1       1.027   9.269  20.118  0.00  0.00    +0.000 A 
ATOM     32  C   UNL     1       1.671   8.024  20.243  0.00  0.00    +0.000 A 
BRANCH  27  34
ATOM     33  C   UNL     1       2.592   5.375  18.072  0.00  0.00    +0.000 C 
ATOM     34  O   UNL     1       2.968   6.251  19.123  0.00  0.00    +0.000 OA
ENDBRANCH  27  34
ENDBRANCH  25  30
ENDBRANCH   1  25
TORSDOF 4
ENDMDL
MODEL 3
REMARK VINA RESULT:      -8.1      3.816      7.676
REMARK  Name = 
REMARK  6 active torsions:
REMARK  status: ('A' for Active; 'I' for Inactive)
REMARK    1  A    between atoms: C_1  and  O_2
REMARK    2  A    between atoms: O_2  and  C_3
REMARK    3  A    between atoms: C_6  and  N_7
REMARK    4  A    between atoms: N_7  and  C_8
REMARK    5  A    between atoms: C_10  and  N_11
REMARK    6  A    between atoms: N_14  and  C_15
REMARK                            x       y       z     vdW  Elec       q    Type
REMARK                         _______ _______ _______ _____ _____    ______ ____
ROOT
ATOM      1  C   UNL     1       0.752  11.950  20.354  0.00  0.00    +0.000 A 
ATOM      2  C   UNL     1       1.856  12.710  19.834  0.00  0.00    +0.000 A 
ATOM      3  C   UNL     1       2.339  13.979  20.313  0.00  0.00    +0.000 A 
ATOM      4  C   UNL     1       1.417  14.546  21.244  0.00  0.00    +0.000 A 
ATOM      5  N   UNL     1       1.297  15.761  21.837  0.00  0.00    +0.000 NA
ATOM      6  O   UNL     1       0.102  15.725  22.602  0.00  0.00    +0.000 OA
ATOM      7  C   UNL     1      -0.425  14.478  22.524  0.00  0.00    +0.000 A 
ATOM      8  C   UNL     1       0.384  13.728  21.740  0.00  0.00    +0.000 A 
ATOM      9  C   UNL     1       0.054  12.424  21.467  0.00  0.00    +0.000 A 
ATOM     10  C   UNL     1      -0.965  11.759  22.291  0.00  0.00    +0.000 C 
ATOM     11  O   UNL     1      -1.052  10.540  22.288  0.00  0.00    +0.000 OA
ATOM     12  C   UNL     1      -1.869  12.635  23.116  0.00  0.00    +0.000 A 
ATOM     13  C   UNL     1      -2.972  12.066  23.743  0.00  0.00    +0.000 A 
ATOM     14  C   UNL     1      -3.951  12.904  24.266  0.00  0.00    +0.000 A 
ATOM     15  C   UNL     1      -3.815  14.295  24.170  0.00  0.00    +0.000 A 
ATOM     16  C   UNL     1      -2.652  14.868  23.638  0.00  0.00    +0.000 A 
ATOM     17  C   UNL     1      -1.655  14.038  23.136  0.00  0.00    +0.000 A 
ENDROOT
BRANCH   3  18
ATOM     18  N   UNL     1       3.515  14.484  19.773  0.00  0.00    +0.000 N 
ATOM     19  C   UNL     1       3.510  15.195  18.493  0.00  0.00    +0.000 C 
ATOM     20  C   UNL     1       4.953  15.121  17.926  0.00  0.00    +0.000 C 
ATOM     21  N   UNL     1       5.980  15.679  18.845  0.00  0.00    +0.000 NA
ATOM     22  C   UNL     1       7.317  15.458  18.303  0.00  0.00    +0.000 C 
ATOM     23  C   UNL     1       5.868  15.042  20.178  0.00  0.00    +0.000 C 
ATOM     24  C   UNL     1       4.438  15.111  20.747  0.00  0.00    +0.000 C 
ENDBRANCH   3  18
BRANCH   1  25
ATOM     25  N   UNL     1       0.297  10.811  19.656  0.00  0.00    +0.000 N 
ATOM     26  H   UNL     1      -0.557  10.976  19.119  0.00  0.00    +0.000 HD
BRANCH  25  30
ATOM     27  C   UNL     1       2.533   7.327  18.700  0.00  0.00    +0.000 A 
ATOM     28  C   UNL     1       2.022   7.548  19.977  0.00  0.00    +0.000 A 
ATOM     29  C   UNL     1       1.251   8.682  20.258  0.00  0.00    +0.000 A 
ATOM     30  C   UNL     1       0.995   9.643  19.278  0.00  0.00    +0.000 A 
ATOM     31  C   UNL     1       1.531   9.427  17.998  0.00  0.00    +0.000 A 
ATOM     32  C   UNL     1       2.283   8.275  17.707  0.00  0.00    +0.000 A 
BRANCH  27  34
ATOM     33  C   UNL     1       3.454   5.405  19.736  0.00  0.00    +0.000 C 
ATOM     34  O   UNL     1       3.287   6.193  18.568  0.00  0.00    +0.000 OA
ENDBRANCH  27  34
ENDBRANCH  25  30
ENDBRANCH   1  25
TORSDOF 4
ENDMDL
MODEL 4
REMARK VINA RESULT:      -8.0      1.351      2.025
REMARK  Name = 
REMARK  6 active torsions:
REMARK  status: ('A' for Active; 'I' for Inactive)
REMARK    1  A    between atoms: C_1  and  O_2
REMARK    2  A    between atoms: O_2  and  C_3
REMARK    3  A    between atoms: C_6  and  N_7
REMARK    4  A    between atoms: N_7  and  C_8
REMARK    5  A    between atoms: C_10  and  N_11
REMARK    6  A    between atoms: N_14  and  C_15
REMARK                            x       y       z     vdW  Elec       q    Type
REMARK                         _______ _______ _______ _____ _____    ______ ____
ROOT
ATOM      1  C   UNL     1      -0.712  11.615  19.555  0.00  0.00    +0.000 A 
ATOM      2  C   UNL     1      -1.445  12.317  20.572  0.00  0.00    +0.000 A 
ATOM      3  C   UNL     1      -1.421  12.065  21.990  0.00  0.00    +0.000 A 
ATOM      4  C   UNL     1      -0.750  10.836  22.269  0.00  0.00    +0.000 A 
ATOM      5  N   UNL     1      -0.607  10.065  23.377  0.00  0.00    +0.000 NA
ATOM      6  O   UNL     1       0.109   8.907  22.978  0.00  0.00    +0.000 OA
ATOM      7  C   UNL     1       0.454   9.038  21.673  0.00  0.00    +0.000 A 
ATOM      8  C   UNL     1      -0.018  10.227  21.232  0.00  0.00    +0.000 A 
ATOM      9  C   UNL     1       0.165  10.592  19.921  0.00  0.00    +0.000 A 
ATOM     10  C   UNL     1       1.154   9.866  19.110  0.00  0.00    +0.000 C 
ATOM     11  O   UNL     1       1.565  10.354  18.068  0.00  0.00    +0.000 OA
ATOM     12  C   UNL     1       1.620   8.529  19.620  0.00  0.00    +0.000 A 
ATOM     13  C   UNL     1       2.390   7.722  18.789  0.00  0.00    +0.000 A 
ATOM     14  C   UNL     1       2.584   6.390  19.144  0.00  0.00    +0.000 A 
ATOM     15  C   UNL     1       2.022   5.884  20.322  0.00  0.00    +0.000 A 
ATOM     16  C   UNL     1       1.342   6.724  21.214  0.00  0.00    +0.000 A 
ATOM     17  C   UNL     1       1.164   8.063  20.881  0.00  0.00    +0.000 A 
ENDROOT
BRANCH   3  18
ATOM     18  N   UNL     1      -2.086  12.950  22.830  0.00  0.00    +0.000 N 
ATOM     19  C   UNL     1      -3.241  12.514  23.618  0.00  0.00    +0.000 C 
ATOM     20  C   UNL     1      -4.055  13.787  23.973  0.00  0.00    +0.000 C 
ATOM     21  N   UNL     1      -3.263  14.813  24.703  0.00  0.00    +0.000 NA
ATOM     22  C   UNL     1      -4.054  16.026  24.886  0.00  0.00    +0.000 C 
ATOM     23  C   UNL     1      -2.027  15.130  23.950  0.00  0.00    +0.000 C 
ATOM     24  C   UNL     1      -1.214  13.871  23.594  0.00  0.00    +0.000 C 
ENDBRANCH   3  18
BRANCH   1  25
ATOM     25  N   UNL     1      -0.986  11.870  18.194  0.00  0.00    +0.000 N 
ATOM     26  H   UNL     1      -0.218  12.331  17.703  0.00  0.00    +0.000 HD
BRANCH  25  30
ATOM     27  C   UNL     1      -3.702  10.087  15.456  0.00  0.00    +0.000 A 
ATOM     28  C   UNL     1      -2.439   9.552  15.695  0.00  0.00    +0.000 A 
ATOM     29  C   UNL     1      -1.577  10.132  16.634  0.00  0.00    +0.000 A 
ATOM     30  C   UNL     1      -1.942  11.281  17.338  0.00  0.00    +0.000 A 
ATOM     31  C   UNL     1      -3.209  11.829  17.078  0.00  0.00    +0.000 A 
ATOM     32  C   UNL     1      -4.087  11.233  16.154  0.00  0.00    +0.000 A 
BRANCH  27  34
ATOM     33  C   UNL     1      -4.331   9.942  13.175  0.00  0.00    +0.000 C 
ATOM     34  O   UNL     1      -4.432   9.438  14.498  0.00  0.00    +0.000 OA
ENDBRANCH  27  34
ENDBRANCH  25  30
ENDBRANCH   1  25
TORSDOF 4
ENDMDL
MODEL 5
REMARK VINA RESULT:      -8.0      0.671      1.054
REMARK  Name = 
REMARK  6 active torsions:
REMARK  status: ('A' for Active; 'I' for Inactive)
REMARK    1  A    between atoms: C_1  and  O_2
REMARK    2  A    between atoms: O_2  and  C_3
REMARK    3  A    between atoms: C_6  and  N_7
REMARK    4  A    between atoms: N_7  and  C_8
REMARK    5  A    between atoms: C_10  and  N_11
REMARK    6  A    between atoms: N_14  and  C_15
REMARK                            x       y       z     vdW  Elec       q    Type
REMARK                         _______ _______ _______ _____ _____    ______ ____
ROOT
ATOM      1  C   UNL     1      -0.261  10.826  18.931  0.00  0.00    +0.000 A 
ATOM      2  C   UNL     1      -0.696  11.745  19.948  0.00  0.00    +0.000 A 
ATOM      3  C   UNL     1      -0.300  11.758  21.333  0.00  0.00    +0.000 A 
ATOM      4  C   UNL     1       0.412  10.565  21.661  0.00  0.00    +0.000 A 
ATOM      5  N   UNL     1       0.835  10.006  22.823  0.00  0.00    +0.000 NA
ATOM      6  O   UNL     1       1.413   8.754  22.485  0.00  0.00    +0.000 OA
ATOM      7  C   UNL     1       1.403   8.622  21.136  0.00  0.00    +0.000 A 
ATOM      8  C   UNL     1       0.840   9.734  20.609  0.00  0.00    +0.000 A 
ATOM      9  C   UNL     1       0.673   9.839  19.250  0.00  0.00    +0.000 A 
ATOM     10  C   UNL     1       1.409   8.920  18.369  0.00  0.00    +0.000 C 
ATOM     11  O   UNL     1       1.534   9.182  17.182  0.00  0.00    +0.000 OA
ATOM     12  C   UNL     1       1.983   7.676  18.991  0.00  0.00    +0.000 A 
ATOM     13  C   UNL     1       2.501   6.685  18.163  0.00  0.00    +0.000 A 
ATOM     14  C   UNL     1       2.772   5.434  18.706  0.00  0.00    +0.000 A 
ATOM     15  C   UNL     1       2.537   5.187  20.064  0.00  0.00    +0.000 A 
ATOM     16  C   UNL     1       2.121   6.216  20.920  0.00  0.00    +0.000 A 
ATOM     17  C   UNL     1       1.872   7.478  20.392  0.00  0.00    +0.000 A 
ENDROOT
BRANCH   3  18
ATOM     18  N   UNL     1      -0.714  12.820  22.127  0.00  0.00    +0.000 N 
ATOM     19  C   UNL     1      -1.439  12.585  23.377  0.00  0.00    +0.000 C 
ATOM     20  C   UNL     1      -2.215  13.889  23.705  0.00  0.00    +0.000 C 
ATOM     21  N   UNL     1      -1.341  15.088  23.809  0.00  0.00    +0.000 NA
ATOM     22  C   UNL     1      -2.151  16.290  23.988  0.00  0.00    +0.000 C 
ATOM     23  C   UNL     1      -0.514  15.220  22.587  0.00  0.00    +0.000 C 
ATOM     24  C   UNL     1       0.258  13.930  22.255  0.00  0.00    +0.000 C 
ENDBRANCH   3  18
BRANCH   1  25
ATOM     25  N   UNL     1      -0.883  10.841  17.664  0.00  0.00    +0.000 N 
ATOM     26  H   UNL     1      -0.388  10.288  16.962  0.00  0.00    +0.000 HD
BRANCH  25  30
ATOM     27  C   UNL     1      -4.957  11.667  16.787  0.00  0.00    +0.000 A 
ATOM     28  C   UNL     1      -4.424  11.856  18.060  0.00  0.00    +0.000 A 
ATOM     29  C   UNL     1      -3.068  11.618  18.316  0.00  0.00    +0.000 A 
ATOM     30  C   UNL     1      -2.213  11.156  17.313  0.00  0.00    +0.000 A 
ATOM     31  C   UNL     1      -2.760  10.947  16.036  0.00  0.00    +0.000 A 
ATOM     32  C   UNL     1      -4.117  11.211  15.771  0.00  0.00    +0.000 A 
BRANCH  27  34
ATOM     33  C   UNL     1      -7.013  12.067  17.897  0.00  0.00    +0.000 C 
ATOM     34  O   UNL     1      -6.298  11.914  16.681  0.00  0.00    +0.000 OA
ENDBRANCH  27  34
ENDBRANCH  25  30
ENDBRANCH   1  25
TORSDOF 4
ENDMDL
MODEL 6
REMARK VINA RESULT:      -8.0      3.838      7.605
REMARK  Name = 
REMARK  6 active torsions:
REMARK  status: ('A' for Active; 'I' for Inactive)
REMARK    1  A    between atoms: C_1  and  O_2
REMARK    2  A    between atoms: O_2  and  C_3
REMARK    3  A    between atoms: C_6  and  N_7
REMARK    4  A    between atoms: N_7  and  C_8
REMARK    5  A    between atoms: C_10  and  N_11
REMARK    6  A    between atoms: N_14  and  C_15
REMARK                            x       y       z     vdW  Elec       q    Type
REMARK                         _______ _______ _______ _____ _____    ______ ____
ROOT
ATOM      1  C   UNL     1       0.750  12.175  20.480  0.00  0.00    +0.000 A 
ATOM      2  C   UNL     1       1.888  12.950  20.068  0.00  0.00    +0.000 A 
ATOM      3  C   UNL     1       2.366  14.173  20.659  0.00  0.00    +0.000 A 
ATOM      4  C   UNL     1       1.410  14.689  21.585  0.00  0.00    +0.000 A 
ATOM      5  N   UNL     1       1.281  15.861  22.258  0.00  0.00    +0.000 NA
ATOM      6  O   UNL     1       0.050  15.791  22.962  0.00  0.00    +0.000 OA
ATOM      7  C   UNL     1      -0.490  14.563  22.771  0.00  0.00    +0.000 A 
ATOM      8  C   UNL     1       0.344  13.856  21.973  0.00  0.00    +0.000 A 
ATOM      9  C   UNL     1       0.008  12.581  21.591  0.00  0.00    +0.000 A 
ATOM     10  C   UNL     1      -1.058  11.877  22.318  0.00  0.00    +0.000 C 
ATOM     11  O   UNL     1      -1.162  10.662  22.223  0.00  0.00    +0.000 OA
ATOM     12  C   UNL     1      -1.987  12.707  23.162  0.00  0.00    +0.000 A 
ATOM     13  C   UNL     1      -3.126  12.115  23.695  0.00  0.00    +0.000 A 
ATOM     14  C   UNL     1      -4.117  12.931  24.232  0.00  0.00    +0.000 A 
ATOM     15  C   UNL     1      -3.956  14.322  24.243  0.00  0.00    +0.000 A 
ATOM     16  C   UNL     1      -2.761  14.912  23.808  0.00  0.00    +0.000 A 
ATOM     17  C   UNL     1      -1.754  14.102  23.293  0.00  0.00    +0.000 A 
ENDROOT
BRANCH   3  18
ATOM     18  N   UNL     1       3.574  14.695  20.211  0.00  0.00    +0.000 N 
ATOM     19  C   UNL     1       4.778  14.621  21.041  0.00  0.00    +0.000 C 
ATOM     20  C   UNL     1       5.742  15.730  20.542  0.00  0.00    +0.000 C 
ATOM     21  N   UNL     1       6.079  15.617  19.097  0.00  0.00    +0.000 NA
ATOM     22  C   UNL     1       6.880  16.762  18.674  0.00  0.00    +0.000 C 
ATOM     23  C   UNL     1       4.837  15.550  18.292  0.00  0.00    +0.000 C 
ATOM     24  C   UNL     1       3.875  14.452  18.781  0.00  0.00    +0.000 C 
ENDBRANCH   3  18
BRANCH   1  25
ATOM     25  N   UNL     1       0.312  11.097  19.682  0.00  0.00    +0.000 N 
ATOM     26  H   UNL     1      -0.457  11.341  19.055  0.00  0.00    +0.000 HD
BRANCH  25  30
ATOM     27  C   UNL     1       2.436   7.516  18.834  0.00  0.00    +0.000 A 
ATOM     28  C   UNL     1       1.885   7.767  20.088  0.00  0.00    +0.000 A 
ATOM     29  C   UNL     1       1.152   8.935  20.332  0.00  0.00    +0.000 A 
ATOM     30  C   UNL     1       0.975   9.899  19.338  0.00  0.00    +0.000 A 
ATOM     31  C   UNL     1       1.551   9.651  18.081  0.00  0.00    +0.000 A 
ATOM     32  C   UNL     1       2.265   8.466  17.826  0.00  0.00    +0.000 A 
BRANCH  27  34
ATOM     33  C   UNL     1       2.504   5.270  18.081  0.00  0.00    +0.000 C 
ATOM     34  O   UNL     1       3.146   6.351  18.738  0.00  0.00    +0.000 OA
ENDBRANCH  27  34
ENDBRANCH  25  30
ENDBRANCH   1  25
TORSDOF 4
ENDMDL
MODEL 7
REMARK VINA RESULT:      -8.0      3.333      6.133
REMARK  Name = 
REMARK  6 active torsions:
REMARK  status: ('A' for Active; 'I' for Inactive)
REMARK    1  A    between atoms: C_1  and  O_2
REMARK    2  A    between atoms: O_2  and  C_3
REMARK    3  A    between atoms: C_6  and  N_7
REMARK    4  A    between atoms: N_7  and  C_8
REMARK    5  A    between atoms: C_10  and  N_11
REMARK    6  A    between atoms: N_14  and  C_15
REMARK                            x       y       z     vdW  Elec       q    Type
REMARK                         _______ _______ _______ _____ _____    ______ ____
ROOT
ATOM      1  C   UNL     1      -1.234  12.860  20.893  0.00  0.00    +0.000 A 
ATOM      2  C   UNL     1      -1.888  13.802  21.760  0.00  0.00    +0.000 A 
ATOM      3  C   UNL     1      -3.293  14.115  21.801  0.00  0.00    +0.000 A 
ATOM      4  C   UNL     1      -3.965  13.545  20.678  0.00  0.00    +0.000 A 
ATOM      5  N   UNL     1      -5.210  13.678  20.152  0.00  0.00    +0.000 NA
ATOM      6  O   UNL     1      -5.234  12.904  18.962  0.00  0.00    +0.000 OA
ATOM      7  C   UNL     1      -4.047  12.261  18.839  0.00  0.00    +0.000 A 
ATOM      8  C   UNL     1      -3.274  12.599  19.898  0.00  0.00    +0.000 A 
ATOM      9  C   UNL     1      -1.995  12.109  19.995  0.00  0.00    +0.000 A 
ATOM     10  C   UNL     1      -1.604  10.967  19.156  0.00  0.00    +0.000 C 
ATOM     11  O   UNL     1      -0.608  10.316  19.437  0.00  0.00    +0.000 OA
ATOM     12  C   UNL     1      -2.470  10.652  17.966  0.00  0.00    +0.000 A 
ATOM     13  C   UNL     1      -2.025   9.721  17.035  0.00  0.00    +0.000 A 
ATOM     14  C   UNL     1      -2.679   9.634  15.810  0.00  0.00    +0.000 A 
ATOM     15  C   UNL     1      -3.773  10.464  15.533  0.00  0.00    +0.000 A 
ATOM     16  C   UNL     1      -4.290  11.323  16.512  0.00  0.00    +0.000 A 
ATOM     17  C   UNL     1      -3.658  11.398  17.750  0.00  0.00    +0.000 A 
ENDROOT
BRANCH   3  18
ATOM     18  N   UNL     1      -3.755  14.946  22.814  0.00  0.00    +0.000 N 
ATOM     19  C   UNL     1      -4.956  14.602  23.578  0.00  0.00    +0.000 C 
ATOM     20  C   UNL     1      -5.498  15.922  24.189  0.00  0.00    +0.000 C 
ATOM     21  N   UNL     1      -4.507  16.634  25.039  0.00  0.00    +0.000 NA
ATOM     22  C   UNL     1      -5.042  17.922  25.469  0.00  0.00    +0.000 C 
ATOM     23  C   UNL     1      -3.249  16.841  24.284  0.00  0.00    +0.000 C 
ATOM     24  C   UNL     1      -2.704  15.536  23.675  0.00  0.00    +0.000 C 
ENDBRANCH   3  18
BRANCH   1  25
ATOM     25  N   UNL     1       0.175  12.804  20.858  0.00  0.00    +0.000 N 
ATOM     26  H   UNL     1       0.562  11.988  21.337  0.00  0.00    +0.000 HD
BRANCH  25  30
ATOM     27  C   UNL     1       2.744  14.868  18.177  0.00  0.00    +0.000 A 
ATOM     28  C   UNL     1       1.981  15.539  19.129  0.00  0.00    +0.000 A 
ATOM     29  C   UNL     1       1.174  14.834  20.031  0.00  0.00    +0.000 A 
ATOM     30  C   UNL     1       1.085  13.442  19.987  0.00  0.00    +0.000 A 
ATOM     31  C   UNL     1       1.840  12.772  19.010  0.00  0.00    +0.000 A 
ATOM     32  C   UNL     1       2.672  13.476  18.120  0.00  0.00    +0.000 A 
BRANCH  27  34
ATOM     33  C   UNL     1       2.911  16.949  17.054  0.00  0.00    +0.000 C 
ATOM     34  O   UNL     1       3.468  15.677  17.344  0.00  0.00    +0.000 OA
ENDBRANCH  27  34
ENDBRANCH  25  30
ENDBRANCH   1  25
TORSDOF 4
ENDMDL
MODEL 8
REMARK VINA RESULT:      -7.9      0.737      1.123
REMARK  Name = 
REMARK  6 active torsions:
REMARK  status: ('A' for Active; 'I' for Inactive)
REMARK    1  A    between atoms: C_1  and  O_2
REMARK    2  A    between atoms: O_2  and  C_3
REMARK    3  A    between atoms: C_6  and  N_7
REMARK    4  A    between atoms: N_7  and  C_8
REMARK    5  A    between atoms: C_10  and  N_11
REMARK    6  A    between atoms: N_14  and  C_15
REMARK                            x       y       z     vdW  Elec       q    Type
REMARK                         _______ _______ _______ _____ _____    ______ ____
ROOT
ATOM      1  C   UNL     1      -1.016  11.198  19.454  0.00  0.00    +0.000 A 
ATOM      2  C   UNL     1      -1.596  11.924  20.549  0.00  0.00    +0.000 A 
ATOM      3  C   UNL     1      -1.233  11.834  21.940  0.00  0.00    +0.000 A 
ATOM      4  C   UNL     1      -0.365  10.722  22.160  0.00  0.00    +0.000 A 
ATOM      5  N   UNL     1       0.112  10.098  23.267  0.00  0.00    +0.000 NA
ATOM      6  O   UNL     1       0.868   8.986  22.813  0.00  0.00    +0.000 OA
ATOM      7  C   UNL     1       0.903   9.009  21.458  0.00  0.00    +0.000 A 
ATOM      8  C   UNL     1       0.197  10.085  21.038  0.00  0.00    +0.000 A 
ATOM      9  C   UNL     1       0.044  10.320  19.694  0.00  0.00    +0.000 A 
ATOM     10  C   UNL     1       0.919   9.620  18.743  0.00  0.00    +0.000 C 
ATOM     11  O   UNL     1       1.029  10.031  17.597  0.00  0.00    +0.000 OA
ATOM     12  C   UNL     1       1.653   8.405  19.243  0.00  0.00    +0.000 A 
ATOM     13  C   UNL     1       2.322   7.598  18.329  0.00  0.00    +0.000 A 
ATOM     14  C   UNL     1       2.759   6.342  18.739  0.00  0.00    +0.000 A 
ATOM     15  C   UNL     1       2.535   5.911  20.053  0.00  0.00    +0.000 A 
ATOM     16  C   UNL     1       1.961   6.767  21.003  0.00  0.00    +0.000 A 
ATOM     17  C   UNL     1       1.544   8.034  20.609  0.00  0.00    +0.000 A 
ENDROOT
BRANCH   3  18
ATOM     18  N   UNL     1      -1.809  12.730  22.832  0.00  0.00    +0.000 N 
ATOM     19  C   UNL     1      -2.820  12.287  23.795  0.00  0.00    +0.000 C 
ATOM     20  C   UNL     1      -3.629  13.543  24.214  0.00  0.00    +0.000 C 
ATOM     21  N   UNL     1      -2.787  14.628  24.783  0.00  0.00    +0.000 NA
ATOM     22  C   UNL     1      -3.595  15.819  25.032  0.00  0.00    +0.000 C 
ATOM     23  C   UNL     1      -1.685  14.958  23.849  0.00  0.00    +0.000 C 
ATOM     24  C   UNL     1      -0.878  13.716  23.427  0.00  0.00    +0.000 C 
ENDBRANCH   3  18
BRANCH   1  25
ATOM     25  N   UNL     1      -1.608  11.271  18.175  0.00  0.00    +0.000 N 
ATOM     26  H   UNL     1      -1.073  10.789  17.450  0.00  0.00    +0.000 HD
BRANCH  25  30
ATOM     27  C   UNL     1      -5.695  11.995  17.267  0.00  0.00    +0.000 A 
ATOM     28  C   UNL     1      -5.163  12.254  18.528  0.00  0.00    +0.000 A 
ATOM     29  C   UNL     1      -3.803  12.049  18.792  0.00  0.00    +0.000 A 
ATOM     30  C   UNL     1      -2.944  11.550  17.812  0.00  0.00    +0.000 A 
ATOM     31  C   UNL     1      -3.490  11.269  16.548  0.00  0.00    +0.000 A 
ATOM     32  C   UNL     1      -4.850  11.500  16.273  0.00  0.00    +0.000 A 
BRANCH  27  34
ATOM     33  C   UNL     1      -7.635  13.036  18.147  0.00  0.00    +0.000 C 
ATOM     34  O   UNL     1      -7.040  12.217  17.152  0.00  0.00    +0.000 OA
ENDBRANCH  27  34
ENDBRANCH  25  30
ENDBRANCH   1  25
TORSDOF 4
ENDMDL
MODEL 9
REMARK VINA RESULT:      -7.8      3.320      6.318
REMARK  Name = 
REMARK  6 active torsions:
REMARK  status: ('A' for Active; 'I' for Inactive)
REMARK    1  A    between atoms: C_1  and  O_2
REMARK    2  A    between atoms: O_2  and  C_3
REMARK    3  A    between atoms: C_6  and  N_7
REMARK    4  A    between atoms: N_7  and  C_8
REMARK    5  A    between atoms: C_10  and  N_11
REMARK    6  A    between atoms: N_14  and  C_15
REMARK                            x       y       z     vdW  Elec       q    Type
REMARK                         _______ _______ _______ _____ _____    ______ ____
ROOT
ATOM      1  C   UNL     1      -1.187  12.728  20.794  0.00  0.00    +0.000 A 
ATOM      2  C   UNL     1      -1.809  13.675  21.679  0.00  0.00    +0.000 A 
ATOM      3  C   UNL     1      -3.207  14.017  21.740  0.00  0.00    +0.000 A 
ATOM      4  C   UNL     1      -3.905  13.475  20.620  0.00  0.00    +0.000 A 
ATOM      5  N   UNL     1      -5.153  13.640  20.111  0.00  0.00    +0.000 NA
ATOM      6  O   UNL     1      -5.208  12.880  18.914  0.00  0.00    +0.000 OA
ATOM      7  C   UNL     1      -4.037  12.212  18.769  0.00  0.00    +0.000 A 
ATOM      8  C   UNL     1      -3.244  12.522  19.821  0.00  0.00    +0.000 A 
ATOM      9  C   UNL     1      -1.975  12.003  19.898  0.00  0.00    +0.000 A 
ATOM     10  C   UNL     1      -1.619  10.863  19.041  0.00  0.00    +0.000 C 
ATOM     11  O   UNL     1      -0.634  10.187  19.303  0.00  0.00    +0.000 OA
ATOM     12  C   UNL     1      -2.507  10.580  17.859  0.00  0.00    +0.000 A 
ATOM     13  C   UNL     1      -2.093   9.649  16.912  0.00  0.00    +0.000 A 
ATOM     14  C   UNL     1      -2.765   9.590  15.695  0.00  0.00    +0.000 A 
ATOM     15  C   UNL     1      -3.843  10.447  15.441  0.00  0.00    +0.000 A 
ATOM     16  C   UNL     1      -4.329  11.306  16.436  0.00  0.00    +0.000 A 
ATOM     17  C   UNL     1      -3.681  11.354  17.665  0.00  0.00    +0.000 A 
ENDROOT
BRANCH   3  18
ATOM     18  N   UNL     1      -3.638  14.847  22.768  0.00  0.00    +0.000 N 
ATOM     19  C   UNL     1      -4.787  14.480  23.598  0.00  0.00    +0.000 C 
ATOM     20  C   UNL     1      -5.333  15.791  24.223  0.00  0.00    +0.000 C 
ATOM     21  N   UNL     1      -4.319  16.539  25.013  0.00  0.00    +0.000 NA
ATOM     22  C   UNL     1      -4.866  17.818  25.458  0.00  0.00    +0.000 C 
ATOM     23  C   UNL     1      -3.108  16.772  24.191  0.00  0.00    +0.000 C 
ATOM     24  C   UNL     1      -2.560  15.475  23.567  0.00  0.00    +0.000 C 
ENDBRANCH   3  18
BRANCH   1  25
ATOM     25  N   UNL     1       0.220  12.641  20.741  0.00  0.00    +0.000 N 
ATOM     26  H   UNL     1       0.587  11.750  21.079  0.00  0.00    +0.000 HD
BRANCH  25  30
ATOM     27  C   UNL     1       3.130  14.700  18.427  0.00  0.00    +0.000 A 
ATOM     28  C   UNL     1       2.600  13.476  18.026  0.00  0.00    +0.000 A 
ATOM     29  C   UNL     1       1.610  12.837  18.782  0.00  0.00    +0.000 A 
ATOM     30  C   UNL     1       1.144  13.388  19.977  0.00  0.00    +0.000 A 
ATOM     31  C   UNL     1       1.698  14.612  20.389  0.00  0.00    +0.000 A 
ATOM     32  C   UNL     1       2.673  15.269  19.617  0.00  0.00    +0.000 A 
BRANCH  27  34
ATOM     33  C   UNL     1       5.446  15.018  18.036  0.00  0.00    +0.000 C 
ATOM     34  O   UNL     1       4.104  15.203  17.610  0.00  0.00    +0.000 OA
ENDBRANCH  27  34
ENDBRANCH  25  30
ENDBRANCH   1  25
TORSDOF 4
ENDMDL
