MODEL 1
REMARK VINA RESULT:      -8.0      0.000      0.000
REMARK  Name = 
REMARK  11 active torsions:
REMARK  status: ('A' for Active; 'I' for Inactive)
REMARK    1  A    between atoms: C_1  and  C_2
REMARK    2  A    between atoms: N_6  and  C_7
REMARK    3  A    between atoms: C_10  and  C_11
REMARK    4  A    between atoms: C_14  and  C_15
REMARK    5  A    between atoms: C_15  and  C_16
REMARK    6  A    between atoms: C_16  and  C_17
REMARK    7  A    between atoms: C_17  and  O_19
REMARK    8  A    between atoms: N_20  and  C_21
REMARK    9  A    between atoms: C_24  and  N_25
REMARK   10  A    between atoms: N_25  and  S_26
REMARK   11  A    between atoms: S_26  and  C_27
REMARK                            x       y       z     vdW  Elec       q    Type
REMARK                         _______ _______ _______ _____ _____    ______ ____
ROOT
ATOM      1  C   UNL     1       2.139   5.717  20.490  0.00  0.00    +0.000 A 
ATOM      2  C   UNL     1       1.610   4.904  21.477  0.00  0.00    +0.000 A 
ATOM      3  C   UNL     1       2.136   3.613  21.317  0.00  0.00    +0.000 A 
ATOM      4  C   UNL     1       3.031   3.626  20.260  0.00  0.00    +0.000 A 
ATOM      5  N   UNL     1       3.062   4.940  19.752  0.00  0.00    +0.000 N 
ENDROOT
BRANCH   1   9
ATOM      6  C   UNL     1       0.958   9.782  19.763  0.00  0.00    +0.000 A 
ATOM      7  C   UNL     1       1.660   9.072  18.783  0.00  0.00    +0.000 A 
ATOM      8  C   UNL     1       2.059   7.751  19.029  0.00  0.00    +0.000 A 
ATOM      9  C   UNL     1       1.783   7.133  20.260  0.00  0.00    +0.000 A 
ATOM     10  C   UNL     1       1.106   7.877  21.234  0.00  0.00    +0.000 A 
ATOM     11  C   UNL     1       0.636   9.158  20.966  0.00  0.00    +0.000 A 
BRANCH   6  17
ATOM     12  C   UNL     1      -1.659  10.728  18.325  0.00  0.00    +0.000 C 
ATOM     13  C   UNL     1      -0.545  11.583  18.827  0.00  0.00    +0.000 A 
ATOM     14  N   UNL     1      -0.546  12.901  18.768  0.00  0.00    +0.000 NA
ATOM     15  C   UNL     1       0.535  13.310  19.492  0.00  0.00    +0.000 A 
ATOM     16  C   UNL     1       1.215  12.235  20.000  0.00  0.00    +0.000 A 
ATOM     17  N   UNL     1       0.561  11.116  19.533  0.00  0.00    +0.000 N 
ENDBRANCH   6  17
ENDBRANCH   1   9
BRANCH   5  18
ATOM     18  C   UNL     1       3.975   5.442  18.761  0.00  0.00    +0.000 A 
ATOM     19  C   UNL     1       3.552   5.787  17.475  0.00  0.00    +0.000 A 
ATOM     20  C   UNL     1       4.498   6.094  16.489  0.00  0.00    +0.000 A 
ATOM     21  C   UNL     1       5.853   6.187  16.822  0.00  0.00    +0.000 A 
ATOM     22  C   UNL     1       6.263   5.990  18.128  0.00  0.00    +0.000 A 
ATOM     23  C   UNL     1       5.340   5.564  19.072  0.00  0.00    +0.000 A 
BRANCH  21  24
ATOM     24  N   UNL     1       6.851   6.357  15.844  0.00  0.00    +0.000 N 
ATOM     25  H   UNL     1       7.555   7.072  16.031  0.00  0.00    +0.000 HD
BRANCH  24  26
ATOM     26  S   UNL     1       7.493   5.026  15.062  0.00  0.00    +0.000 S 
ATOM     27  C   UNL     1       6.017   4.321  14.326  0.00  0.00    +0.000 C 
ATOM     28  O   UNL     1       8.303   5.535  13.991  0.00  0.00    +0.000 OA
ATOM     29  O   UNL     1       8.012   4.091  16.029  0.00  0.00    +0.000 OA
ENDBRANCH  24  26
ENDBRANCH  21  24
ENDBRANCH   5  18
BRANCH   4  30
ATOM     30  C   UNL     1       3.959   2.480  19.891  0.00  0.00    +0.000 C 
BRANCH  30  31
ATOM     31  C   UNL     1       3.751   1.997  18.452  0.00  0.00    +0.000 C 
BRANCH  31  32
ATOM     32  C   UNL     1       2.334   2.192  17.957  0.00  0.00    +0.000 C 
ATOM     33  O   UNL     1       1.990   2.944  17.060  0.00  0.00    +0.000 OA
BRANCH  32  34
ATOM     34  O   UNL     1       1.454   1.415  18.641  0.00  0.00    +0.000 OA
ATOM     35  H   UNL     1       1.319   0.531  18.270  0.00  0.00    +0.000 HD
ENDBRANCH  32  34
ENDBRANCH  31  32
ENDBRANCH  30  31
ENDBRANCH   4  30
TORSDOF 9
ENDMDL
MODEL 2
REMARK VINA RESULT:      -7.8      4.109      7.386
REMARK  Name = 
REMARK  11 active torsions:
REMARK  status: ('A' for Active; 'I' for Inactive)
REMARK    1  A    between atoms: C_1  and  C_2
REMARK    2  A    between atoms: N_6  and  C_7
REMARK    3  A    between atoms: C_10  and  C_11
REMARK    4  A    between atoms: C_14  and  C_15
REMARK    5  A    between atoms: C_15  and  C_16
REMARK    6  A    between atoms: C_16  and  C_17
REMARK    7  A    between atoms: C_17  and  O_19
REMARK    8  A    between atoms: N_20  and  C_21
REMARK    9  A    between atoms: C_24  and  N_25
REMARK   10  A    between atoms: N_25  and  S_26
REMARK   11  A    between atoms: S_26  and  C_27
REMARK                            x       y       z     vdW  Elec       q    Type
REMARK                         _______ _______ _______ _____ _____    ______ ____
ROOT
ATOM      1  C   UNL     1       0.176  12.450  18.951  0.00  0.00    +0.000 A 
ATOM      2  C   UNL     1      -0.997  13.143  18.709  0.00  0.00    +0.000 A 
ATOM      3  C   UNL     1      -1.939  12.249  18.178  0.00  0.00    +0.000 A 
ATOM      4  C   UNL     1      -1.374  10.985  18.131  0.00  0.00    +0.000 A 
ATOM      5  N   UNL     1      -0.063  11.092  18.636  0.00  0.00    +0.000 N 
ENDROOT
BRANCH   1   9
ATOM      6  C   UNL     1       3.780  14.317  20.355  0.00  0.00    +0.000 A 
ATOM      7  C   UNL     1       3.625  14.033  18.993  0.00  0.00    +0.000 A 
ATOM      8  C   UNL     1       2.454  13.408  18.540  0.00  0.00    +0.000 A 
ATOM      9  C   UNL     1       1.440  13.041  19.439  0.00  0.00    +0.000 A 
ATOM     10  C   UNL     1       1.635  13.310  20.799  0.00  0.00    +0.000 A 
ATOM     11  C   UNL     1       2.755  14.003  21.244  0.00  0.00    +0.000 A 
BRANCH   6  17
ATOM     12  C   UNL     1       4.420  17.384  20.324  0.00  0.00    +0.000 C 
ATOM     13  C   UNL     1       5.321  16.278  20.757  0.00  0.00    +0.000 A 
ATOM     14  N   UNL     1       6.533  16.466  21.244  0.00  0.00    +0.000 NA
ATOM     15  C   UNL     1       6.949  15.247  21.695  0.00  0.00    +0.000 A 
ATOM     16  C   UNL     1       5.988  14.294  21.480  0.00  0.00    +0.000 A 
ATOM     17  N   UNL     1       4.958  14.935  20.826  0.00  0.00    +0.000 N 
ENDBRANCH   6  17
ENDBRANCH   1   9
BRANCH   5  18
ATOM     18  C   UNL     1       0.824   9.998  18.921  0.00  0.00    +0.000 A 
ATOM     19  C   UNL     1       1.694   9.482  17.957  0.00  0.00    +0.000 A 
ATOM     20  C   UNL     1       2.404   8.303  18.218  0.00  0.00    +0.000 A 
ATOM     21  C   UNL     1       2.349   7.718  19.487  0.00  0.00    +0.000 A 
ATOM     22  C   UNL     1       1.604   8.306  20.492  0.00  0.00    +0.000 A 
ATOM     23  C   UNL     1       0.805   9.401  20.193  0.00  0.00    +0.000 A 
BRANCH  21  24
ATOM     24  N   UNL     1       2.933   6.466  19.756  0.00  0.00    +0.000 N 
ATOM     25  H   UNL     1       3.475   6.391  20.618  0.00  0.00    +0.000 HD
BRANCH  24  26
ATOM     26  S   UNL     1       2.094   5.060  19.414  0.00  0.00    +0.000 S 
ATOM     27  C   UNL     1       3.368   3.829  19.697  0.00  0.00    +0.000 C 
ATOM     28  O   UNL     1       1.115   4.908  20.455  0.00  0.00    +0.000 OA
ATOM     29  O   UNL     1       1.733   5.030  18.020  0.00  0.00    +0.000 OA
ENDBRANCH  24  26
ENDBRANCH  21  24
ENDBRANCH   5  18
BRANCH   4  30
ATOM     30  C   UNL     1      -2.129   9.706  17.807  0.00  0.00    +0.000 C 
BRANCH  30  31
ATOM     31  C   UNL     1      -3.392   9.965  16.981  0.00  0.00    +0.000 C 
BRANCH  31  32
ATOM     32  C   UNL     1      -3.099  10.320  15.539  0.00  0.00    +0.000 C 
ATOM     33  O   UNL     1      -2.632   9.568  14.701  0.00  0.00    +0.000 OA
BRANCH  32  34
ATOM     34  O   UNL     1      -3.421  11.612  15.268  0.00  0.00    +0.000 OA
ATOM     35  H   UNL     1      -4.367  11.814  15.317  0.00  0.00    +0.000 HD
ENDBRANCH  32  34
ENDBRANCH  31  32
ENDBRANCH  30  31
ENDBRANCH   4  30
TORSDOF 9
ENDMDL
MODEL 3
REMARK VINA RESULT:      -7.8      5.416      8.826
REMARK  Name = 
REMARK  11 active torsions:
REMARK  status: ('A' for Active; 'I' for Inactive)
REMARK    1  A    between atoms: C_1  and  C_2
REMARK    2  A    between atoms: N_6  and  C_7
REMARK    3  A    between atoms: C_10  and  C_11
REMARK    4  A    between atoms: C_14  and  C_15
REMARK    5  A    between atoms: C_15  and  C_16
REMARK    6  A    between atoms: C_16  and  C_17
REMARK    7  A    between atoms: C_17  and  O_19
REMARK    8  A    between atoms: N_20  and  C_21
REMARK    9  A    between atoms: C_24  and  N_25
REMARK   10  A    between atoms: N_25  and  S_26
REMARK   11  A    between atoms: S_26  and  C_27
REMARK                            x       y       z     vdW  Elec       q    Type
REMARK                         _______ _______ _______ _____ _____    ______ ____
ROOT
ATOM      1  C   UNL     1       0.199   9.712  21.514  0.00  0.00    +0.000 A 
ATOM      2  C   UNL     1      -0.649   9.221  22.490  0.00  0.00    +0.000 A 
ATOM      3  C   UNL     1      -1.214  10.307  23.176  0.00  0.00    +0.000 A 
ATOM      4  C   UNL     1      -0.757  11.481  22.599  0.00  0.00    +0.000 A 
ATOM      5  N   UNL     1       0.105  11.123  21.543  0.00  0.00    +0.000 N 
ENDROOT
BRANCH   1   9
ATOM      6  C   UNL     1       2.530   7.264  18.865  0.00  0.00    +0.000 A 
ATOM      7  C   UNL     1       2.320   6.859  20.188  0.00  0.00    +0.000 A 
ATOM      8  C   UNL     1       1.573   7.668  21.055  0.00  0.00    +0.000 A 
ATOM      9  C   UNL     1       1.048   8.896  20.621  0.00  0.00    +0.000 A 
ATOM     10  C   UNL     1       1.300   9.291  19.301  0.00  0.00    +0.000 A 
ATOM     11  C   UNL     1       1.969   8.456  18.414  0.00  0.00    +0.000 A 
BRANCH   6  17
ATOM     12  C   UNL     1       1.830   4.368  17.897  0.00  0.00    +0.000 C 
ATOM     13  C   UNL     1       3.064   5.148  17.594  0.00  0.00    +0.000 A 
ATOM     14  N   UNL     1       4.033   4.714  16.810  0.00  0.00    +0.000 NA
ATOM     15  C   UNL     1       4.874   5.773  16.632  0.00  0.00    +0.000 A 
ATOM     16  C   UNL     1       4.425   6.872  17.317  0.00  0.00    +0.000 A 
ATOM     17  N   UNL     1       3.290   6.465  17.984  0.00  0.00    +0.000 N 
ENDBRANCH   6  17
ENDBRANCH   1   9
BRANCH   5  18
ATOM     18  C   UNL     1       0.670  12.021  20.574  0.00  0.00    +0.000 A 
ATOM     19  C   UNL     1      -0.017  12.380  19.411  0.00  0.00    +0.000 A 
ATOM     20  C   UNL     1       0.639  13.106  18.409  0.00  0.00    +0.000 A 
ATOM     21  C   UNL     1       1.934  13.587  18.626  0.00  0.00    +0.000 A 
ATOM     22  C   UNL     1       2.567  13.360  19.834  0.00  0.00    +0.000 A 
ATOM     23  C   UNL     1       1.962  12.536  20.773  0.00  0.00    +0.000 A 
BRANCH  21  24
ATOM     24  N   UNL     1       2.682  14.200  17.603  0.00  0.00    +0.000 N 
ATOM     25  H   UNL     1       2.350  14.059  16.648  0.00  0.00    +0.000 HD
BRANCH  24  26
ATOM     26  S   UNL     1       3.315  15.731  17.832  0.00  0.00    +0.000 S 
ATOM     27  C   UNL     1       5.049  15.347  18.081  0.00  0.00    +0.000 C 
ATOM     28  O   UNL     1       3.205  16.409  16.570  0.00  0.00    +0.000 OA
ATOM     29  O   UNL     1       2.794  16.301  19.049  0.00  0.00    +0.000 OA
ENDBRANCH  24  26
ENDBRANCH  21  24
ENDBRANCH   5  18
BRANCH   4  30
ATOM     30  C   UNL     1      -1.285  12.871  22.920  0.00  0.00    +0.000 C 
BRANCH  30  31
ATOM     31  C   UNL     1      -2.558  13.209  22.138  0.00  0.00    +0.000 C 
BRANCH  31  32
ATOM     32  C   UNL     1      -3.822  12.737  22.823  0.00  0.00    +0.000 C 
ATOM     33  O   UNL     1      -4.849  12.391  22.264  0.00  0.00    +0.000 OA
BRANCH  32  34
ATOM     34  O   UNL     1      -3.688  12.741  24.175  0.00  0.00    +0.000 OA
ATOM     35  H   UNL     1      -4.516  12.630  24.666  0.00  0.00    +0.000 HD
ENDBRANCH  32  34
ENDBRANCH  31  32
ENDBRANCH  30  31
ENDBRANCH   4  30
TORSDOF 9
ENDMDL
MODEL 4
REMARK VINA RESULT:      -7.7      1.546      1.938
REMARK  Name = 
REMARK  11 active torsions:
REMARK  status: ('A' for Active; 'I' for Inactive)
REMARK    1  A    between atoms: C_1  and  C_2
REMARK    2  A    between atoms: N_6  and  C_7
REMARK    3  A    between atoms: C_10  and  C_11
REMARK    4  A    between atoms: C_14  and  C_15
REMARK    5  A    between atoms: C_15  and  C_16
REMARK    6  A    between atoms: C_16  and  C_17
REMARK    7  A    between atoms: C_17  and  O_19
REMARK    8  A    between atoms: N_20  and  C_21
REMARK    9  A    between atoms: C_24  and  N_25
REMARK   10  A    between atoms: N_25  and  S_26
REMARK   11  A    between atoms: S_26  and  C_27
REMARK                            x       y       z     vdW  Elec       q    Type
REMARK                         _______ _______ _______ _____ _____    ______ ____
ROOT
ATOM      1  C   UNL     1       1.969   5.689  20.097  0.00  0.00    +0.000 A 
ATOM      2  C   UNL     1       1.346   5.060  21.160  0.00  0.00    +0.000 A 
ATOM      3  C   UNL     1       1.656   3.693  21.112  0.00  0.00    +0.000 A 
ATOM      4  C   UNL     1       2.513   3.471  20.046  0.00  0.00    +0.000 A 
ATOM      5  N   UNL     1       2.737   4.713  19.420  0.00  0.00    +0.000 N 
ENDROOT
BRANCH   1   9
ATOM      6  C   UNL     1       1.417   9.818  19.051  0.00  0.00    +0.000 A 
ATOM      7  C   UNL     1       1.731   8.882  18.060  0.00  0.00    +0.000 A 
ATOM      8  C   UNL     1       1.927   7.538  18.406  0.00  0.00    +0.000 A 
ATOM      9  C   UNL     1       1.835   7.118  19.743  0.00  0.00    +0.000 A 
ATOM     10  C   UNL     1       1.550   8.082  20.718  0.00  0.00    +0.000 A 
ATOM     11  C   UNL     1       1.274   9.399  20.371  0.00  0.00    +0.000 A 
BRANCH   6  17
ATOM     12  C   UNL     1      -1.301  11.375  19.030  0.00  0.00    +0.000 C 
ATOM     13  C   UNL     1       0.036  11.887  18.613  0.00  0.00    +0.000 A 
ATOM     14  N   UNL     1       0.256  13.124  18.211  0.00  0.00    +0.000 NA
ATOM     15  C   UNL     1       1.611  13.250  18.109  0.00  0.00    +0.000 A 
ATOM     16  C   UNL     1       2.235  12.078  18.445  0.00  0.00    +0.000 A 
ATOM     17  N   UNL     1       1.229  11.177  18.718  0.00  0.00    +0.000 N 
ENDBRANCH   6  17
ENDBRANCH   1   9
BRANCH   5  18
ATOM     18  C   UNL     1       3.691   4.973  18.376  0.00  0.00    +0.000 A 
ATOM     19  C   UNL     1       4.706   5.922  18.524  0.00  0.00    +0.000 A 
ATOM     20  C   UNL     1       5.496   6.275  17.422  0.00  0.00    +0.000 A 
ATOM     21  C   UNL     1       5.360   5.586  16.213  0.00  0.00    +0.000 A 
ATOM     22  C   UNL     1       4.457   4.545  16.103  0.00  0.00    +0.000 A 
ATOM     23  C   UNL     1       3.592   4.283  17.156  0.00  0.00    +0.000 A 
BRANCH  21  24
ATOM     24  N   UNL     1       6.031   5.993  15.044  0.00  0.00    +0.000 N 
ATOM     25  H   UNL     1       6.226   6.991  14.955  0.00  0.00    +0.000 HD
BRANCH  24  26
ATOM     26  S   UNL     1       7.259   5.049  14.413  0.00  0.00    +0.000 S 
ATOM     27  C   UNL     1       6.315   3.861  13.457  0.00  0.00    +0.000 C 
ATOM     28  O   UNL     1       7.970   5.880  13.479  0.00  0.00    +0.000 OA
ATOM     29  O   UNL     1       7.935   4.348  15.474  0.00  0.00    +0.000 OA
ENDBRANCH  24  26
ENDBRANCH  21  24
ENDBRANCH   5  18
BRANCH   4  30
ATOM     30  C   UNL     1       3.238   2.163  19.771  0.00  0.00    +0.000 C 
BRANCH  30  31
ATOM     31  C   UNL     1       4.739   2.253  20.057  0.00  0.00    +0.000 C 
BRANCH  31  32
ATOM     32  C   UNL     1       5.293   1.019  20.735  0.00  0.00    +0.000 C 
ATOM     33  O   UNL     1       5.655   0.946  21.897  0.00  0.00    +0.000 OA
BRANCH  32  34
ATOM     34  O   UNL     1       5.348  -0.037  19.882  0.00  0.00    +0.000 OA
ATOM     35  H   UNL     1       6.131  -0.598  19.979  0.00  0.00    +0.000 HD
ENDBRANCH  32  34
ENDBRANCH  31  32
ENDBRANCH  30  31
ENDBRANCH   4  30
TORSDOF 9
ENDMDL
MODEL 5
REMARK VINA RESULT:      -7.7      5.598      8.947
REMARK  Name = 
REMARK  11 active torsions:
REMARK  status: ('A' for Active; 'I' for Inactive)
REMARK    1  A    between atoms: C_1  and  C_2
REMARK    2  A    between atoms: N_6  and  C_7
REMARK    3  A    between atoms: C_10  and  C_11
REMARK    4  A    between atoms: C_14  and  C_15
REMARK    5  A    between atoms: C_15  and  C_16
REMARK    6  A    between atoms: C_16  and  C_17
REMARK    7  A    between atoms: C_17  and  O_19
REMARK    8  A    between atoms: N_20  and  C_21
REMARK    9  A    between atoms: C_24  and  N_25
REMARK   10  A    between atoms: N_25  and  S_26
REMARK   11  A    between atoms: S_26  and  C_27
REMARK                            x       y       z     vdW  Elec       q    Type
REMARK                         _______ _______ _______ _____ _____    ______ ____
ROOT
ATOM      1  C   UNL     1       0.100   9.833  21.500  0.00  0.00    +0.000 A 
ATOM      2  C   UNL     1      -0.750   9.376  22.491  0.00  0.00    +0.000 A 
ATOM      3  C   UNL     1      -1.234  10.481  23.207  0.00  0.00    +0.000 A 
ATOM      4  C   UNL     1      -0.724  11.636  22.636  0.00  0.00    +0.000 A 
ATOM      5  N   UNL     1       0.088  11.247  21.553  0.00  0.00    +0.000 N 
ENDROOT
BRANCH   1   9
ATOM      6  C   UNL     1       2.496   7.441  18.858  0.00  0.00    +0.000 A 
ATOM      7  C   UNL     1       1.926   8.633  18.397  0.00  0.00    +0.000 A 
ATOM      8  C   UNL     1       1.130   9.404  19.257  0.00  0.00    +0.000 A 
ATOM      9  C   UNL     1       0.877   8.984  20.573  0.00  0.00    +0.000 A 
ATOM     10  C   UNL     1       1.435   7.772  20.997  0.00  0.00    +0.000 A 
ATOM     11  C   UNL     1       2.292   7.046  20.177  0.00  0.00    +0.000 A 
BRANCH   6  17
ATOM     12  C   UNL     1       1.902   4.503  17.947  0.00  0.00    +0.000 C 
ATOM     13  C   UNL     1       3.111   5.318  17.636  0.00  0.00    +0.000 A 
ATOM     14  N   UNL     1       4.100   4.901  16.868  0.00  0.00    +0.000 NA
ATOM     15  C   UNL     1       4.906   5.984  16.672  0.00  0.00    +0.000 A 
ATOM     16  C   UNL     1       4.415   7.081  17.331  0.00  0.00    +0.000 A 
ATOM     17  N   UNL     1       3.290   6.650  18.000  0.00  0.00    +0.000 N 
ENDBRANCH   6  17
ENDBRANCH   1   9
BRANCH   5  18
ATOM     18  C   UNL     1       0.680  12.126  20.582  0.00  0.00    +0.000 A 
ATOM     19  C   UNL     1       0.002  12.507  19.420  0.00  0.00    +0.000 A 
ATOM     20  C   UNL     1       0.679  13.211  18.417  0.00  0.00    +0.000 A 
ATOM     21  C   UNL     1       1.990  13.651  18.631  0.00  0.00    +0.000 A 
ATOM     22  C   UNL     1       2.617  13.404  19.839  0.00  0.00    +0.000 A 
ATOM     23  C   UNL     1       1.988  12.600  20.778  0.00  0.00    +0.000 A 
BRANCH  21  24
ATOM     24  N   UNL     1       2.754  14.240  17.607  0.00  0.00    +0.000 N 
ATOM     25  H   UNL     1       2.463  14.043  16.649  0.00  0.00    +0.000 HD
BRANCH  24  26
ATOM     26  S   UNL     1       3.328  15.801  17.784  0.00  0.00    +0.000 S 
ATOM     27  C   UNL     1       5.058  15.487  18.137  0.00  0.00    +0.000 C 
ATOM     28  O   UNL     1       3.261  16.408  16.483  0.00  0.00    +0.000 OA
ATOM     29  O   UNL     1       2.730  16.417  18.942  0.00  0.00    +0.000 OA
ENDBRANCH  24  26
ENDBRANCH  21  24
ENDBRANCH   5  18
BRANCH   4  30
ATOM     30  C   UNL     1      -1.163  13.048  22.991  0.00  0.00    +0.000 C 
BRANCH  30  31
ATOM     31  C   UNL     1      -2.665  13.264  22.786  0.00  0.00    +0.000 C 
BRANCH  31  32
ATOM     32  C   UNL     1      -3.451  13.251  24.079  0.00  0.00    +0.000 C 
ATOM     33  O   UNL     1      -3.424  14.115  24.939  0.00  0.00    +0.000 OA
BRANCH  32  34
ATOM     34  O   UNL     1      -4.217  12.133  24.186  0.00  0.00    +0.000 OA
ATOM     35  H   UNL     1      -4.065  11.611  24.987  0.00  0.00    +0.000 HD
ENDBRANCH  32  34
ENDBRANCH  31  32
ENDBRANCH  30  31
ENDBRANCH   4  30
TORSDOF 9
ENDMDL
MODEL 6
REMARK VINA RESULT:      -7.6      5.507      9.160
REMARK  Name = 
REMARK  11 active torsions:
REMARK  status: ('A' for Active; 'I' for Inactive)
REMARK    1  A    between atoms: C_1  and  C_2
REMARK    2  A    between atoms: N_6  and  C_7
REMARK    3  A    between atoms: C_10  and  C_11
REMARK    4  A    between atoms: C_14  and  C_15
REMARK    5  A    between atoms: C_15  and  C_16
REMARK    6  A    between atoms: C_16  and  C_17
REMARK    7  A    between atoms: C_17  and  O_19
REMARK    8  A    between atoms: N_20  and  C_21
REMARK    9  A    between atoms: C_24  and  N_25
REMARK   10  A    between atoms: N_25  and  S_26
REMARK   11  A    between atoms: S_26  and  C_27
REMARK                            x       y       z     vdW  Elec       q    Type
REMARK                         _______ _______ _______ _____ _____    ______ ____
ROOT
ATOM      1  C   UNL     1       0.134  10.124  21.347  0.00  0.00    +0.000 A 
ATOM      2  C   UNL     1      -0.808   9.764  22.295  0.00  0.00    +0.000 A 
ATOM      3  C   UNL     1      -1.225  10.922  22.968  0.00  0.00    +0.000 A 
ATOM      4  C   UNL     1      -0.581  12.015  22.411  0.00  0.00    +0.000 A 
ATOM      5  N   UNL     1       0.250  11.533  21.381  0.00  0.00    +0.000 N 
ENDROOT
BRANCH   1   9
ATOM      6  C   UNL     1       2.440   7.486  18.864  0.00  0.00    +0.000 A 
ATOM      7  C   UNL     1       1.908   8.663  18.327  0.00  0.00    +0.000 A 
ATOM      8  C   UNL     1       1.141   9.514  19.136  0.00  0.00    +0.000 A 
ATOM      9  C   UNL     1       0.879   9.191  20.477  0.00  0.00    +0.000 A 
ATOM     10  C   UNL     1       1.398   7.991  20.978  0.00  0.00    +0.000 A 
ATOM     11  C   UNL     1       2.227   7.184  20.206  0.00  0.00    +0.000 A 
BRANCH   6  17
ATOM     12  C   UNL     1       1.713   4.536  18.096  0.00  0.00    +0.000 C 
ATOM     13  C   UNL     1       2.964   5.275  17.760  0.00  0.00    +0.000 A 
ATOM     14  N   UNL     1       3.940   4.772  17.028  0.00  0.00    +0.000 NA
ATOM     15  C   UNL     1       4.800   5.803  16.789  0.00  0.00    +0.000 A 
ATOM     16  C   UNL     1       4.355   6.955  17.384  0.00  0.00    +0.000 A 
ATOM     17  N   UNL     1       3.203   6.614  18.058  0.00  0.00    +0.000 N 
ENDBRANCH   6  17
ENDBRANCH   1   9
BRANCH   5  18
ATOM     18  C   UNL     1       0.972  12.337  20.433  0.00  0.00    +0.000 A 
ATOM     19  C   UNL     1       2.253  12.826  20.704  0.00  0.00    +0.000 A 
ATOM     20  C   UNL     1       2.843  13.753  19.836  0.00  0.00    +0.000 A 
ATOM     21  C   UNL     1       2.214  14.087  18.632  0.00  0.00    +0.000 A 
ATOM     22  C   UNL     1       1.014  13.493  18.288  0.00  0.00    +0.000 A 
ATOM     23  C   UNL     1       0.373  12.673  19.207  0.00  0.00    +0.000 A 
BRANCH  21  24
ATOM     24  N   UNL     1       2.699  15.109  17.796  0.00  0.00    +0.000 N 
ATOM     25  H   UNL     1       2.503  15.014  16.799  0.00  0.00    +0.000 HD
BRANCH  24  26
ATOM     26  S   UNL     1       2.641  16.702  18.302  0.00  0.00    +0.000 S 
ATOM     27  C   UNL     1       2.221  17.529  16.767  0.00  0.00    +0.000 C 
ATOM     28  O   UNL     1       1.502  16.811  19.171  0.00  0.00    +0.000 OA
ATOM     29  O   UNL     1       3.953  17.137  18.710  0.00  0.00    +0.000 OA
ENDBRANCH  24  26
ENDBRANCH  21  24
ENDBRANCH   5  18
BRANCH   4  30
ATOM     30  C   UNL     1      -0.906  13.467  22.722  0.00  0.00    +0.000 C 
BRANCH  30  31
ATOM     31  C   UNL     1      -2.366  13.819  22.419  0.00  0.00    +0.000 C 
BRANCH  31  32
ATOM     32  C   UNL     1      -2.715  13.703  20.951  0.00  0.00    +0.000 C 
ATOM     33  O   UNL     1      -3.335  12.788  20.436  0.00  0.00    +0.000 OA
BRANCH  32  34
ATOM     34  O   UNL     1      -2.246  14.763  20.241  0.00  0.00    +0.000 OA
ATOM     35  H   UNL     1      -1.321  14.989  20.412  0.00  0.00    +0.000 HD
ENDBRANCH  32  34
ENDBRANCH  31  32
ENDBRANCH  30  31
ENDBRANCH   4  30
TORSDOF 9
ENDMDL
MODEL 7
REMARK VINA RESULT:      -7.6      5.491      8.948
REMARK  Name = 
REMARK  11 active torsions:
REMARK  status: ('A' for Active; 'I' for Inactive)
REMARK    1  A    between atoms: C_1  and  C_2
REMARK    2  A    between atoms: N_6  and  C_7
REMARK    3  A    between atoms: C_10  and  C_11
REMARK    4  A    between atoms: C_14  and  C_15
REMARK    5  A    between atoms: C_15  and  C_16
REMARK    6  A    between atoms: C_16  and  C_17
REMARK    7  A    between atoms: C_17  and  O_19
REMARK    8  A    between atoms: N_20  and  C_21
REMARK    9  A    between atoms: C_24  and  N_25
REMARK   10  A    between atoms: N_25  and  S_26
REMARK   11  A    between atoms: S_26  and  C_27
REMARK                            x       y       z     vdW  Elec       q    Type
REMARK                         _______ _______ _______ _____ _____    ______ ____
ROOT
ATOM      1  C   UNL     1       0.180   9.770  21.540  0.00  0.00    +0.000 A 
ATOM      2  C   UNL     1      -0.675   9.276  22.509  0.00  0.00    +0.000 A 
ATOM      3  C   UNL     1      -1.233  10.360  23.203  0.00  0.00    +0.000 A 
ATOM      4  C   UNL     1      -0.765  11.536  22.640  0.00  0.00    +0.000 A 
ATOM      5  N   UNL     1       0.098  11.182  21.583  0.00  0.00    +0.000 N 
ENDROOT
BRANCH   1   9
ATOM      6  C   UNL     1       2.501   7.325  18.880  0.00  0.00    +0.000 A 
ATOM      7  C   UNL     1       2.332   6.939  20.214  0.00  0.00    +0.000 A 
ATOM      8  C   UNL     1       1.588   7.748  21.085  0.00  0.00    +0.000 A 
ATOM      9  C   UNL     1       1.026   8.956  20.641  0.00  0.00    +0.000 A 
ATOM     10  C   UNL     1       1.237   9.332  19.309  0.00  0.00    +0.000 A 
ATOM     11  C   UNL     1       1.903   8.495  18.421  0.00  0.00    +0.000 A 
BRANCH   6  17
ATOM     12  C   UNL     1       1.809   4.420  17.932  0.00  0.00    +0.000 C 
ATOM     13  C   UNL     1       3.036   5.205  17.613  0.00  0.00    +0.000 A 
ATOM     14  N   UNL     1       3.999   4.774  16.822  0.00  0.00    +0.000 NA
ATOM     15  C   UNL     1       4.832   5.837  16.631  0.00  0.00    +0.000 A 
ATOM     16  C   UNL     1       4.383   6.936  17.315  0.00  0.00    +0.000 A 
ATOM     17  N   UNL     1       3.258   6.526  17.995  0.00  0.00    +0.000 N 
ENDBRANCH   6  17
ENDBRANCH   1   9
BRANCH   5  18
ATOM     18  C   UNL     1       0.673  12.084  20.624  0.00  0.00    +0.000 A 
ATOM     19  C   UNL     1      -0.018  12.480  19.476  0.00  0.00    +0.000 A 
ATOM     20  C   UNL     1       0.644  13.209  18.480  0.00  0.00    +0.000 A 
ATOM     21  C   UNL     1       1.952  13.657  18.692  0.00  0.00    +0.000 A 
ATOM     22  C   UNL     1       2.592  13.394  19.889  0.00  0.00    +0.000 A 
ATOM     23  C   UNL     1       1.978  12.566  20.819  0.00  0.00    +0.000 A 
BRANCH  21  24
ATOM     24  N   UNL     1       2.703  14.273  17.673  0.00  0.00    +0.000 N 
ATOM     25  H   UNL     1       2.263  14.331  16.754  0.00  0.00    +0.000 HD
BRANCH  24  26
ATOM     26  S   UNL     1       3.631  15.621  18.015  0.00  0.00    +0.000 S 
ATOM     27  C   UNL     1       3.158  16.708  16.669  0.00  0.00    +0.000 C 
ATOM     28  O   UNL     1       3.100  16.184  19.226  0.00  0.00    +0.000 OA
ATOM     29  O   UNL     1       5.030  15.303  17.875  0.00  0.00    +0.000 OA
ENDBRANCH  24  26
ENDBRANCH  21  24
ENDBRANCH   5  18
BRANCH   4  30
ATOM     30  C   UNL     1      -1.283  12.926  22.973  0.00  0.00    +0.000 C 
BRANCH  30  31
ATOM     31  C   UNL     1      -2.796  13.051  22.774  0.00  0.00    +0.000 C 
BRANCH  31  32
ATOM     32  C   UNL     1      -3.564  13.137  24.075  0.00  0.00    +0.000 C 
ATOM     33  O   UNL     1      -3.473  14.033  24.898  0.00  0.00    +0.000 OA
BRANCH  32  34
ATOM     34  O   UNL     1      -4.392  12.073  24.238  0.00  0.00    +0.000 OA
ATOM     35  H   UNL     1      -3.945  11.233  24.415  0.00  0.00    +0.000 HD
ENDBRANCH  32  34
ENDBRANCH  31  32
ENDBRANCH  30  31
ENDBRANCH   4  30
TORSDOF 9
ENDMDL
MODEL 8
REMARK VINA RESULT:      -7.6      6.012      9.464
REMARK  Name = 
REMARK  11 active torsions:
REMARK  status: ('A' for Active; 'I' for Inactive)
REMARK    1  A    between atoms: C_1  and  C_2
REMARK    2  A    between atoms: N_6  and  C_7
REMARK    3  A    between atoms: C_10  and  C_11
REMARK    4  A    between atoms: C_14  and  C_15
REMARK    5  A    between atoms: C_15  and  C_16
REMARK    6  A    between atoms: C_16  and  C_17
REMARK    7  A    between atoms: C_17  and  O_19
REMARK    8  A    between atoms: N_20  and  C_21
REMARK    9  A    between atoms: C_24  and  N_25
REMARK   10  A    between atoms: N_25  and  S_26
REMARK   11  A    between atoms: S_26  and  C_27
REMARK                            x       y       z     vdW  Elec       q    Type
REMARK                         _______ _______ _______ _____ _____    ______ ____
ROOT
ATOM      1  C   UNL     1       0.125  10.236  21.286  0.00  0.00    +0.000 A 
ATOM      2  C   UNL     1      -0.839   9.920  22.226  0.00  0.00    +0.000 A 
ATOM      3  C   UNL     1      -1.230  11.101  22.875  0.00  0.00    +0.000 A 
ATOM      4  C   UNL     1      -0.546  12.165  22.311  0.00  0.00    +0.000 A 
ATOM      5  N   UNL     1       0.283  11.642  21.299  0.00  0.00    +0.000 N 
ENDROOT
BRANCH   1   9
ATOM      6  C   UNL     1       2.381   7.495  18.869  0.00  0.00    +0.000 A 
ATOM      7  C   UNL     1       1.845   8.654  18.296  0.00  0.00    +0.000 A 
ATOM      8  C   UNL     1       1.095   9.539  19.083  0.00  0.00    +0.000 A 
ATOM      9  C   UNL     1       0.853   9.267  20.440  0.00  0.00    +0.000 A 
ATOM     10  C   UNL     1       1.375   8.085  20.979  0.00  0.00    +0.000 A 
ATOM     11  C   UNL     1       2.188   7.246  20.225  0.00  0.00    +0.000 A 
BRANCH   6  17
ATOM     12  C   UNL     1       1.615   4.532  18.199  0.00  0.00    +0.000 C 
ATOM     13  C   UNL     1       2.872   5.245  17.831  0.00  0.00    +0.000 A 
ATOM     14  N   UNL     1       3.836   4.709  17.107  0.00  0.00    +0.000 NA
ATOM     15  C   UNL     1       4.706   5.723  16.830  0.00  0.00    +0.000 A 
ATOM     16  C   UNL     1       4.279   6.897  17.392  0.00  0.00    +0.000 A 
ATOM     17  N   UNL     1       3.129   6.590  18.085  0.00  0.00    +0.000 N 
ENDBRANCH   6  17
ENDBRANCH   1   9
BRANCH   5  18
ATOM     18  C   UNL     1       1.041  12.408  20.348  0.00  0.00    +0.000 A 
ATOM     19  C   UNL     1       2.351  12.820  20.609  0.00  0.00    +0.000 A 
ATOM     20  C   UNL     1       2.986  13.717  19.740  0.00  0.00    +0.000 A 
ATOM     21  C   UNL     1       2.365  14.094  18.546  0.00  0.00    +0.000 A 
ATOM     22  C   UNL     1       1.128  13.574  18.210  0.00  0.00    +0.000 A 
ATOM     23  C   UNL     1       0.451  12.787  19.131  0.00  0.00    +0.000 A 
BRANCH  21  24
ATOM     24  N   UNL     1       2.900  15.093  17.710  0.00  0.00    +0.000 N 
ATOM     25  H   UNL     1       2.703  15.006  16.713  0.00  0.00    +0.000 HD
BRANCH  24  26
ATOM     26  S   UNL     1       2.916  16.687  18.216  0.00  0.00    +0.000 S 
ATOM     27  C   UNL     1       4.583  16.819  18.865  0.00  0.00    +0.000 C 
ATOM     28  O   UNL     1       2.856  17.491  17.026  0.00  0.00    +0.000 OA
ATOM     29  O   UNL     1       1.987  16.868  19.302  0.00  0.00    +0.000 OA
ENDBRANCH  24  26
ENDBRANCH  21  24
ENDBRANCH   5  18
BRANCH   4  30
ATOM     30  C   UNL     1      -0.832  13.631  22.595  0.00  0.00    +0.000 C 
BRANCH  30  31
ATOM     31  C   UNL     1      -1.827  13.823  23.743  0.00  0.00    +0.000 C 
BRANCH  31  32
ATOM     32  C   UNL     1      -1.431  14.929  24.697  0.00  0.00    +0.000 C 
ATOM     33  O   UNL     1      -0.397  15.573  24.651  0.00  0.00    +0.000 OA
BRANCH  32  34
ATOM     34  O   UNL     1      -2.383  15.134  25.645  0.00  0.00    +0.000 OA
ATOM     35  H   UNL     1      -2.493  14.406  26.274  0.00  0.00    +0.000 HD
ENDBRANCH  32  34
ENDBRANCH  31  32
ENDBRANCH  30  31
ENDBRANCH   4  30
TORSDOF 9
ENDMDL
MODEL 9
REMARK VINA RESULT:      -7.5      5.452      9.099
REMARK  Name = 
REMARK  11 active torsions:
REMARK  status: ('A' for Active; 'I' for Inactive)
REMARK    1  A    between atoms: C_1  and  C_2
REMARK    2  A    between atoms: N_6  and  C_7
REMARK    3  A    between atoms: C_10  and  C_11
REMARK    4  A    between atoms: C_14  and  C_15
REMARK    5  A    between atoms: C_15  and  C_16
REMARK    6  A    between atoms: C_16  and  C_17
REMARK    7  A    between atoms: C_17  and  O_19
REMARK    8  A    between atoms: N_20  and  C_21
REMARK    9  A    between atoms: C_24  and  N_25
REMARK   10  A    between atoms: N_25  and  S_26
REMARK   11  A    between atoms: S_26  and  C_27
REMARK                            x       y       z     vdW  Elec       q    Type
REMARK                         _______ _______ _______ _____ _____    ______ ____
ROOT
ATOM      1  C   UNL     1       0.247  10.128  21.263  0.00  0.00    +0.000 A 
ATOM      2  C   UNL     1      -0.744   9.774  22.160  0.00  0.00    +0.000 A 
ATOM      3  C   UNL     1      -1.211  10.938  22.789  0.00  0.00    +0.000 A 
ATOM      4  C   UNL     1      -0.545  12.029  22.253  0.00  0.00    +0.000 A 
ATOM      5  N   UNL     1       0.349  11.539  21.280  0.00  0.00    +0.000 N 
ENDROOT
BRANCH   1   9
ATOM      6  C   UNL     1       2.441   7.322  18.863  0.00  0.00    +0.000 A 
ATOM      7  C   UNL     1       2.236   7.067  20.224  0.00  0.00    +0.000 A 
ATOM      8  C   UNL     1       1.534   7.993  21.008  0.00  0.00    +0.000 A 
ATOM      9  C   UNL     1       1.051   9.189  20.452  0.00  0.00    +0.000 A 
ATOM     10  C   UNL     1       1.298   9.432  19.096  0.00  0.00    +0.000 A 
ATOM     11  C   UNL     1       1.920   8.481  18.294  0.00  0.00    +0.000 A 
BRANCH   6  17
ATOM     12  C   UNL     1       1.563   4.405  18.130  0.00  0.00    +0.000 C 
ATOM     13  C   UNL     1       2.849   5.076  17.781  0.00  0.00    +0.000 A 
ATOM     14  N   UNL     1       3.795   4.517  17.052  0.00  0.00    +0.000 NA
ATOM     15  C   UNL     1       4.705   5.501  16.798  0.00  0.00    +0.000 A 
ATOM     16  C   UNL     1       4.322   6.680  17.382  0.00  0.00    +0.000 A 
ATOM     17  N   UNL     1       3.157   6.405  18.064  0.00  0.00    +0.000 N 
ENDBRANCH   6  17
ENDBRANCH   1   9
BRANCH   5  18
ATOM     18  C   UNL     1       1.118  12.335  20.362  0.00  0.00    +0.000 A 
ATOM     19  C   UNL     1       2.370  12.852  20.705  0.00  0.00    +0.000 A 
ATOM     20  C   UNL     1       3.001  13.771  19.856  0.00  0.00    +0.000 A 
ATOM     21  C   UNL     1       2.445  14.067  18.607  0.00  0.00    +0.000 A 
ATOM     22  C   UNL     1       1.279  13.445  18.200  0.00  0.00    +0.000 A 
ATOM     23  C   UNL     1       0.594  12.634  19.093  0.00  0.00    +0.000 A 
BRANCH  21  24
ATOM     24  N   UNL     1       2.966  15.080  17.781  0.00  0.00    +0.000 N 
ATOM     25  H   UNL     1       2.830  14.964  16.776  0.00  0.00    +0.000 HD
BRANCH  24  26
ATOM     26  S   UNL     1       2.861  16.681  18.251  0.00  0.00    +0.000 S 
ATOM     27  C   UNL     1       4.456  16.908  19.038  0.00  0.00    +0.000 C 
ATOM     28  O   UNL     1       2.865  17.460  17.044  0.00  0.00    +0.000 OA
ATOM     29  O   UNL     1       1.833  16.833  19.250  0.00  0.00    +0.000 OA
ENDBRANCH  24  26
ENDBRANCH  21  24
ENDBRANCH   5  18
BRANCH   4  30
ATOM     30  C   UNL     1      -0.901  13.483  22.521  0.00  0.00    +0.000 C 
BRANCH  30  31
ATOM     31  C   UNL     1      -1.686  14.116  21.368  0.00  0.00    +0.000 C 
BRANCH  31  32
ATOM     32  C   UNL     1      -2.925  13.333  20.990  0.00  0.00    +0.000 C 
ATOM     33  O   UNL     1      -3.859  13.075  21.731  0.00  0.00    +0.000 OA
BRANCH  32  34
ATOM     34  O   UNL     1      -2.886  12.932  19.693  0.00  0.00    +0.000 OA
ATOM     35  H   UNL     1      -2.163  12.325  19.477  0.00  0.00    +0.000 HD
ENDBRANCH  32  34
ENDBRANCH  31  32
ENDBRANCH  30  31
ENDBRANCH   4  30
TORSDOF 9
ENDMDL
