MODEL 1
REMARK VINA RESULT:      -8.3      0.000      0.000
REMARK  Name = 
REMARK  6 active torsions:
REMARK  status: ('A' for Active; 'I' for Inactive)
REMARK    1  A    between atoms: C_2  and  S_3
REMARK    2  A    between atoms: S_3  and  C_6
REMARK    3  A    between atoms: C_9  and  N_10
REMARK    4  A    between atoms: C_13  and  O_14
REMARK    5  A    between atoms: O_14  and  C_15
REMARK    6  A    between atoms: C_15  and  C_16
REMARK                            x       y       z     vdW  Elec       q    Type
REMARK                         _______ _______ _______ _____ _____    ______ ____
ROOT
ATOM      1  N   UNL     1       2.154   7.891  19.268  0.00  0.00    +0.000 N 
ATOM      2  C   UNL     1       2.414   6.554  19.610  0.00  0.00    +0.000 A 
ATOM      3  N   UNL     1       3.620   6.057  19.250  0.00  0.00    +0.000 NA
ATOM      4  C   UNL     1       3.909   4.758  19.548  0.00  0.00    +0.000 A 
ATOM      5  C   UNL     1       2.959   3.970  20.199  0.00  0.00    +0.000 A 
ATOM      6  N   UNL     1       2.918   2.657  20.624  0.00  0.00    +0.000 NA
ATOM      7  C   UNL     1       1.734   2.518  21.185  0.00  0.00    +0.000 A 
ATOM      8  N   UNL     1       1.017   3.682  21.156  0.00  0.00    +0.000 N 
ATOM      9  C   UNL     1       1.782   4.611  20.518  0.00  0.00    +0.000 A 
ATOM     10  N   UNL     1       1.447   5.876  20.260  0.00  0.00    +0.000 NA
ATOM     11  H   UNL     1       3.010   8.297  18.912  0.00  0.00    +0.000 HD
ATOM     12  H   UNL     1       0.092   3.842  21.525  0.00  0.00    +0.000 HD
ENDROOT
BRANCH   1  16
ATOM     13  C   UNL     1      -0.203  10.530  21.553  0.00  0.00    +0.000 A 
ATOM     14  C   UNL     1      -0.179  10.662  20.168  0.00  0.00    +0.000 A 
ATOM     15  C   UNL     1       0.592   9.780  19.412  0.00  0.00    +0.000 A 
ATOM     16  C   UNL     1       1.366   8.781  20.024  0.00  0.00    +0.000 A 
ATOM     17  C   UNL     1       1.303   8.644  21.417  0.00  0.00    +0.000 A 
ATOM     18  C   UNL     1       0.538   9.529  22.189  0.00  0.00    +0.000 A 
BRANCH  13  19
ATOM     19  S   UNL     1      -1.159  11.685  22.518  0.00  0.00    +0.000 S 
ATOM     20  O   UNL     1      -0.239  12.712  22.983  0.00  0.00    +0.000 OA
ATOM     21  O   UNL     1      -1.938  10.912  23.462  0.00  0.00    +0.000 OA
BRANCH  19  23
ATOM     22  C   UNL     1      -3.439  12.785  21.686  0.00  0.00    +0.000 C 
ATOM     23  C   UNL     1      -2.221  12.363  21.320  0.00  0.00    +0.000 C 
ENDBRANCH  19  23
ENDBRANCH  13  19
ENDBRANCH   1  16
BRANCH   4  24
ATOM     24  O   UNL     1       5.103   4.199  19.146  0.00  0.00    +0.000 OA
BRANCH  24  25
ATOM     25  C   UNL     1       6.208   5.098  19.231  0.00  0.00    +0.000 C 
BRANCH  25  26
ATOM     26  C   UNL     1       6.997   5.024  17.905  0.00  0.00    +0.000 C 
ATOM     27  C   UNL     1       6.294   4.161  16.842  0.00  0.00    +0.000 C 
ATOM     28  C   UNL     1       5.044   4.825  16.269  0.00  0.00    +0.000 C 
ATOM     29  C   UNL     1       5.326   6.234  15.755  0.00  0.00    +0.000 C 
ATOM     30  C   UNL     1       6.034   7.102  16.791  0.00  0.00    +0.000 C 
ATOM     31  C   UNL     1       7.286   6.420  17.337  0.00  0.00    +0.000 C 
ENDBRANCH  25  26
ENDBRANCH  24  25
ENDBRANCH   4  24
TORSDOF 6
ENDMDL
MODEL 2
REMARK VINA RESULT:      -8.3      5.832      8.012
REMARK  Name = 
REMARK  6 active torsions:
REMARK  status: ('A' for Active; 'I' for Inactive)
REMARK    1  A    between atoms: C_2  and  S_3
REMARK    2  A    between atoms: S_3  and  C_6
REMARK    3  A    between atoms: C_9  and  N_10
REMARK    4  A    between atoms: C_13  and  O_14
REMARK    5  A    between atoms: O_14  and  C_15
REMARK    6  A    between atoms: C_15  and  C_16
REMARK                            x       y       z     vdW  Elec       q    Type
REMARK                         _______ _______ _______ _____ _____    ______ ____
ROOT
ATOM      1  N   UNL     1       8.468   7.546  19.188  0.00  0.00    +0.000 N 
ATOM      2  C   UNL     1       7.755   6.618  18.410  0.00  0.00    +0.000 A 
ATOM      3  N   UNL     1       7.087   5.650  19.079  0.00  0.00    +0.000 NA
ATOM      4  C   UNL     1       6.395   4.718  18.362  0.00  0.00    +0.000 A 
ATOM      5  C   UNL     1       6.401   4.772  16.969  0.00  0.00    +0.000 A 
ATOM      6  N   UNL     1       5.840   4.004  15.968  0.00  0.00    +0.000 NA
ATOM      7  C   UNL     1       6.210   4.584  14.845  0.00  0.00    +0.000 A 
ATOM      8  N   UNL     1       6.971   5.697  15.075  0.00  0.00    +0.000 N 
ATOM      9  C   UNL     1       7.112   5.819  16.423  0.00  0.00    +0.000 A 
ATOM     10  N   UNL     1       7.799   6.762  17.070  0.00  0.00    +0.000 NA
ATOM     11  H   UNL     1       8.232   7.389  20.159  0.00  0.00    +0.000 HD
ATOM     12  H   UNL     1       7.370   6.320  14.387  0.00  0.00    +0.000 HD
ENDROOT
BRANCH   1  16
ATOM     13  C   UNL     1       9.057  11.602  18.219  0.00  0.00    +0.000 A 
ATOM     14  C   UNL     1       8.205  10.830  17.435  0.00  0.00    +0.000 A 
ATOM     15  C   UNL     1       8.002   9.491  17.764  0.00  0.00    +0.000 A 
ATOM     16  C   UNL     1       8.662   8.901  18.853  0.00  0.00    +0.000 A 
ATOM     17  C   UNL     1       9.489   9.703  19.650  0.00  0.00    +0.000 A 
ATOM     18  C   UNL     1       9.708  11.049  19.326  0.00  0.00    +0.000 A 
BRANCH  13  19
ATOM     19  S   UNL     1       9.345  13.304  17.771  0.00  0.00    +0.000 S 
ATOM     20  O   UNL     1       8.054  13.872  17.412  0.00  0.00    +0.000 OA
ATOM     21  O   UNL     1      10.445  13.318  16.829  0.00  0.00    +0.000 OA
BRANCH  19  23
ATOM     22  C   UNL     1      10.719  15.030  19.266  0.00  0.00    +0.000 C 
ATOM     23  C   UNL     1       9.877  13.988  19.279  0.00  0.00    +0.000 C 
ENDBRANCH  19  23
ENDBRANCH  13  19
ENDBRANCH   1  16
BRANCH   4  24
ATOM     24  O   UNL     1       5.750   3.682  19.005  0.00  0.00    +0.000 OA
BRANCH  24  25
ATOM     25  C   UNL     1       4.363   3.932  19.233  0.00  0.00    +0.000 C 
BRANCH  25  26
ATOM     26  C   UNL     1       3.711   2.625  19.735  0.00  0.00    +0.000 C 
ATOM     27  C   UNL     1       2.885   2.828  21.018  0.00  0.00    +0.000 C 
ATOM     28  C   UNL     1       1.585   3.593  20.774  0.00  0.00    +0.000 C 
ATOM     29  C   UNL     1       0.752   2.968  19.659  0.00  0.00    +0.000 C 
ATOM     30  C   UNL     1       1.557   2.749  18.382  0.00  0.00    +0.000 C 
ATOM     31  C   UNL     1       2.842   1.970  18.653  0.00  0.00    +0.000 C 
ENDBRANCH  25  26
ENDBRANCH  24  25
ENDBRANCH   4  24
TORSDOF 6
ENDMDL
MODEL 3
REMARK VINA RESULT:      -8.2      0.834      1.649
REMARK  Name = 
REMARK  6 active torsions:
REMARK  status: ('A' for Active; 'I' for Inactive)
REMARK    1  A    between atoms: C_2  and  S_3
REMARK    2  A    between atoms: S_3  and  C_6
REMARK    3  A    between atoms: C_9  and  N_10
REMARK    4  A    between atoms: C_13  and  O_14
REMARK    5  A    between atoms: O_14  and  C_15
REMARK    6  A    between atoms: C_15  and  C_16
REMARK                            x       y       z     vdW  Elec       q    Type
REMARK                         _______ _______ _______ _____ _____    ______ ____
ROOT
ATOM      1  N   UNL     1       2.282   7.653  18.791  0.00  0.00    +0.000 N 
ATOM      2  C   UNL     1       2.666   6.381  19.248  0.00  0.00    +0.000 A 
ATOM      3  N   UNL     1       3.793   5.858  18.712  0.00  0.00    +0.000 NA
ATOM      4  C   UNL     1       4.194   4.618  19.114  0.00  0.00    +0.000 A 
ATOM      5  C   UNL     1       3.436   3.915  20.051  0.00  0.00    +0.000 A 
ATOM      6  N   UNL     1       3.542   2.675  20.647  0.00  0.00    +0.000 NA
ATOM      7  C   UNL     1       2.507   2.597  21.458  0.00  0.00    +0.000 A 
ATOM      8  N   UNL     1       1.748   3.734  21.424  0.00  0.00    +0.000 N 
ATOM      9  C   UNL     1       2.322   4.576  20.521  0.00  0.00    +0.000 A 
ATOM     10  N   UNL     1       1.885   5.787  20.172  0.00  0.00    +0.000 NA
ATOM     11  H   UNL     1       3.027   8.018  18.212  0.00  0.00    +0.000 HD
ATOM     12  H   UNL     1       0.912   3.930  21.955  0.00  0.00    +0.000 HD
ENDROOT
BRANCH   1  16
ATOM     13  C   UNL     1       0.334  10.590  21.097  0.00  0.00    +0.000 A 
ATOM     14  C   UNL     1       0.783   9.426  21.713  0.00  0.00    +0.000 A 
ATOM     15  C   UNL     1       1.438   8.460  20.951  0.00  0.00    +0.000 A 
ATOM     16  C   UNL     1       1.627   8.628  19.570  0.00  0.00    +0.000 A 
ATOM     17  C   UNL     1       1.199   9.822  18.975  0.00  0.00    +0.000 A 
ATOM     18  C   UNL     1       0.532  10.797  19.729  0.00  0.00    +0.000 A 
BRANCH  13  19
ATOM     19  S   UNL     1      -0.538  11.805  22.069  0.00  0.00    +0.000 S 
ATOM     20  O   UNL     1       0.304  12.990  22.120  0.00  0.00    +0.000 OA
ATOM     21  O   UNL     1      -0.967  11.151  23.287  0.00  0.00    +0.000 OA
BRANCH  19  23
ATOM     22  C   UNL     1      -3.046  12.603  21.644  0.00  0.00    +0.000 C 
ATOM     23  C   UNL     1      -1.929  12.129  21.075  0.00  0.00    +0.000 C 
ENDBRANCH  19  23
ENDBRANCH  13  19
ENDBRANCH   1  16
BRANCH   4  24
ATOM     24  O   UNL     1       5.305   4.027  18.549  0.00  0.00    +0.000 OA
BRANCH  24  25
ATOM     25  C   UNL     1       5.444   4.296  17.154  0.00  0.00    +0.000 C 
BRANCH  25  26
ATOM     26  C   UNL     1       6.939   4.534  16.852  0.00  0.00    +0.000 C 
ATOM     27  C   UNL     1       7.186   5.828  16.056  0.00  0.00    +0.000 C 
ATOM     28  C   UNL     1       6.970   7.089  16.889  0.00  0.00    +0.000 C 
ATOM     29  C   UNL     1       7.771   7.064  18.188  0.00  0.00    +0.000 C 
ATOM     30  C   UNL     1       7.548   5.784  18.986  0.00  0.00    +0.000 C 
ATOM     31  C   UNL     1       7.785   4.539  18.133  0.00  0.00    +0.000 C 
ENDBRANCH  25  26
ENDBRANCH  24  25
ENDBRANCH   4  24
TORSDOF 6
ENDMDL
MODEL 4
REMARK VINA RESULT:      -8.2      5.792      7.867
REMARK  Name = 
REMARK  6 active torsions:
REMARK  status: ('A' for Active; 'I' for Inactive)
REMARK    1  A    between atoms: C_2  and  S_3
REMARK    2  A    between atoms: S_3  and  C_6
REMARK    3  A    between atoms: C_9  and  N_10
REMARK    4  A    between atoms: C_13  and  O_14
REMARK    5  A    between atoms: O_14  and  C_15
REMARK    6  A    between atoms: C_15  and  C_16
REMARK                            x       y       z     vdW  Elec       q    Type
REMARK                         _______ _______ _______ _____ _____    ______ ____
ROOT
ATOM      1  N   UNL     1       8.394   7.400  19.098  0.00  0.00    +0.000 N 
ATOM      2  C   UNL     1       7.666   6.501  18.301  0.00  0.00    +0.000 A 
ATOM      3  N   UNL     1       6.994   5.521  18.948  0.00  0.00    +0.000 NA
ATOM      4  C   UNL     1       6.287   4.616  18.212  0.00  0.00    +0.000 A 
ATOM      5  C   UNL     1       6.281   4.710  16.821  0.00  0.00    +0.000 A 
ATOM      6  N   UNL     1       5.702   3.977  15.804  0.00  0.00    +0.000 NA
ATOM      7  C   UNL     1       6.068   4.585  14.694  0.00  0.00    +0.000 A 
ATOM      8  N   UNL     1       6.842   5.684  14.948  0.00  0.00    +0.000 N 
ATOM      9  C   UNL     1       6.996   5.766  16.299  0.00  0.00    +0.000 A 
ATOM     10  N   UNL     1       7.698   6.683  16.966  0.00  0.00    +0.000 NA
ATOM     11  H   UNL     1       8.166   7.218  20.067  0.00  0.00    +0.000 HD
ATOM     12  H   UNL     1       7.240   6.322  14.276  0.00  0.00    +0.000 HD
ENDROOT
BRANCH   1  16
ATOM     13  C   UNL     1       8.994  11.467  18.180  0.00  0.00    +0.000 A 
ATOM     14  C   UNL     1       9.703  10.893  19.231  0.00  0.00    +0.000 A 
ATOM     15  C   UNL     1       9.512   9.544  19.527  0.00  0.00    +0.000 A 
ATOM     16  C   UNL     1       8.598   8.762  18.801  0.00  0.00    +0.000 A 
ATOM     17  C   UNL     1       7.920   9.350  17.725  0.00  0.00    +0.000 A 
ATOM     18  C   UNL     1       8.097  10.707  17.423  0.00  0.00    +0.000 A 
BRANCH  13  19
ATOM     19  S   UNL     1       9.211  13.202  17.832  0.00  0.00    +0.000 S 
ATOM     20  O   UNL     1       7.913  13.718  17.425  0.00  0.00    +0.000 OA
ATOM     21  O   UNL     1      10.360  13.323  16.959  0.00  0.00    +0.000 OA
BRANCH  19  23
ATOM     22  C   UNL     1       8.794  14.714  19.987  0.00  0.00    +0.000 C 
ATOM     23  C   UNL     1       9.618  13.835  19.401  0.00  0.00    +0.000 C 
ENDBRANCH  19  23
ENDBRANCH  13  19
ENDBRANCH   1  16
BRANCH   4  24
ATOM     24  O   UNL     1       5.638   3.568  18.831  0.00  0.00    +0.000 OA
BRANCH  24  25
ATOM     25  C   UNL     1       4.431   3.956  19.488  0.00  0.00    +0.000 C 
BRANCH  25  26
ATOM     26  C   UNL     1       3.735   2.683  20.015  0.00  0.00    +0.000 C 
ATOM     27  C   UNL     1       2.591   2.995  20.998  0.00  0.00    +0.000 C 
ATOM     28  C   UNL     1       1.366   3.597  20.312  0.00  0.00    +0.000 C 
ATOM     29  C   UNL     1       0.887   2.746  19.140  0.00  0.00    +0.000 C 
ATOM     30  C   UNL     1       2.009   2.417  18.161  0.00  0.00    +0.000 C 
ATOM     31  C   UNL     1       3.215   1.803  18.871  0.00  0.00    +0.000 C 
ENDBRANCH  25  26
ENDBRANCH  24  25
ENDBRANCH   4  24
TORSDOF 6
ENDMDL
MODEL 5
REMARK VINA RESULT:      -8.2      5.547      7.899
REMARK  Name = 
REMARK  6 active torsions:
REMARK  status: ('A' for Active; 'I' for Inactive)
REMARK    1  A    between atoms: C_2  and  S_3
REMARK    2  A    between atoms: S_3  and  C_6
REMARK    3  A    between atoms: C_9  and  N_10
REMARK    4  A    between atoms: C_13  and  O_14
REMARK    5  A    between atoms: O_14  and  C_15
REMARK    6  A    between atoms: C_15  and  C_16
REMARK                            x       y       z     vdW  Elec       q    Type
REMARK                         _______ _______ _______ _____ _____    ______ ____
ROOT
ATOM      1  N   UNL     1       8.305   7.412  19.116  0.00  0.00    +0.000 N 
ATOM      2  C   UNL     1       7.658   6.501  18.265  0.00  0.00    +0.000 A 
ATOM      3  N   UNL     1       6.897   5.551  18.857  0.00  0.00    +0.000 NA
ATOM      4  C   UNL     1       6.264   4.635  18.069  0.00  0.00    +0.000 A 
ATOM      5  C   UNL     1       6.423   4.686  16.684  0.00  0.00    +0.000 A 
ATOM      6  N   UNL     1       5.953   3.931  15.628  0.00  0.00    +0.000 NA
ATOM      7  C   UNL     1       6.458   4.499  14.552  0.00  0.00    +0.000 A 
ATOM      8  N   UNL     1       7.218   5.594  14.864  0.00  0.00    +0.000 N 
ATOM      9  C   UNL     1       7.214   5.714  16.220  0.00  0.00    +0.000 A 
ATOM     10  N   UNL     1       7.850   6.641  16.938  0.00  0.00    +0.000 NA
ATOM     11  H   UNL     1       7.962   7.263  20.056  0.00  0.00    +0.000 HD
ATOM     12  H   UNL     1       7.704   6.205  14.225  0.00  0.00    +0.000 HD
ENDROOT
BRANCH   1  16
ATOM     13  C   UNL     1       9.101  11.450  18.220  0.00  0.00    +0.000 A 
ATOM     14  C   UNL     1       8.233  10.729  17.406  0.00  0.00    +0.000 A 
ATOM     15  C   UNL     1       7.961   9.395  17.711  0.00  0.00    +0.000 A 
ATOM     16  C   UNL     1       8.569   8.761  18.806  0.00  0.00    +0.000 A 
ATOM     17  C   UNL     1       9.413   9.514  19.633  0.00  0.00    +0.000 A 
ATOM     18  C   UNL     1       9.700  10.853  19.333  0.00  0.00    +0.000 A 
BRANCH  13  19
ATOM     19  S   UNL     1       9.476  13.143  17.803  0.00  0.00    +0.000 S 
ATOM     20  O   UNL     1       8.214  13.785  17.466  0.00  0.00    +0.000 OA
ATOM     21  O   UNL     1      10.568  13.118  16.853  0.00  0.00    +0.000 OA
BRANCH  19  23
ATOM     22  C   UNL     1       9.879  15.065  19.604  0.00  0.00    +0.000 C 
ATOM     23  C   UNL     1      10.053  13.768  19.321  0.00  0.00    +0.000 C 
ENDBRANCH  19  23
ENDBRANCH  13  19
ENDBRANCH   1  16
BRANCH   4  24
ATOM     24  O   UNL     1       5.527   3.617  18.637  0.00  0.00    +0.000 OA
BRANCH  24  25
ATOM     25  C   UNL     1       4.402   4.080  19.385  0.00  0.00    +0.000 C 
BRANCH  25  26
ATOM     26  C   UNL     1       3.277   4.445  18.393  0.00  0.00    +0.000 C 
ATOM     27  C   UNL     1       2.932   3.292  17.433  0.00  0.00    +0.000 C 
ATOM     28  C   UNL     1       2.196   2.145  18.122  0.00  0.00    +0.000 C 
ATOM     29  C   UNL     1       0.967   2.628  18.888  0.00  0.00    +0.000 C 
ATOM     30  C   UNL     1       1.287   3.779  19.836  0.00  0.00    +0.000 C 
ATOM     31  C   UNL     1       2.010   4.917  19.119  0.00  0.00    +0.000 C 
ENDBRANCH  25  26
ENDBRANCH  24  25
ENDBRANCH   4  24
TORSDOF 6
ENDMDL
MODEL 6
REMARK VINA RESULT:      -8.2      5.913      7.932
REMARK  Name = 
REMARK  6 active torsions:
REMARK  status: ('A' for Active; 'I' for Inactive)
REMARK    1  A    between atoms: C_2  and  S_3
REMARK    2  A    between atoms: S_3  and  C_6
REMARK    3  A    between atoms: C_9  and  N_10
REMARK    4  A    between atoms: C_13  and  O_14
REMARK    5  A    between atoms: O_14  and  C_15
REMARK    6  A    between atoms: C_15  and  C_16
REMARK                            x       y       z     vdW  Elec       q    Type
REMARK                         _______ _______ _______ _____ _____    ______ ____
ROOT
ATOM      1  N   UNL     1       8.611   7.731  19.066  0.00  0.00    +0.000 N 
ATOM      2  C   UNL     1       7.685   6.912  18.400  0.00  0.00    +0.000 A 
ATOM      3  N   UNL     1       7.200   5.855  19.091  0.00  0.00    +0.000 NA
ATOM      4  C   UNL     1       6.310   5.023  18.477  0.00  0.00    +0.000 A 
ATOM      5  C   UNL     1       5.932   5.267  17.157  0.00  0.00    +0.000 A 
ATOM      6  N   UNL     1       5.093   4.639  16.258  0.00  0.00    +0.000 NA
ATOM      7  C   UNL     1       5.155   5.371  15.165  0.00  0.00    +0.000 A 
ATOM      8  N   UNL     1       5.982   6.450  15.322  0.00  0.00    +0.000 N 
ATOM      9  C   UNL     1       6.493   6.386  16.582  0.00  0.00    +0.000 A 
ATOM     10  N   UNL     1       7.360   7.238  17.133  0.00  0.00    +0.000 NA
ATOM     11  H   UNL     1       8.649   7.440  20.034  0.00  0.00    +0.000 HD
ATOM     12  H   UNL     1       6.192   7.165  14.641  0.00  0.00    +0.000 HD
ENDROOT
BRANCH   1  16
ATOM     13  C   UNL     1       9.003  11.882  18.469  0.00  0.00    +0.000 A 
ATOM     14  C   UNL     1       9.626  11.288  19.562  0.00  0.00    +0.000 A 
ATOM     15  C   UNL     1       9.505   9.912  19.752  0.00  0.00    +0.000 A 
ATOM     16  C   UNL     1       8.744   9.121  18.877  0.00  0.00    +0.000 A 
ATOM     17  C   UNL     1       8.154   9.732  17.763  0.00  0.00    +0.000 A 
ATOM     18  C   UNL     1       8.261  11.115  17.565  0.00  0.00    +0.000 A 
BRANCH  13  19
ATOM     19  S   UNL     1       9.127  13.648  18.252  0.00  0.00    +0.000 S 
ATOM     20  O   UNL     1       9.444  14.213  19.555  0.00  0.00    +0.000 OA
ATOM     21  O   UNL     1       7.947  14.074  17.531  0.00  0.00    +0.000 OA
BRANCH  19  23
ATOM     22  C   UNL     1      11.400  12.782  17.162  0.00  0.00    +0.000 C 
ATOM     23  C   UNL     1      10.514  13.786  17.211  0.00  0.00    +0.000 C 
ENDBRANCH  19  23
ENDBRANCH  13  19
ENDBRANCH   1  16
BRANCH   4  24
ATOM     24  O   UNL     1       5.839   3.902  19.129  0.00  0.00    +0.000 OA
BRANCH  24  25
ATOM     25  C   UNL     1       4.474   4.013  19.534  0.00  0.00    +0.000 C 
BRANCH  25  26
ATOM     26  C   UNL     1       3.950   2.600  19.865  0.00  0.00    +0.000 C 
ATOM     27  C   UNL     1       2.760   2.621  20.842  0.00  0.00    +0.000 C 
ATOM     28  C   UNL     1       1.475   3.142  20.203  0.00  0.00    +0.000 C 
ATOM     29  C   UNL     1       1.133   2.401  18.913  0.00  0.00    +0.000 C 
ATOM     30  C   UNL     1       2.304   2.360  17.937  0.00  0.00    +0.000 C 
ATOM     31  C   UNL     1       3.571   1.821  18.598  0.00  0.00    +0.000 C 
ENDBRANCH  25  26
ENDBRANCH  24  25
ENDBRANCH   4  24
TORSDOF 6
ENDMDL
MODEL 7
REMARK VINA RESULT:      -8.1      1.192      1.679
REMARK  Name = 
REMARK  6 active torsions:
REMARK  status: ('A' for Active; 'I' for Inactive)
REMARK    1  A    between atoms: C_2  and  S_3
REMARK    2  A    between atoms: S_3  and  C_6
REMARK    3  A    between atoms: C_9  and  N_10
REMARK    4  A    between atoms: C_13  and  O_14
REMARK    5  A    between atoms: O_14  and  C_15
REMARK    6  A    between atoms: C_15  and  C_16
REMARK                            x       y       z     vdW  Elec       q    Type
REMARK                         _______ _______ _______ _____ _____    ______ ____
ROOT
ATOM      1  N   UNL     1       2.290   7.744  18.716  0.00  0.00    +0.000 N 
ATOM      2  C   UNL     1       2.663   6.472  19.182  0.00  0.00    +0.000 A 
ATOM      3  N   UNL     1       3.834   5.975  18.721  0.00  0.00    +0.000 NA
ATOM      4  C   UNL     1       4.227   4.736  19.134  0.00  0.00    +0.000 A 
ATOM      5  C   UNL     1       3.415   4.007  20.003  0.00  0.00    +0.000 A 
ATOM      6  N   UNL     1       3.499   2.759  20.588  0.00  0.00    +0.000 NA
ATOM      7  C   UNL     1       2.410   2.652  21.320  0.00  0.00    +0.000 A 
ATOM      8  N   UNL     1       1.636   3.778  21.248  0.00  0.00    +0.000 N 
ATOM      9  C   UNL     1       2.259   4.642  20.401  0.00  0.00    +0.000 A 
ATOM     10  N   UNL     1       1.827   5.851  20.038  0.00  0.00    +0.000 NA
ATOM     11  H   UNL     1       3.068   8.130  18.198  0.00  0.00    +0.000 HD
ATOM     12  H   UNL     1       0.760   3.951  21.720  0.00  0.00    +0.000 HD
ENDROOT
BRANCH   1  16
ATOM     13  C   UNL     1       0.119  10.570  20.962  0.00  0.00    +0.000 A 
ATOM     14  C   UNL     1       0.157  10.684  19.575  0.00  0.00    +0.000 A 
ATOM     15  C   UNL     1       0.866   9.741  18.832  0.00  0.00    +0.000 A 
ATOM     16  C   UNL     1       1.565   8.697  19.459  0.00  0.00    +0.000 A 
ATOM     17  C   UNL     1       1.486   8.580  20.853  0.00  0.00    +0.000 A 
ATOM     18  C   UNL     1       0.784   9.525  21.612  0.00  0.00    +0.000 A 
BRANCH  13  19
ATOM     19  S   UNL     1      -0.755  11.801  21.910  0.00  0.00    +0.000 S 
ATOM     20  O   UNL     1      -0.662  11.404  23.307  0.00  0.00    +0.000 OA
ATOM     21  O   UNL     1      -2.046  11.989  21.281  0.00  0.00    +0.000 OA
BRANCH  19  23
ATOM     22  C   UNL     1      -0.085  14.353  22.291  0.00  0.00    +0.000 C 
ATOM     23  C   UNL     1       0.219  13.218  21.647  0.00  0.00    +0.000 C 
ENDBRANCH  19  23
ENDBRANCH  13  19
ENDBRANCH   1  16
BRANCH   4  24
ATOM     24  O   UNL     1       5.385   4.171  18.642  0.00  0.00    +0.000 OA
BRANCH  24  25
ATOM     25  C   UNL     1       5.488   4.235  17.220  0.00  0.00    +0.000 C 
BRANCH  25  26
ATOM     26  C   UNL     1       6.956   4.541  16.853  0.00  0.00    +0.000 C 
ATOM     27  C   UNL     1       7.115   5.873  16.096  0.00  0.00    +0.000 C 
ATOM     28  C   UNL     1       6.896   7.093  16.988  0.00  0.00    +0.000 C 
ATOM     29  C   UNL     1       7.763   7.051  18.243  0.00  0.00    +0.000 C 
ATOM     30  C   UNL     1       7.628   5.733  19.001  0.00  0.00    +0.000 C 
ATOM     31  C   UNL     1       7.866   4.532  18.089  0.00  0.00    +0.000 C 
ENDBRANCH  25  26
ENDBRANCH  24  25
ENDBRANCH   4  24
TORSDOF 6
ENDMDL
MODEL 8
REMARK VINA RESULT:      -8.1      3.592      8.654
REMARK  Name = 
REMARK  6 active torsions:
REMARK  status: ('A' for Active; 'I' for Inactive)
REMARK    1  A    between atoms: C_2  and  S_3
REMARK    2  A    between atoms: S_3  and  C_6
REMARK    3  A    between atoms: C_9  and  N_10
REMARK    4  A    between atoms: C_13  and  O_14
REMARK    5  A    between atoms: O_14  and  C_15
REMARK    6  A    between atoms: C_15  and  C_16
REMARK                            x       y       z     vdW  Elec       q    Type
REMARK                         _______ _______ _______ _____ _____    ______ ____
ROOT
ATOM      1  N   UNL     1       2.067   9.042  18.546  0.00  0.00    +0.000 N 
ATOM      2  C   UNL     1       1.166   9.611  19.461  0.00  0.00    +0.000 A 
ATOM      3  N   UNL     1       0.313  10.543  18.976  0.00  0.00    +0.000 NA
ATOM      4  C   UNL     1      -0.568  11.134  19.833  0.00  0.00    +0.000 A 
ATOM      5  C   UNL     1      -0.564  10.780  21.182  0.00  0.00    +0.000 A 
ATOM      6  N   UNL     1      -1.286  11.178  22.289  0.00  0.00    +0.000 NA
ATOM      7  C   UNL     1      -0.811  10.457  23.284  0.00  0.00    +0.000 A 
ATOM      8  N   UNL     1       0.172   9.601  22.867  0.00  0.00    +0.000 N 
ATOM      9  C   UNL     1       0.348   9.808  21.533  0.00  0.00    +0.000 A 
ATOM     10  N   UNL     1       1.226   9.191  20.741  0.00  0.00    +0.000 NA
ATOM     11  H   UNL     1       1.813   9.354  17.618  0.00  0.00    +0.000 HD
ATOM     12  H   UNL     1       0.688   8.940  23.429  0.00  0.00    +0.000 HD
ENDROOT
BRANCH   1  16
ATOM     13  C   UNL     1       3.495   5.081  18.668  0.00  0.00    +0.000 A 
ATOM     14  C   UNL     1       2.580   5.507  19.627  0.00  0.00    +0.000 A 
ATOM     15  C   UNL     1       2.099   6.815  19.578  0.00  0.00    +0.000 A 
ATOM     16  C   UNL     1       2.543   7.717  18.597  0.00  0.00    +0.000 A 
ATOM     17  C   UNL     1       3.438   7.259  17.622  0.00  0.00    +0.000 A 
ATOM     18  C   UNL     1       3.934   5.950  17.664  0.00  0.00    +0.000 A 
BRANCH  13  19
ATOM     19  S   UNL     1       4.138   3.420  18.758  0.00  0.00    +0.000 S 
ATOM     20  O   UNL     1       5.422   3.499  19.438  0.00  0.00    +0.000 OA
ATOM     21  O   UNL     1       4.039   2.851  17.430  0.00  0.00    +0.000 OA
BRANCH  19  23
ATOM     22  C   UNL     1       1.932   2.010  19.257  0.00  0.00    +0.000 C 
ATOM     23  C   UNL     1       2.981   2.643  19.799  0.00  0.00    +0.000 C 
ENDBRANCH  19  23
ENDBRANCH  13  19
ENDBRANCH   1  16
BRANCH   4  24
ATOM     24  O   UNL     1      -1.413  12.128  19.388  0.00  0.00    +0.000 OA
BRANCH  24  25
ATOM     25  C   UNL     1      -1.832  11.955  18.035  0.00  0.00    +0.000 C 
BRANCH  25  26
ATOM     26  C   UNL     1      -2.684  10.671  17.950  0.00  0.00    +0.000 C 
ATOM     27  C   UNL     1      -4.194  10.963  17.877  0.00  0.00    +0.000 C 
ATOM     28  C   UNL     1      -4.621  11.549  16.532  0.00  0.00    +0.000 C 
ATOM     29  C   UNL     1      -4.154  10.693  15.358  0.00  0.00    +0.000 C 
ATOM     30  C   UNL     1      -2.662  10.383  15.420  0.00  0.00    +0.000 C 
ATOM     31  C   UNL     1      -2.266   9.786  16.768  0.00  0.00    +0.000 C 
ENDBRANCH  25  26
ENDBRANCH  24  25
ENDBRANCH   4  24
TORSDOF 6
ENDMDL
MODEL 9
REMARK VINA RESULT:      -8.0      5.554      8.007
REMARK  Name = 
REMARK  6 active torsions:
REMARK  status: ('A' for Active; 'I' for Inactive)
REMARK    1  A    between atoms: C_2  and  S_3
REMARK    2  A    between atoms: S_3  and  C_6
REMARK    3  A    between atoms: C_9  and  N_10
REMARK    4  A    between atoms: C_13  and  O_14
REMARK    5  A    between atoms: O_14  and  C_15
REMARK    6  A    between atoms: C_15  and  C_16
REMARK                            x       y       z     vdW  Elec       q    Type
REMARK                         _______ _______ _______ _____ _____    ______ ____
ROOT
ATOM      1  N   UNL     1       8.296   7.337  19.114  0.00  0.00    +0.000 N 
ATOM      2  C   UNL     1       7.635   6.438  18.261  0.00  0.00    +0.000 A 
ATOM      3  N   UNL     1       6.903   5.465  18.853  0.00  0.00    +0.000 NA
ATOM      4  C   UNL     1       6.258   4.559  18.063  0.00  0.00    +0.000 A 
ATOM      5  C   UNL     1       6.374   4.644  16.675  0.00  0.00    +0.000 A 
ATOM      6  N   UNL     1       5.883   3.908  15.616  0.00  0.00    +0.000 NA
ATOM      7  C   UNL     1       6.349   4.507  14.539  0.00  0.00    +0.000 A 
ATOM      8  N   UNL     1       7.104   5.603  14.854  0.00  0.00    +0.000 N 
ATOM      9  C   UNL     1       7.139   5.692  16.212  0.00  0.00    +0.000 A 
ATOM     10  N   UNL     1       7.786   6.610  16.933  0.00  0.00    +0.000 NA
ATOM     11  H   UNL     1       7.982   7.163  20.060  0.00  0.00    +0.000 HD
ATOM     12  H   UNL     1       7.564   6.235  14.215  0.00  0.00    +0.000 HD
ENDROOT
BRANCH   1  16
ATOM     13  C   UNL     1       8.998  11.395  18.228  0.00  0.00    +0.000 A 
ATOM     14  C   UNL     1       9.653  10.808  19.307  0.00  0.00    +0.000 A 
ATOM     15  C   UNL     1       9.429   9.462  19.592  0.00  0.00    +0.000 A 
ATOM     16  C   UNL     1       8.534   8.696  18.828  0.00  0.00    +0.000 A 
ATOM     17  C   UNL     1       7.911   9.296  17.725  0.00  0.00    +0.000 A 
ATOM     18  C   UNL     1       8.122  10.650  17.433  0.00  0.00    +0.000 A 
BRANCH  13  19
ATOM     19  S   UNL     1       9.258  13.127  17.892  0.00  0.00    +0.000 S 
ATOM     20  O   UNL     1       9.473  13.779  19.175  0.00  0.00    +0.000 OA
ATOM     21  O   UNL     1       8.189  13.557  17.015  0.00  0.00    +0.000 OA
BRANCH  19  23
ATOM     22  C   UNL     1      11.463  14.229  16.879  0.00  0.00    +0.000 C 
ATOM     23  C   UNL     1      10.752  13.100  17.002  0.00  0.00    +0.000 C 
ENDBRANCH  19  23
ENDBRANCH  13  19
ENDBRANCH   1  16
BRANCH   4  24
ATOM     24  O   UNL     1       5.550   3.520  18.628  0.00  0.00    +0.000 OA
BRANCH  24  25
ATOM     25  C   UNL     1       4.420   3.949  19.389  0.00  0.00    +0.000 C 
BRANCH  25  26
ATOM     26  C   UNL     1       3.299   4.352  18.407  0.00  0.00    +0.000 C 
ATOM     27  C   UNL     1       2.869   3.195  17.487  0.00  0.00    +0.000 C 
ATOM     28  C   UNL     1       2.082   2.112  18.222  0.00  0.00    +0.000 C 
ATOM     29  C   UNL     1       0.898   2.687  18.995  0.00  0.00    +0.000 C 
ATOM     30  C   UNL     1       1.303   3.843  19.905  0.00  0.00    +0.000 C 
ATOM     31  C   UNL     1       2.075   4.917  19.141  0.00  0.00    +0.000 C 
ENDBRANCH  25  26
ENDBRANCH  24  25
ENDBRANCH   4  24
TORSDOF 6
ENDMDL
