MODEL 1
REMARK VINA RESULT:      -5.2      0.000      0.000
REMARK  Name = 
REMARK  10 active torsions:
REMARK  status: ('A' for Active; 'I' for Inactive)
REMARK    1  A    between atoms: C_1  and  C_2
REMARK    2  A    between atoms: C_2  and  C_3
REMARK    3  A    between atoms: C_3  and  C_4
REMARK    4  A    between atoms: C_3  and  P_11
REMARK    5  A    between atoms: C_4  and  C_5
REMARK    6  A    between atoms: C_5  and  N_6
REMARK    7  A    between atoms: N_6  and  O_7
REMARK    8  A    between atoms: C_8  and  C_9
REMARK    9  A    between atoms: P_11  and  O_13
REMARK   10  A    between atoms: P_11  and  O_14
REMARK                            x       y       z     vdW  Elec       q    Type
REMARK                         _______ _______ _______ _____ _____    ______ ____
ROOT
ATOM      1  C   UNL     1       2.583   3.542  19.123  0.00  0.00    +0.000 C 
ENDROOT
BRANCH   1   3
ATOM      2  C   UNL     1       2.025   3.355  21.657  0.00  0.00    +0.000 C 
ATOM      3  C   UNL     1       2.893   3.983  20.583  0.00  0.00    +0.000 C 
ENDBRANCH   1   3
BRANCH   1   4
ATOM      4  P   UNL     1       3.514   2.004  18.780  0.00  0.00    +0.000 P 
ATOM      5  O   UNL     1       3.858   2.442  17.357  0.00  0.00    +0.000 OA
BRANCH   4   6
ATOM      6  O   UNL     1       4.758   2.480  19.722  0.00  0.00    +0.000 OA
ATOM      7  H   UNL     1       5.618   2.437  19.262  0.00  0.00    +0.000 HD
ENDBRANCH   4   6
BRANCH   4   8
ATOM      8  O   UNL     1       4.393   0.550  18.456  0.00  0.00    +0.000 OA
ATOM      9  H   UNL     1       3.759  -0.146  18.734  0.00  0.00    +0.000 HD
ENDBRANCH   4   8
ENDBRANCH   1   4
BRANCH   1  10
ATOM     10  C   UNL     1       2.843   4.657  18.093  0.00  0.00    +0.000 C 
BRANCH  10  11
ATOM     11  C   UNL     1       3.903   5.659  18.544  0.00  0.00    +0.000 C 
BRANCH  11  12
ATOM     12  N   UNL     1       5.183   5.493  17.866  0.00  0.00    +0.000 N 
ATOM     13  C   UNL     1       6.328   5.136  18.540  0.00  0.00    +0.000 C 
ATOM     14  C   UNL     1       7.552   4.900  17.680  0.00  0.00    +0.000 C 
ATOM     15  O   UNL     1       6.388   5.064  19.767  0.00  0.00    +0.000 OA
BRANCH  12  16
ATOM     16  O   UNL     1       5.026   5.010  16.548  0.00  0.00    +0.000 OA
ATOM     17  H   UNL     1       4.138   5.341  16.313  0.00  0.00    +0.000 HD
ENDBRANCH  12  16
ENDBRANCH  11  12
ENDBRANCH  10  11
ENDBRANCH   1  10
TORSDOF 8
ENDMDL
MODEL 2
REMARK VINA RESULT:      -5.2      1.398      1.995
REMARK  Name = 
REMARK  10 active torsions:
REMARK  status: ('A' for Active; 'I' for Inactive)
REMARK    1  A    between atoms: C_1  and  C_2
REMARK    2  A    between atoms: C_2  and  C_3
REMARK    3  A    between atoms: C_3  and  C_4
REMARK    4  A    between atoms: C_3  and  P_11
REMARK    5  A    between atoms: C_4  and  C_5
REMARK    6  A    between atoms: C_5  and  N_6
REMARK    7  A    between atoms: N_6  and  O_7
REMARK    8  A    between atoms: C_8  and  C_9
REMARK    9  A    between atoms: P_11  and  O_13
REMARK   10  A    between atoms: P_11  and  O_14
REMARK                            x       y       z     vdW  Elec       q    Type
REMARK                         _______ _______ _______ _____ _____    ______ ____
ROOT
ATOM      1  C   UNL     1       2.521   3.844  18.516  0.00  0.00    +0.000 C 
ENDROOT
BRANCH   1   3
ATOM      2  C   UNL     1       1.848   5.347  20.531  0.00  0.00    +0.000 C 
ATOM      3  C   UNL     1       1.801   3.971  19.890  0.00  0.00    +0.000 C 
ENDBRANCH   1   3
BRANCH   1   4
ATOM      4  P   UNL     1       3.402   2.241  18.477  0.00  0.00    +0.000 P 
ATOM      5  O   UNL     1       3.999   2.451  19.869  0.00  0.00    +0.000 OA
BRANCH   4   6
ATOM      6  O   UNL     1       2.015   1.409  18.692  0.00  0.00    +0.000 OA
ATOM      7  H   UNL     1       2.097   0.705  19.363  0.00  0.00    +0.000 HD
ENDBRANCH   4   6
BRANCH   4   8
ATOM      8  O   UNL     1       4.236   0.726  18.440  0.00  0.00    +0.000 OA
ATOM      9  H   UNL     1       4.858   0.846  17.690  0.00  0.00    +0.000 HD
ENDBRANCH   4   8
ENDBRANCH   1   4
BRANCH   1  10
ATOM     10  C   UNL     1       3.428   5.049  18.203  0.00  0.00    +0.000 C 
BRANCH  10  11
ATOM     11  C   UNL     1       4.643   4.685  17.355  0.00  0.00    +0.000 C 
BRANCH  11  12
ATOM     12  N   UNL     1       5.909   5.111  17.942  0.00  0.00    +0.000 N 
ATOM     13  C   UNL     1       6.531   6.281  17.572  0.00  0.00    +0.000 C 
ATOM     14  C   UNL     1       7.781   6.636  18.349  0.00  0.00    +0.000 C 
ATOM     15  O   UNL     1       6.143   6.978  16.635  0.00  0.00    +0.000 OA
BRANCH  12  16
ATOM     16  O   UNL     1       6.030   4.707  19.290  0.00  0.00    +0.000 OA
ATOM     17  H   UNL     1       6.305   3.774  19.201  0.00  0.00    +0.000 HD
ENDBRANCH  12  16
ENDBRANCH  11  12
ENDBRANCH  10  11
ENDBRANCH   1  10
TORSDOF 8
ENDMDL
MODEL 3
REMARK VINA RESULT:      -5.2      2.443      5.116
REMARK  Name = 
REMARK  10 active torsions:
REMARK  status: ('A' for Active; 'I' for Inactive)
REMARK    1  A    between atoms: C_1  and  C_2
REMARK    2  A    between atoms: C_2  and  C_3
REMARK    3  A    between atoms: C_3  and  C_4
REMARK    4  A    between atoms: C_3  and  P_11
REMARK    5  A    between atoms: C_4  and  C_5
REMARK    6  A    between atoms: C_5  and  N_6
REMARK    7  A    between atoms: N_6  and  O_7
REMARK    8  A    between atoms: C_8  and  C_9
REMARK    9  A    between atoms: P_11  and  O_13
REMARK   10  A    between atoms: P_11  and  O_14
REMARK                            x       y       z     vdW  Elec       q    Type
REMARK                         _______ _______ _______ _____ _____    ______ ____
ROOT
ATOM      1  C   UNL     1       6.075   5.520  17.265  0.00  0.00    +0.000 C 
ENDROOT
BRANCH   1   3
ATOM      2  C   UNL     1       6.922   5.169  14.831  0.00  0.00    +0.000 C 
ATOM      3  C   UNL     1       6.654   4.554  16.192  0.00  0.00    +0.000 C 
ENDBRANCH   1   3
BRANCH   1   4
ATOM      4  P   UNL     1       7.213   5.533  18.699  0.00  0.00    +0.000 P 
ATOM      5  O   UNL     1       6.098   5.174  19.681  0.00  0.00    +0.000 OA
BRANCH   4   6
ATOM      6  O   UNL     1       7.894   4.123  18.241  0.00  0.00    +0.000 OA
ATOM      7  H   UNL     1       7.521   3.775  17.409  0.00  0.00    +0.000 HD
ENDBRANCH   4   6
BRANCH   4   8
ATOM      8  O   UNL     1       8.288   5.545  20.053  0.00  0.00    +0.000 OA
ATOM      9  H   UNL     1       8.658   6.454  20.020  0.00  0.00    +0.000 HD
ENDBRANCH   4   8
ENDBRANCH   1   4
BRANCH   1  10
ATOM     10  C   UNL     1       4.618   5.191  17.643  0.00  0.00    +0.000 C 
BRANCH  10  11
ATOM     11  C   UNL     1       4.098   3.917  16.982  0.00  0.00    +0.000 C 
BRANCH  11  12
ATOM     12  N   UNL     1       3.274   3.100  17.866  0.00  0.00    +0.000 N 
ATOM     13  C   UNL     1       1.905   3.227  17.916  0.00  0.00    +0.000 C 
ATOM     14  C   UNL     1       1.184   2.235  18.805  0.00  0.00    +0.000 C 
ATOM     15  O   UNL     1       1.293   4.119  17.329  0.00  0.00    +0.000 OA
BRANCH  12  16
ATOM     16  O   UNL     1       3.815   1.808  18.052  0.00  0.00    +0.000 OA
ATOM     17  H   UNL     1       3.102   1.356  18.542  0.00  0.00    +0.000 HD
ENDBRANCH  12  16
ENDBRANCH  11  12
ENDBRANCH  10  11
ENDBRANCH   1  10
TORSDOF 8
ENDMDL
MODEL 4
REMARK VINA RESULT:      -5.2      1.565      1.845
REMARK  Name = 
REMARK  10 active torsions:
REMARK  status: ('A' for Active; 'I' for Inactive)
REMARK    1  A    between atoms: C_1  and  C_2
REMARK    2  A    between atoms: C_2  and  C_3
REMARK    3  A    between atoms: C_3  and  C_4
REMARK    4  A    between atoms: C_3  and  P_11
REMARK    5  A    between atoms: C_4  and  C_5
REMARK    6  A    between atoms: C_5  and  N_6
REMARK    7  A    between atoms: N_6  and  O_7
REMARK    8  A    between atoms: C_8  and  C_9
REMARK    9  A    between atoms: P_11  and  O_13
REMARK   10  A    between atoms: P_11  and  O_14
REMARK                            x       y       z     vdW  Elec       q    Type
REMARK                         _______ _______ _______ _____ _____    ______ ____
ROOT
ATOM      1  C   UNL     1       3.363   4.384  19.258  0.00  0.00    +0.000 C 
ENDROOT
BRANCH   1   3
ATOM      2  C   UNL     1       1.096   4.092  20.501  0.00  0.00    +0.000 C 
ATOM      3  C   UNL     1       2.464   4.749  20.475  0.00  0.00    +0.000 C 
ENDBRANCH   1   3
BRANCH   1   4
ATOM      4  P   UNL     1       4.266   2.843  19.656  0.00  0.00    +0.000 P 
ATOM      5  O   UNL     1       3.672   2.099  18.460  0.00  0.00    +0.000 OA
BRANCH   4   6
ATOM      6  O   UNL     1       5.682   3.476  19.147  0.00  0.00    +0.000 OA
ATOM      7  H   UNL     1       5.589   4.387  18.810  0.00  0.00    +0.000 HD
ENDBRANCH   4   6
BRANCH   4   8
ATOM      8  O   UNL     1       5.120   1.386  20.031  0.00  0.00    +0.000 OA
ATOM      9  H   UNL     1       5.923   1.463  19.471  0.00  0.00    +0.000 HD
ENDBRANCH   4   8
ENDBRANCH   1   4
BRANCH   1  10
ATOM     10  C   UNL     1       4.285   5.541  18.828  0.00  0.00    +0.000 C 
BRANCH  10  11
ATOM     11  C   UNL     1       4.034   6.012  17.398  0.00  0.00    +0.000 C 
BRANCH  11  12
ATOM     12  N   UNL     1       4.896   5.365  16.415  0.00  0.00    +0.000 N 
ATOM     13  C   UNL     1       6.184   5.787  16.180  0.00  0.00    +0.000 C 
ATOM     14  C   UNL     1       6.985   4.947  15.207  0.00  0.00    +0.000 C 
ATOM     15  O   UNL     1       6.653   6.812  16.673  0.00  0.00    +0.000 OA
BRANCH  12  16
ATOM     16  O   UNL     1       4.636   3.980  16.312  0.00  0.00    +0.000 OA
ATOM     17  H   UNL     1       3.669   3.963  16.178  0.00  0.00    +0.000 HD
ENDBRANCH  12  16
ENDBRANCH  11  12
ENDBRANCH  10  11
ENDBRANCH   1  10
TORSDOF 8
ENDMDL
MODEL 5
REMARK VINA RESULT:      -5.2      2.603      4.945
REMARK  Name = 
REMARK  10 active torsions:
REMARK  status: ('A' for Active; 'I' for Inactive)
REMARK    1  A    between atoms: C_1  and  C_2
REMARK    2  A    between atoms: C_2  and  C_3
REMARK    3  A    between atoms: C_3  and  C_4
REMARK    4  A    between atoms: C_3  and  P_11
REMARK    5  A    between atoms: C_4  and  C_5
REMARK    6  A    between atoms: C_5  and  N_6
REMARK    7  A    between atoms: N_6  and  O_7
REMARK    8  A    between atoms: C_8  and  C_9
REMARK    9  A    between atoms: P_11  and  O_13
REMARK   10  A    between atoms: P_11  and  O_14
REMARK                            x       y       z     vdW  Elec       q    Type
REMARK                         _______ _______ _______ _____ _____    ______ ____
ROOT
ATOM      1  C   UNL     1       5.747   5.943  16.952  0.00  0.00    +0.000 C 
ENDROOT
BRANCH   1   3
ATOM      2  C   UNL     1       6.045   4.377  14.896  0.00  0.00    +0.000 C 
ATOM      3  C   UNL     1       5.204   5.437  15.584  0.00  0.00    +0.000 C 
ENDBRANCH   1   3
BRANCH   1   4
ATOM      4  P   UNL     1       7.180   4.906  17.419  0.00  0.00    +0.000 P 
ATOM      5  O   UNL     1       7.779   6.001  18.302  0.00  0.00    +0.000 OA
BRANCH   4   6
ATOM      6  O   UNL     1       6.261   3.977  18.397  0.00  0.00    +0.000 OA
ATOM      7  H   UNL     1       6.772   3.575  19.125  0.00  0.00    +0.000 HD
ENDBRANCH   4   6
BRANCH   4   8
ATOM      8  O   UNL     1       8.535   3.925  17.860  0.00  0.00    +0.000 OA
ATOM      9  H   UNL     1       8.765   4.273  18.749  0.00  0.00    +0.000 HD
ENDBRANCH   4   8
ENDBRANCH   1   4
BRANCH   1  10
ATOM     10  C   UNL     1       4.658   6.007  18.039  0.00  0.00    +0.000 C 
BRANCH  10  11
ATOM     11  C   UNL     1       3.369   5.289  17.646  0.00  0.00    +0.000 C 
BRANCH  11  12
ATOM     12  N   UNL     1       2.658   4.712  18.781  0.00  0.00    +0.000 N 
ATOM     13  C   UNL     1       1.536   3.931  18.621  0.00  0.00    +0.000 C 
ATOM     14  C   UNL     1       0.975   3.319  19.888  0.00  0.00    +0.000 C 
ATOM     15  O   UNL     1       0.977   3.776  17.536  0.00  0.00    +0.000 OA
BRANCH  12  16
ATOM     16  O   UNL     1       3.529   4.389  19.844  0.00  0.00    +0.000 OA
ATOM     17  H   UNL     1       3.119   4.860  20.595  0.00  0.00    +0.000 HD
ENDBRANCH  12  16
ENDBRANCH  11  12
ENDBRANCH  10  11
ENDBRANCH   1  10
TORSDOF 8
ENDMDL
MODEL 6
REMARK VINA RESULT:      -5.1      2.245      4.336
REMARK  Name = 
REMARK  10 active torsions:
REMARK  status: ('A' for Active; 'I' for Inactive)
REMARK    1  A    between atoms: C_1  and  C_2
REMARK    2  A    between atoms: C_2  and  C_3
REMARK    3  A    between atoms: C_3  and  C_4
REMARK    4  A    between atoms: C_3  and  P_11
REMARK    5  A    between atoms: C_4  and  C_5
REMARK    6  A    between atoms: C_5  and  N_6
REMARK    7  A    between atoms: N_6  and  O_7
REMARK    8  A    between atoms: C_8  and  C_9
REMARK    9  A    between atoms: P_11  and  O_13
REMARK   10  A    between atoms: P_11  and  O_14
REMARK                            x       y       z     vdW  Elec       q    Type
REMARK                         _______ _______ _______ _____ _____    ______ ____
ROOT
ATOM      1  C   UNL     1       4.162   5.134  18.024  0.00  0.00    +0.000 C 
ENDROOT
BRANCH   1   3
ATOM      2  C   UNL     1       2.788   7.342  18.112  0.00  0.00    +0.000 C 
ATOM      3  C   UNL     1       4.049   6.639  17.644  0.00  0.00    +0.000 C 
ENDBRANCH   1   3
BRANCH   1   4
ATOM      4  P   UNL     1       5.935   4.683  18.059  0.00  0.00    +0.000 P 
ATOM      5  O   UNL     1       5.781   3.877  19.348  0.00  0.00    +0.000 OA
BRANCH   4   6
ATOM      6  O   UNL     1       5.748   3.626  16.830  0.00  0.00    +0.000 OA
ATOM      7  H   UNL     1       5.470   4.057  16.000  0.00  0.00    +0.000 HD
ENDBRANCH   4   6
BRANCH   4   8
ATOM      8  O   UNL     1       7.611   4.257  18.092  0.00  0.00    +0.000 OA
ATOM      9  H   UNL     1       7.989   4.834  17.392  0.00  0.00    +0.000 HD
ENDBRANCH   4   8
ENDBRANCH   1   4
BRANCH   1  10
ATOM     10  C   UNL     1       3.316   4.223  17.114  0.00  0.00    +0.000 C 
BRANCH  10  11
ATOM     11  C   UNL     1       2.215   3.478  17.863  0.00  0.00    +0.000 C 
BRANCH  11  12
ATOM     12  N   UNL     1       2.570   3.148  19.238  0.00  0.00    +0.000 N 
ATOM     13  C   UNL     1       1.723   3.398  20.294  0.00  0.00    +0.000 C 
ATOM     14  C   UNL     1       2.191   2.902  21.646  0.00  0.00    +0.000 C 
ATOM     15  O   UNL     1       0.676   4.035  20.175  0.00  0.00    +0.000 OA
BRANCH  12  16
ATOM     16  O   UNL     1       3.381   1.994  19.315  0.00  0.00    +0.000 OA
ATOM     17  H   UNL     1       4.193   2.341  19.732  0.00  0.00    +0.000 HD
ENDBRANCH  12  16
ENDBRANCH  11  12
ENDBRANCH  10  11
ENDBRANCH   1  10
TORSDOF 8
ENDMDL
MODEL 7
REMARK VINA RESULT:      -5.1      2.406      4.820
REMARK  Name = 
REMARK  10 active torsions:
REMARK  status: ('A' for Active; 'I' for Inactive)
REMARK    1  A    between atoms: C_1  and  C_2
REMARK    2  A    between atoms: C_2  and  C_3
REMARK    3  A    between atoms: C_3  and  C_4
REMARK    4  A    between atoms: C_3  and  P_11
REMARK    5  A    between atoms: C_4  and  C_5
REMARK    6  A    between atoms: C_5  and  N_6
REMARK    7  A    between atoms: N_6  and  O_7
REMARK    8  A    between atoms: C_8  and  C_9
REMARK    9  A    between atoms: P_11  and  O_13
REMARK   10  A    between atoms: P_11  and  O_14
REMARK                            x       y       z     vdW  Elec       q    Type
REMARK                         _______ _______ _______ _____ _____    ______ ____
ROOT
ATOM      1  C   UNL     1       5.528   5.400  17.493  0.00  0.00    +0.000 C 
ENDROOT
BRANCH   1   3
ATOM      2  C   UNL     1       5.532   4.333  15.121  0.00  0.00    +0.000 C 
ATOM      3  C   UNL     1       6.066   5.422  16.033  0.00  0.00    +0.000 C 
ENDBRANCH   1   3
BRANCH   1   4
ATOM      4  P   UNL     1       6.958   5.487  18.632  0.00  0.00    +0.000 P 
ATOM      5  O   UNL     1       6.151   4.932  19.806  0.00  0.00    +0.000 OA
BRANCH   4   6
ATOM      6  O   UNL     1       7.674   4.205  17.920  0.00  0.00    +0.000 OA
ATOM      7  H   UNL     1       8.591   4.391  17.641  0.00  0.00    +0.000 HD
ENDBRANCH   4   6
BRANCH   4   8
ATOM      8  O   UNL     1       8.310   5.568  19.708  0.00  0.00    +0.000 OA
ATOM      9  H   UNL     1       8.836   4.782  19.445  0.00  0.00    +0.000 HD
ENDBRANCH   4   8
ENDBRANCH   1   4
BRANCH   1  10
ATOM     10  C   UNL     1       4.597   4.204  17.769  0.00  0.00    +0.000 C 
BRANCH  10  11
ATOM     11  C   UNL     1       3.142   4.611  17.988  0.00  0.00    +0.000 C 
BRANCH  11  12
ATOM     12  N   UNL     1       2.728   4.556  19.385  0.00  0.00    +0.000 N 
ATOM     13  C   UNL     1       2.358   3.378  19.993  0.00  0.00    +0.000 C 
ATOM     14  C   UNL     1       2.058   3.469  21.475  0.00  0.00    +0.000 C 
ATOM     15  O   UNL     1       2.219   2.322  19.378  0.00  0.00    +0.000 OA
BRANCH  12  16
ATOM     16  O   UNL     1       3.402   5.513  20.176  0.00  0.00    +0.000 OA
ATOM     17  H   UNL     1       3.012   5.360  21.058  0.00  0.00    +0.000 HD
ENDBRANCH  12  16
ENDBRANCH  11  12
ENDBRANCH  10  11
ENDBRANCH   1  10
TORSDOF 8
ENDMDL
MODEL 8
REMARK VINA RESULT:      -5.1      2.490      5.093
REMARK  Name = 
REMARK  10 active torsions:
REMARK  status: ('A' for Active; 'I' for Inactive)
REMARK    1  A    between atoms: C_1  and  C_2
REMARK    2  A    between atoms: C_2  and  C_3
REMARK    3  A    between atoms: C_3  and  C_4
REMARK    4  A    between atoms: C_3  and  P_11
REMARK    5  A    between atoms: C_4  and  C_5
REMARK    6  A    between atoms: C_5  and  N_6
REMARK    7  A    between atoms: N_6  and  O_7
REMARK    8  A    between atoms: C_8  and  C_9
REMARK    9  A    between atoms: P_11  and  O_13
REMARK   10  A    between atoms: P_11  and  O_14
REMARK                            x       y       z     vdW  Elec       q    Type
REMARK                         _______ _______ _______ _____ _____    ______ ____
ROOT
ATOM      1  C   UNL     1       6.066   5.420  17.278  0.00  0.00    +0.000 C 
ENDROOT
BRANCH   1   3
ATOM      2  C   UNL     1       6.212   4.037  15.079  0.00  0.00    +0.000 C 
ATOM      3  C   UNL     1       6.952   4.827  16.144  0.00  0.00    +0.000 C 
ENDBRANCH   1   3
BRANCH   1   4
ATOM      4  P   UNL     1       7.067   5.488  18.809  0.00  0.00    +0.000 P 
ATOM      5  O   UNL     1       7.997   4.370  18.339  0.00  0.00    +0.000 OA
BRANCH   4   6
ATOM      6  O   UNL     1       7.768   6.891  18.355  0.00  0.00    +0.000 OA
ATOM      7  H   UNL     1       8.714   6.787  18.137  0.00  0.00    +0.000 HD
ENDBRANCH   4   6
BRANCH   4   8
ATOM      8  O   UNL     1       8.013   5.553  20.256  0.00  0.00    +0.000 OA
ATOM      9  H   UNL     1       7.671   6.363  20.694  0.00  0.00    +0.000 HD
ENDBRANCH   4   8
ENDBRANCH   1   4
BRANCH   1  10
ATOM     10  C   UNL     1       4.734   4.667  17.451  0.00  0.00    +0.000 C 
BRANCH  10  11
ATOM     11  C   UNL     1       4.522   4.133  18.866  0.00  0.00    +0.000 C 
BRANCH  11  12
ATOM     12  N   UNL     1       3.202   4.434  19.407  0.00  0.00    +0.000 N 
ATOM     13  C   UNL     1       2.246   3.461  19.590  0.00  0.00    +0.000 C 
ATOM     14  C   UNL     1       0.965   3.913  20.259  0.00  0.00    +0.000 C 
ATOM     15  O   UNL     1       2.382   2.305  19.188  0.00  0.00    +0.000 OA
BRANCH  12  16
ATOM     16  O   UNL     1       3.240   5.491  20.343  0.00  0.00    +0.000 OA
ATOM     17  H   UNL     1       2.403   5.960  20.157  0.00  0.00    +0.000 HD
ENDBRANCH  12  16
ENDBRANCH  11  12
ENDBRANCH  10  11
ENDBRANCH   1  10
TORSDOF 8
ENDMDL
MODEL 9
REMARK VINA RESULT:      -5.1      1.987      2.524
REMARK  Name = 
REMARK  10 active torsions:
REMARK  status: ('A' for Active; 'I' for Inactive)
REMARK    1  A    between atoms: C_1  and  C_2
REMARK    2  A    between atoms: C_2  and  C_3
REMARK    3  A    between atoms: C_3  and  C_4
REMARK    4  A    between atoms: C_3  and  P_11
REMARK    5  A    between atoms: C_4  and  C_5
REMARK    6  A    between atoms: C_5  and  N_6
REMARK    7  A    between atoms: N_6  and  O_7
REMARK    8  A    between atoms: C_8  and  C_9
REMARK    9  A    between atoms: P_11  and  O_13
REMARK   10  A    between atoms: P_11  and  O_14
REMARK                            x       y       z     vdW  Elec       q    Type
REMARK                         _______ _______ _______ _____ _____    ______ ____
ROOT
ATOM      1  C   UNL     1       2.901   3.844  19.010  0.00  0.00    +0.000 C 
ENDROOT
BRANCH   1   3
ATOM      2  C   UNL     1       1.778   5.502  20.671  0.00  0.00    +0.000 C 
ATOM      3  C   UNL     1       2.981   5.181  19.803  0.00  0.00    +0.000 C 
ENDBRANCH   1   3
BRANCH   1   4
ATOM      4  P   UNL     1       4.141   2.692  19.705  0.00  0.00    +0.000 P 
ATOM      5  O   UNL     1       3.213   2.261  20.841  0.00  0.00    +0.000 OA
BRANCH   4   6
ATOM      6  O   UNL     1       3.911   1.624  18.493  0.00  0.00    +0.000 OA
ATOM      7  H   UNL     1       4.037   2.022  17.610  0.00  0.00    +0.000 HD
ENDBRANCH   4   6
BRANCH   4   8
ATOM      8  O   UNL     1       5.314   1.602  20.362  0.00  0.00    +0.000 OA
ATOM      9  H   UNL     1       5.253   0.836  19.751  0.00  0.00    +0.000 HD
ENDBRANCH   4   8
ENDBRANCH   1   4
BRANCH   1  10
ATOM     10  C   UNL     1       3.035   4.043  17.489  0.00  0.00    +0.000 C 
BRANCH  10  11
ATOM     11  C   UNL     1       4.147   5.015  17.103  0.00  0.00    +0.000 C 
BRANCH  11  12
ATOM     12  N   UNL     1       5.026   4.506  16.056  0.00  0.00    +0.000 N 
ATOM     13  C   UNL     1       5.738   5.341  15.227  0.00  0.00    +0.000 C 
ATOM     14  C   UNL     1       6.687   4.660  14.263  0.00  0.00    +0.000 C 
ATOM     15  O   UNL     1       5.585   6.563  15.215  0.00  0.00    +0.000 OA
BRANCH  12  16
ATOM     16  O   UNL     1       5.629   3.281  16.420  0.00  0.00    +0.000 OA
ATOM     17  H   UNL     1       6.512   3.570  16.722  0.00  0.00    +0.000 HD
ENDBRANCH  12  16
ENDBRANCH  11  12
ENDBRANCH  10  11
ENDBRANCH   1  10
TORSDOF 8
ENDMDL
