MODEL 1
REMARK VINA RESULT:      -8.4      0.000      0.000
REMARK  Name = 
REMARK  6 active torsions:
REMARK  status: ('A' for Active; 'I' for Inactive)
REMARK    1  A    between atoms: C_2  and  C_19
REMARK    2  A    between atoms: N_3  and  C_4
REMARK    3  A    between atoms: C_4  and  C_5
REMARK    4  A    between atoms: C_8  and  O_9
REMARK    5  A    between atoms: O_9  and  C_10
REMARK    6  A    between atoms: C_10  and  C_11
REMARK                            x       y       z     vdW  Elec       q    Type
REMARK                         _______ _______ _______ _____ _____    ______ ____
ROOT
ATOM      1  C   UNL     1       6.228   5.037  17.327  0.00  0.00    +0.000 A 
ATOM      2  C   UNL     1       6.095   6.288  16.718  0.00  0.00    +0.000 A 
ATOM      3  C   UNL     1       6.877   7.365  17.133  0.00  0.00    +0.000 A 
ATOM      4  C   UNL     1       7.792   7.209  18.172  0.00  0.00    +0.000 A 
ATOM      5  C   UNL     1       7.966   5.952  18.751  0.00  0.00    +0.000 A 
ATOM      6  C   UNL     1       7.189   4.869  18.335  0.00  0.00    +0.000 A 
ENDROOT
BRANCH   1   7
ATOM      7  C   UNL     1       5.353   3.896  16.892  0.00  0.00    +0.000 C 
BRANCH   7  10
ATOM      8  O   UNL     1       2.590   3.895  17.125  0.00  0.00    +0.000 OA
ATOM      9  C   UNL     1       3.253   3.336  17.998  0.00  0.00    +0.000 C 
ATOM     10  N   UNL     1       4.627   3.316  17.991  0.00  0.00    +0.000 N 
ATOM     11  H   UNL     1       5.084   2.717  18.672  0.00  0.00    +0.000 HD
BRANCH   9  12
ATOM     12  C   UNL     1       2.592   2.696  19.217  0.00  0.00    +0.000 C 
ATOM     13  C   UNL     1       1.381   3.479  19.675  0.00  0.00    +0.000 C 
ATOM     14  C   UNL     1       1.155   2.937  21.073  0.00  0.00    +0.000 C 
ATOM     15  C   UNL     1       2.547   2.552  21.563  0.00  0.00    +0.000 C 
ATOM     16  N   UNL     1       3.457   2.732  20.422  0.00  0.00    +0.000 NA
ATOM     17  H   UNL     1       4.127   1.962  20.384  0.00  0.00    +0.000 HD
ENDBRANCH   9  12
ENDBRANCH   7  10
ENDBRANCH   1   7
BRANCH   4  18
ATOM     18  O   UNL     1       8.562   8.214  18.689  0.00  0.00    +0.000 OA
BRANCH  18  19
ATOM     19  C   UNL     1       8.385   9.491  18.071  0.00  0.00    +0.000 C 
BRANCH  19  20
ATOM     20  C   UNL     1       9.342  10.479  18.685  0.00  0.00    +0.000 A 
ATOM     21  C   UNL     1      10.193  11.249  17.882  0.00  0.00    +0.000 A 
ATOM     22  C   UNL     1      11.063  12.174  18.462  0.00  0.00    +0.000 A 
ATOM     23  C   UNL     1      11.083  12.342  19.845  0.00  0.00    +0.000 A 
ATOM     24  C   UNL     1      10.226  11.595  20.653  0.00  0.00    +0.000 A 
ATOM     25  C   UNL     1       9.357  10.671  20.076  0.00  0.00    +0.000 A 
ENDBRANCH  19  20
ENDBRANCH  18  19
ENDBRANCH   4  18
TORSDOF 6
ENDMDL
MODEL 2
REMARK VINA RESULT:      -8.2      0.409      1.085
REMARK  Name = 
REMARK  6 active torsions:
REMARK  status: ('A' for Active; 'I' for Inactive)
REMARK    1  A    between atoms: C_2  and  C_19
REMARK    2  A    between atoms: N_3  and  C_4
REMARK    3  A    between atoms: C_4  and  C_5
REMARK    4  A    between atoms: C_8  and  O_9
REMARK    5  A    between atoms: O_9  and  C_10
REMARK    6  A    between atoms: C_10  and  C_11
REMARK                            x       y       z     vdW  Elec       q    Type
REMARK                         _______ _______ _______ _____ _____    ______ ____
ROOT
ATOM      1  C   UNL     1       6.283   5.124  17.204  0.00  0.00    +0.000 A 
ATOM      2  C   UNL     1       6.254   6.362  16.555  0.00  0.00    +0.000 A 
ATOM      3  C   UNL     1       7.025   7.426  17.022  0.00  0.00    +0.000 A 
ATOM      4  C   UNL     1       7.824   7.270  18.153  0.00  0.00    +0.000 A 
ATOM      5  C   UNL     1       7.897   6.024  18.776  0.00  0.00    +0.000 A 
ATOM      6  C   UNL     1       7.131   4.954  18.309  0.00  0.00    +0.000 A 
ENDROOT
BRANCH   1   7
ATOM      7  C   UNL     1       5.420   3.999  16.709  0.00  0.00    +0.000 C 
BRANCH   7  10
ATOM      8  O   UNL     1       2.949   4.869  17.618  0.00  0.00    +0.000 OA
ATOM      9  C   UNL     1       3.440   3.862  18.127  0.00  0.00    +0.000 C 
ATOM     10  N   UNL     1       4.675   3.375  17.771  0.00  0.00    +0.000 N 
ATOM     11  H   UNL     1       4.938   2.468  18.143  0.00  0.00    +0.000 HD
BRANCH   9  12
ATOM     12  C   UNL     1       2.746   3.124  19.270  0.00  0.00    +0.000 C 
ATOM     13  C   UNL     1       1.280   3.487  19.365  0.00  0.00    +0.000 C 
ATOM     14  C   UNL     1       0.916   3.000  20.754  0.00  0.00    +0.000 C 
ATOM     15  C   UNL     1       2.205   3.137  21.558  0.00  0.00    +0.000 C 
ATOM     16  N   UNL     1       3.253   3.531  20.604  0.00  0.00    +0.000 NA
ATOM     17  H   UNL     1       4.118   3.029  20.808  0.00  0.00    +0.000 HD
ENDBRANCH   9  12
ENDBRANCH   7  10
ENDBRANCH   1   7
BRANCH   4  18
ATOM     18  O   UNL     1       8.570   8.264  18.722  0.00  0.00    +0.000 OA
BRANCH  18  19
ATOM     19  C   UNL     1       8.351   9.570  18.181  0.00  0.00    +0.000 C 
BRANCH  19  20
ATOM     20  C   UNL     1       9.383  10.518  18.735  0.00  0.00    +0.000 A 
ATOM     21  C   UNL     1       9.457  10.776  20.110  0.00  0.00    +0.000 A 
ATOM     22  C   UNL     1      10.428  11.643  20.613  0.00  0.00    +0.000 A 
ATOM     23  C   UNL     1      11.336  12.252  19.749  0.00  0.00    +0.000 A 
ATOM     24  C   UNL     1      11.284  11.988  18.381  0.00  0.00    +0.000 A 
ATOM     25  C   UNL     1      10.314  11.122  17.877  0.00  0.00    +0.000 A 
ENDBRANCH  19  20
ENDBRANCH  18  19
ENDBRANCH   4  18
TORSDOF 6
ENDMDL
MODEL 3
REMARK VINA RESULT:      -8.1      0.851      1.381
REMARK  Name = 
REMARK  6 active torsions:
REMARK  status: ('A' for Active; 'I' for Inactive)
REMARK    1  A    between atoms: C_2  and  C_19
REMARK    2  A    between atoms: N_3  and  C_4
REMARK    3  A    between atoms: C_4  and  C_5
REMARK    4  A    between atoms: C_8  and  O_9
REMARK    5  A    between atoms: O_9  and  C_10
REMARK    6  A    between atoms: C_10  and  C_11
REMARK                            x       y       z     vdW  Elec       q    Type
REMARK                         _______ _______ _______ _____ _____    ______ ____
ROOT
ATOM      1  C   UNL     1       6.537   5.329  17.232  0.00  0.00    +0.000 A 
ATOM      2  C   UNL     1       7.279   5.074  18.389  0.00  0.00    +0.000 A 
ATOM      3  C   UNL     1       8.033   6.084  18.985  0.00  0.00    +0.000 A 
ATOM      4  C   UNL     1       8.067   7.359  18.423  0.00  0.00    +0.000 A 
ATOM      5  C   UNL     1       7.291   7.634  17.297  0.00  0.00    +0.000 A 
ATOM      6  C   UNL     1       6.529   6.627  16.700  0.00  0.00    +0.000 A 
ENDROOT
BRANCH   1   7
ATOM      7  C   UNL     1       5.758   4.221  16.583  0.00  0.00    +0.000 C 
BRANCH   7  10
ATOM      8  O   UNL     1       3.381   5.322  17.489  0.00  0.00    +0.000 OA
ATOM      9  C   UNL     1       3.685   4.190  17.866  0.00  0.00    +0.000 C 
ATOM     10  N   UNL     1       4.859   3.575  17.502  0.00  0.00    +0.000 N 
ATOM     11  H   UNL     1       4.961   2.595  17.747  0.00  0.00    +0.000 HD
BRANCH   9  12
ATOM     12  C   UNL     1       2.813   3.415  18.851  0.00  0.00    +0.000 C 
ATOM     13  C   UNL     1       1.537   2.922  18.205  0.00  0.00    +0.000 C 
ATOM     14  C   UNL     1       0.678   2.576  19.406  0.00  0.00    +0.000 C 
ATOM     15  C   UNL     1       1.136   3.542  20.494  0.00  0.00    +0.000 C 
ATOM     16  N   UNL     1       2.295   4.267  19.950  0.00  0.00    +0.000 NA
ATOM     17  H   UNL     1       3.012   4.370  20.669  0.00  0.00    +0.000 HD
ENDBRANCH   9  12
ENDBRANCH   7  10
ENDBRANCH   1   7
BRANCH   4  18
ATOM     18  O   UNL     1       8.818   8.398  18.896  0.00  0.00    +0.000 OA
BRANCH  18  19
ATOM     19  C   UNL     1       8.558   9.663  18.281  0.00  0.00    +0.000 C 
BRANCH  19  20
ATOM     20  C   UNL     1       9.554  10.676  18.784  0.00  0.00    +0.000 A 
ATOM     21  C   UNL     1      10.376  11.379  17.893  0.00  0.00    +0.000 A 
ATOM     22  C   UNL     1      11.281  12.328  18.371  0.00  0.00    +0.000 A 
ATOM     23  C   UNL     1      11.366  12.587  19.737  0.00  0.00    +0.000 A 
ATOM     24  C   UNL     1      10.538  11.908  20.630  0.00  0.00    +0.000 A 
ATOM     25  C   UNL     1       9.634  10.960  20.156  0.00  0.00    +0.000 A 
ENDBRANCH  19  20
ENDBRANCH  18  19
ENDBRANCH   4  18
TORSDOF 6
ENDMDL
MODEL 4
REMARK VINA RESULT:      -7.9      4.716      8.211
REMARK  Name = 
REMARK  6 active torsions:
REMARK  status: ('A' for Active; 'I' for Inactive)
REMARK    1  A    between atoms: C_2  and  C_19
REMARK    2  A    between atoms: N_3  and  C_4
REMARK    3  A    between atoms: C_4  and  C_5
REMARK    4  A    between atoms: C_8  and  O_9
REMARK    5  A    between atoms: O_9  and  C_10
REMARK    6  A    between atoms: C_10  and  C_11
REMARK                            x       y       z     vdW  Elec       q    Type
REMARK                         _______ _______ _______ _____ _____    ______ ____
ROOT
ATOM      1  C   UNL     1       6.374   5.410  16.622  0.00  0.00    +0.000 A 
ATOM      2  C   UNL     1       5.422   6.387  16.316  0.00  0.00    +0.000 A 
ATOM      3  C   UNL     1       4.464   6.763  17.257  0.00  0.00    +0.000 A 
ATOM      4  C   UNL     1       4.436   6.155  18.511  0.00  0.00    +0.000 A 
ATOM      5  C   UNL     1       5.412   5.216  18.842  0.00  0.00    +0.000 A 
ATOM      6  C   UNL     1       6.378   4.841  17.904  0.00  0.00    +0.000 A 
ENDROOT
BRANCH   1   7
ATOM      7  C   UNL     1       7.377   4.992  15.585  0.00  0.00    +0.000 C 
BRANCH   7  10
ATOM      8  O   UNL     1       7.970   5.532  12.932  0.00  0.00    +0.000 OA
ATOM      9  C   UNL     1       7.147   4.652  13.182  0.00  0.00    +0.000 C 
ATOM     10  N   UNL     1       6.759   4.337  14.462  0.00  0.00    +0.000 N 
ATOM     11  H   UNL     1       6.183   3.510  14.579  0.00  0.00    +0.000 HD
BRANCH   9  12
ATOM     12  C   UNL     1       6.419   3.899  12.070  0.00  0.00    +0.000 C 
ATOM     13  C   UNL     1       4.926   3.850  12.308  0.00  0.00    +0.000 C 
ATOM     14  C   UNL     1       4.483   2.749  11.365  0.00  0.00    +0.000 C 
ATOM     15  C   UNL     1       5.682   1.808  11.287  0.00  0.00    +0.000 C 
ATOM     16  N   UNL     1       6.773   2.458  12.029  0.00  0.00    +0.000 NA
ATOM     17  H   UNL     1       7.655   2.338  11.530  0.00  0.00    +0.000 HD
ENDBRANCH   9  12
ENDBRANCH   7  10
ENDBRANCH   1   7
BRANCH   4  18
ATOM     18  O   UNL     1       3.505   6.411  19.479  0.00  0.00    +0.000 OA
BRANCH  18  19
ATOM     19  C   UNL     1       2.147   6.189  19.087  0.00  0.00    +0.000 C 
BRANCH  19  20
ATOM     20  C   UNL     1       1.783   4.750  19.343  0.00  0.00    +0.000 A 
ATOM     21  C   UNL     1       1.645   4.265  20.650  0.00  0.00    +0.000 A 
ATOM     22  C   UNL     1       1.290   2.933  20.873  0.00  0.00    +0.000 A 
ATOM     23  C   UNL     1       1.063   2.081  19.795  0.00  0.00    +0.000 A 
ATOM     24  C   UNL     1       1.179   2.558  18.490  0.00  0.00    +0.000 A 
ATOM     25  C   UNL     1       1.533   3.887  18.265  0.00  0.00    +0.000 A 
ENDBRANCH  19  20
ENDBRANCH  18  19
ENDBRANCH   4  18
TORSDOF 6
ENDMDL
MODEL 5
REMARK VINA RESULT:      -7.9      1.130      1.639
REMARK  Name = 
REMARK  6 active torsions:
REMARK  status: ('A' for Active; 'I' for Inactive)
REMARK    1  A    between atoms: C_2  and  C_19
REMARK    2  A    between atoms: N_3  and  C_4
REMARK    3  A    between atoms: C_4  and  C_5
REMARK    4  A    between atoms: C_8  and  O_9
REMARK    5  A    between atoms: O_9  and  C_10
REMARK    6  A    between atoms: C_10  and  C_11
REMARK                            x       y       z     vdW  Elec       q    Type
REMARK                         _______ _______ _______ _____ _____    ______ ____
ROOT
ATOM      1  C   UNL     1       6.566   5.337  17.314  0.00  0.00    +0.000 A 
ATOM      2  C   UNL     1       7.320   5.104  18.468  0.00  0.00    +0.000 A 
ATOM      3  C   UNL     1       8.078   6.125  19.039  0.00  0.00    +0.000 A 
ATOM      4  C   UNL     1       8.104   7.390  18.454  0.00  0.00    +0.000 A 
ATOM      5  C   UNL     1       7.315   7.645  17.333  0.00  0.00    +0.000 A 
ATOM      6  C   UNL     1       6.550   6.627  16.761  0.00  0.00    +0.000 A 
ENDROOT
BRANCH   1   7
ATOM      7  C   UNL     1       5.783   4.217  16.692  0.00  0.00    +0.000 C 
BRANCH   7  10
ATOM      8  O   UNL     1       4.883   2.998  19.014  0.00  0.00    +0.000 OA
ATOM      9  C   UNL     1       4.070   3.600  18.313  0.00  0.00    +0.000 C 
ATOM     10  N   UNL     1       4.411   4.204  17.127  0.00  0.00    +0.000 N 
ATOM     11  H   UNL     1       3.708   4.791  16.689  0.00  0.00    +0.000 HD
BRANCH   9  12
ATOM     12  C   UNL     1       2.585   3.642  18.670  0.00  0.00    +0.000 C 
ATOM     13  C   UNL     1       2.349   3.329  20.132  0.00  0.00    +0.000 C 
ATOM     14  C   UNL     1       0.865   3.019  20.160  0.00  0.00    +0.000 C 
ATOM     15  C   UNL     1       0.569   2.438  18.781  0.00  0.00    +0.000 C 
ATOM     16  N   UNL     1       1.804   2.576  17.995  0.00  0.00    +0.000 NA
ATOM     17  H   UNL     1       1.581   2.868  17.042  0.00  0.00    +0.000 HD
ENDBRANCH   9  12
ENDBRANCH   7  10
ENDBRANCH   1   7
BRANCH   4  18
ATOM     18  O   UNL     1       8.858   8.439  18.903  0.00  0.00    +0.000 OA
BRANCH  18  19
ATOM     19  C   UNL     1       8.553   9.702  18.306  0.00  0.00    +0.000 C 
BRANCH  19  20
ATOM     20  C   UNL     1       9.577  10.719  18.740  0.00  0.00    +0.000 A 
ATOM     21  C   UNL     1      10.348  11.410  17.796  0.00  0.00    +0.000 A 
ATOM     22  C   UNL     1      11.281  12.362  18.211  0.00  0.00    +0.000 A 
ATOM     23  C   UNL     1      11.443  12.637  19.567  0.00  0.00    +0.000 A 
ATOM     24  C   UNL     1      10.667  11.970  20.513  0.00  0.00    +0.000 A 
ATOM     25  C   UNL     1       9.735  11.019  20.102  0.00  0.00    +0.000 A 
ENDBRANCH  19  20
ENDBRANCH  18  19
ENDBRANCH   4  18
TORSDOF 6
ENDMDL
MODEL 6
REMARK VINA RESULT:      -7.9      0.702      1.592
REMARK  Name = 
REMARK  6 active torsions:
REMARK  status: ('A' for Active; 'I' for Inactive)
REMARK    1  A    between atoms: C_2  and  C_19
REMARK    2  A    between atoms: N_3  and  C_4
REMARK    3  A    between atoms: C_4  and  C_5
REMARK    4  A    between atoms: C_8  and  O_9
REMARK    5  A    between atoms: O_9  and  C_10
REMARK    6  A    between atoms: C_10  and  C_11
REMARK                            x       y       z     vdW  Elec       q    Type
REMARK                         _______ _______ _______ _____ _____    ______ ____
ROOT
ATOM      1  C   UNL     1       5.938   5.483  17.463  0.00  0.00    +0.000 A 
ATOM      2  C   UNL     1       6.844   5.156  18.477  0.00  0.00    +0.000 A 
ATOM      3  C   UNL     1       7.802   6.078  18.896  0.00  0.00    +0.000 A 
ATOM      4  C   UNL     1       7.877   7.334  18.296  0.00  0.00    +0.000 A 
ATOM      5  C   UNL     1       6.946   7.686  17.319  0.00  0.00    +0.000 A 
ATOM      6  C   UNL     1       5.980   6.767  16.901  0.00  0.00    +0.000 A 
ENDROOT
BRANCH   1   7
ATOM      7  C   UNL     1       4.935   4.466  17.000  0.00  0.00    +0.000 C 
BRANCH   7  10
ATOM      8  O   UNL     1       2.535   3.172  16.497  0.00  0.00    +0.000 OA
ATOM      9  C   UNL     1       2.783   3.523  17.650  0.00  0.00    +0.000 C 
ATOM     10  N   UNL     1       3.926   4.203  17.992  0.00  0.00    +0.000 N 
ATOM     11  H   UNL     1       4.109   4.330  18.983  0.00  0.00    +0.000 HD
BRANCH   9  12
ATOM     12  C   UNL     1       1.781   3.308  18.783  0.00  0.00    +0.000 C 
ATOM     13  C   UNL     1       1.732   4.493  19.723  0.00  0.00    +0.000 C 
ATOM     14  C   UNL     1       1.035   3.914  20.938  0.00  0.00    +0.000 C 
ATOM     15  C   UNL     1       1.430   2.441  20.940  0.00  0.00    +0.000 C 
ATOM     16  N   UNL     1       2.177   2.206  19.695  0.00  0.00    +0.000 NA
ATOM     17  H   UNL     1       1.905   1.311  19.287  0.00  0.00    +0.000 HD
ENDBRANCH   9  12
ENDBRANCH   7  10
ENDBRANCH   1   7
BRANCH   4  18
ATOM     18  O   UNL     1       8.814   8.284  18.595  0.00  0.00    +0.000 OA
BRANCH  18  19
ATOM     19  C   UNL     1       8.466   9.618  18.214  0.00  0.00    +0.000 C 
BRANCH  19  20
ATOM     20  C   UNL     1       9.452  10.583  18.820  0.00  0.00    +0.000 A 
ATOM     21  C   UNL     1       9.411  10.888  20.187  0.00  0.00    +0.000 A 
ATOM     22  C   UNL     1      10.341  11.771  20.739  0.00  0.00    +0.000 A 
ATOM     23  C   UNL     1      11.321  12.347  19.934  0.00  0.00    +0.000 A 
ATOM     24  C   UNL     1      11.383  12.035  18.577  0.00  0.00    +0.000 A 
ATOM     25  C   UNL     1      10.455  11.154  18.023  0.00  0.00    +0.000 A 
ENDBRANCH  19  20
ENDBRANCH  18  19
ENDBRANCH   4  18
TORSDOF 6
ENDMDL
MODEL 7
REMARK VINA RESULT:      -7.9      1.336      1.870
REMARK  Name = 
REMARK  6 active torsions:
REMARK  status: ('A' for Active; 'I' for Inactive)
REMARK    1  A    between atoms: C_2  and  C_19
REMARK    2  A    between atoms: N_3  and  C_4
REMARK    3  A    between atoms: C_4  and  C_5
REMARK    4  A    between atoms: C_8  and  O_9
REMARK    5  A    between atoms: O_9  and  C_10
REMARK    6  A    between atoms: C_10  and  C_11
REMARK                            x       y       z     vdW  Elec       q    Type
REMARK                         _______ _______ _______ _____ _____    ______ ____
ROOT
ATOM      1  C   UNL     1       6.947   5.727  17.959  0.00  0.00    +0.000 A 
ATOM      2  C   UNL     1       7.904   6.040  18.928  0.00  0.00    +0.000 A 
ATOM      3  C   UNL     1       8.463   7.317  18.988  0.00  0.00    +0.000 A 
ATOM      4  C   UNL     1       8.081   8.293  18.069  0.00  0.00    +0.000 A 
ATOM      5  C   UNL     1       7.090   8.004  17.131  0.00  0.00    +0.000 A 
ATOM      6  C   UNL     1       6.524   6.728  17.071  0.00  0.00    +0.000 A 
ENDROOT
BRANCH   1   7
ATOM      7  C   UNL     1       6.382   4.338  17.886  0.00  0.00    +0.000 C 
BRANCH   7  10
ATOM      8  O   UNL     1       5.224   2.761  19.851  0.00  0.00    +0.000 OA
ATOM      9  C   UNL     1       4.500   3.515  19.200  0.00  0.00    +0.000 C 
ATOM     10  N   UNL     1       4.974   4.306  18.182  0.00  0.00    +0.000 N 
ATOM     11  H   UNL     1       4.334   4.993  17.795  0.00  0.00    +0.000 HD
BRANCH   9  12
ATOM     12  C   UNL     1       2.989   3.557  19.419  0.00  0.00    +0.000 C 
ATOM     13  C   UNL     1       2.553   4.844  20.084  0.00  0.00    +0.000 C 
ATOM     14  C   UNL     1       1.158   4.502  20.568  0.00  0.00    +0.000 C 
ATOM     15  C   UNL     1       1.207   3.004  20.849  0.00  0.00    +0.000 C 
ATOM     16  N   UNL     1       2.523   2.535  20.388  0.00  0.00    +0.000 NA
ATOM     17  H   UNL     1       2.427   1.635  19.916  0.00  0.00    +0.000 HD
ENDBRANCH   9  12
ENDBRANCH   7  10
ENDBRANCH   1   7
BRANCH   4  18
ATOM     18  O   UNL     1       8.609   9.553  18.008  0.00  0.00    +0.000 OA
BRANCH  18  19
ATOM     19  C   UNL     1       9.058  10.082  19.258  0.00  0.00    +0.000 C 
BRANCH  19  20
ATOM     20  C   UNL     1      10.185  11.052  19.013  0.00  0.00    +0.000 A 
ATOM     21  C   UNL     1      10.435  11.554  17.729  0.00  0.00    +0.000 A 
ATOM     22  C   UNL     1      11.471  12.465  17.519  0.00  0.00    +0.000 A 
ATOM     23  C   UNL     1      12.259  12.887  18.588  0.00  0.00    +0.000 A 
ATOM     24  C   UNL     1      12.006  12.409  19.873  0.00  0.00    +0.000 A 
ATOM     25  C   UNL     1      10.973  11.499  20.086  0.00  0.00    +0.000 A 
ENDBRANCH  19  20
ENDBRANCH  18  19
ENDBRANCH   4  18
TORSDOF 6
ENDMDL
MODEL 8
REMARK VINA RESULT:      -7.8      1.117      1.928
REMARK  Name = 
REMARK  6 active torsions:
REMARK  status: ('A' for Active; 'I' for Inactive)
REMARK    1  A    between atoms: C_2  and  C_19
REMARK    2  A    between atoms: N_3  and  C_4
REMARK    3  A    between atoms: C_4  and  C_5
REMARK    4  A    between atoms: C_8  and  O_9
REMARK    5  A    between atoms: O_9  and  C_10
REMARK    6  A    between atoms: C_10  and  C_11
REMARK                            x       y       z     vdW  Elec       q    Type
REMARK                         _______ _______ _______ _____ _____    ______ ____
ROOT
ATOM      1  C   UNL     1       7.097   5.677  17.875  0.00  0.00    +0.000 A 
ATOM      2  C   UNL     1       7.969   6.011  18.915  0.00  0.00    +0.000 A 
ATOM      3  C   UNL     1       8.462   7.309  19.039  0.00  0.00    +0.000 A 
ATOM      4  C   UNL     1       8.100   8.288  18.114  0.00  0.00    +0.000 A 
ATOM      5  C   UNL     1       7.191   7.976  17.104  0.00  0.00    +0.000 A 
ATOM      6  C   UNL     1       6.690   6.678  16.980  0.00  0.00    +0.000 A 
ENDROOT
BRANCH   1   7
ATOM      7  C   UNL     1       6.603   4.266  17.736  0.00  0.00    +0.000 C 
BRANCH   7  10
ATOM      8  O   UNL     1       3.872   4.066  17.303  0.00  0.00    +0.000 OA
ATOM      9  C   UNL     1       4.308   3.816  18.426  0.00  0.00    +0.000 C 
ATOM     10  N   UNL     1       5.640   3.923  18.749  0.00  0.00    +0.000 N 
ATOM     11  H   UNL     1       5.925   3.566  19.655  0.00  0.00    +0.000 HD
BRANCH   9  12
ATOM     12  C   UNL     1       3.378   3.453  19.582  0.00  0.00    +0.000 C 
ATOM     13  C   UNL     1       2.109   2.788  19.095  0.00  0.00    +0.000 C 
ATOM     14  C   UNL     1       1.199   2.903  20.302  0.00  0.00    +0.000 C 
ATOM     15  C   UNL     1       1.650   4.182  21.000  0.00  0.00    +0.000 C 
ATOM     16  N   UNL     1       2.850   4.647  20.288  0.00  0.00    +0.000 NA
ATOM     17  H   UNL     1       3.544   4.984  20.955  0.00  0.00    +0.000 HD
ENDBRANCH   9  12
ENDBRANCH   7  10
ENDBRANCH   1   7
BRANCH   4  18
ATOM     18  O   UNL     1       8.572   9.571  18.115  0.00  0.00    +0.000 OA
BRANCH  18  19
ATOM     19  C   UNL     1       9.144  10.005  19.351  0.00  0.00    +0.000 C 
BRANCH  19  20
ATOM     20  C   UNL     1      10.146  11.097  19.081  0.00  0.00    +0.000 A 
ATOM     21  C   UNL     1      10.815  11.735  20.133  0.00  0.00    +0.000 A 
ATOM     22  C   UNL     1      11.755  12.734  19.868  0.00  0.00    +0.000 A 
ATOM     23  C   UNL     1      12.038  13.095  18.553  0.00  0.00    +0.000 A 
ATOM     24  C   UNL     1      11.393  12.452  17.497  0.00  0.00    +0.000 A 
ATOM     25  C   UNL     1      10.455  11.456  17.759  0.00  0.00    +0.000 A 
ENDBRANCH  19  20
ENDBRANCH  18  19
ENDBRANCH   4  18
TORSDOF 6
ENDMDL
MODEL 9
REMARK VINA RESULT:      -7.8      5.612      8.526
REMARK  Name = 
REMARK  6 active torsions:
REMARK  status: ('A' for Active; 'I' for Inactive)
REMARK    1  A    between atoms: C_2  and  C_19
REMARK    2  A    between atoms: N_3  and  C_4
REMARK    3  A    between atoms: C_4  and  C_5
REMARK    4  A    between atoms: C_8  and  O_9
REMARK    5  A    between atoms: O_9  and  C_10
REMARK    6  A    between atoms: C_10  and  C_11
REMARK                            x       y       z     vdW  Elec       q    Type
REMARK                         _______ _______ _______ _____ _____    ______ ____
ROOT
ATOM      1  C   UNL     1       2.728   6.795  19.367  0.00  0.00    +0.000 A 
ATOM      2  C   UNL     1       1.977   7.404  20.377  0.00  0.00    +0.000 A 
ATOM      3  C   UNL     1       1.293   8.594  20.132  0.00  0.00    +0.000 A 
ATOM      4  C   UNL     1       1.363   9.198  18.878  0.00  0.00    +0.000 A 
ATOM      5  C   UNL     1       2.068   8.571  17.851  0.00  0.00    +0.000 A 
ATOM      6  C   UNL     1       2.750   7.376  18.090  0.00  0.00    +0.000 A 
ENDROOT
BRANCH   1   7
ATOM      7  C   UNL     1       3.487   5.532  19.658  0.00  0.00    +0.000 C 
BRANCH   7  10
ATOM      8  O   UNL     1       6.245   5.251  19.690  0.00  0.00    +0.000 OA
ATOM      9  C   UNL     1       5.637   4.958  18.661  0.00  0.00    +0.000 C 
ATOM     10  N   UNL     1       4.276   5.099  18.535  0.00  0.00    +0.000 N 
ATOM     11  H   UNL     1       3.847   4.706  17.703  0.00  0.00    +0.000 HD
BRANCH   9  12
ATOM     12  C   UNL     1       6.371   4.499  17.402  0.00  0.00    +0.000 C 
ATOM     13  C   UNL     1       6.762   5.667  16.522  0.00  0.00    +0.000 C 
ATOM     14  C   UNL     1       7.072   4.988  15.203  0.00  0.00    +0.000 C 
ATOM     15  C   UNL     1       6.161   3.764  15.179  0.00  0.00    +0.000 C 
ATOM     16  N   UNL     1       5.507   3.704  16.495  0.00  0.00    +0.000 NA
ATOM     17  H   UNL     1       5.468   2.737  16.822  0.00  0.00    +0.000 HD
ENDBRANCH   9  12
ENDBRANCH   7  10
ENDBRANCH   1   7
BRANCH   4  18
ATOM     18  O   UNL     1       0.777  10.391  18.555  0.00  0.00    +0.000 OA
BRANCH  18  19
ATOM     19  C   UNL     1      -0.401  10.708  19.300  0.00  0.00    +0.000 C 
BRANCH  19  20
ATOM     20  C   UNL     1      -1.591  10.708  18.376  0.00  0.00    +0.000 A 
ATOM     21  C   UNL     1      -2.682  11.554  18.609  0.00  0.00    +0.000 A 
ATOM     22  C   UNL     1      -3.771  11.557  17.736  0.00  0.00    +0.000 A 
ATOM     23  C   UNL     1      -3.774  10.721  16.621  0.00  0.00    +0.000 A 
ATOM     24  C   UNL     1      -2.684   9.889  16.368  0.00  0.00    +0.000 A 
ATOM     25  C   UNL     1      -1.597   9.885  17.239  0.00  0.00    +0.000 A 
ENDBRANCH  19  20
ENDBRANCH  18  19
ENDBRANCH   4  18
TORSDOF 6
ENDMDL
