MODEL 1
REMARK VINA RESULT:      -7.3      0.000      0.000
REMARK  Name = 
REMARK  9 active torsions:
REMARK  status: ('A' for Active; 'I' for Inactive)
REMARK    1  A    between atoms: C_1  and  C_2
REMARK    2  A    between atoms: C_2  and  C_3
REMARK    3  A    between atoms: C_3  and  C_4
REMARK    4  A    between atoms: C_3  and  N_5
REMARK    5  A    between atoms: C_6  and  O_8
REMARK    6  A    between atoms: O_8  and  C_9
REMARK    7  A    between atoms: C_15  and  C_16
REMARK    8  A    between atoms: C_23  and  C_24
REMARK    9  A    between atoms: N_26  and  C_27
REMARK                            x       y       z     vdW  Elec       q    Type
REMARK                         _______ _______ _______ _____ _____    ______ ____
ROOT
ATOM      1  C   UNL     1       2.798   6.723  18.946  0.00  0.00    +0.000 C 
ATOM      2  C   UNL     1       2.287   6.881  20.374  0.00  0.00    +0.000 C 
ATOM      3  C   UNL     1       1.003   7.704  20.452  0.00  0.00    +0.000 C 
ATOM      4  N   UNL     1       1.145   8.940  19.681  0.00  0.00    +0.000 N 
ATOM      5  C   UNL     1       0.759  10.179  20.144  0.00  0.00    +0.000 A 
ATOM      6  C   UNL     1      -0.164  10.298  21.175  0.00  0.00    +0.000 A 
ATOM      7  C   UNL     1      -0.541  11.543  21.684  0.00  0.00    +0.000 A 
ATOM      8  C   UNL     1       0.052  12.663  21.083  0.00  0.00    +0.000 A 
ATOM      9  S   UNL     1      -0.180  14.329  21.429  0.00  0.00    +0.000 S 
ATOM     10  C   UNL     1       0.901  14.808  20.209  0.00  0.00    +0.000 A 
ATOM     11  C   UNL     1       1.467  13.740  19.526  0.00  0.00    +0.000 A 
ATOM     12  C   UNL     1       0.963  12.493  20.040  0.00  0.00    +0.000 A 
ATOM     13  N   UNL     1       1.311  11.262  19.576  0.00  0.00    +0.000 NA
ATOM     14  C   UNL     1       1.624   8.822  18.306  0.00  0.00    +0.000 C 
ATOM     15  C   UNL     1       2.977   8.112  18.321  0.00  0.00    +0.000 C 
ENDROOT
BRANCH  11  16
ATOM     16  C   UNL     1       2.428  13.968  18.448  0.00  0.00    +0.000 C 
ATOM     17  O   UNL     1       2.924  13.035  17.815  0.00  0.00    +0.000 OA
ATOM     18  N   UNL     1       2.734  15.287  18.197  0.00  0.00    +0.000 N 
ATOM     19  C   UNL     1       3.665  15.690  17.173  0.00  0.00    +0.000 C 
ATOM     20  H   UNL     1       2.272  15.995  18.763  0.00  0.00    +0.000 HD
ENDBRANCH  11  16
BRANCH   7  21
ATOM     21  C   UNL     1      -1.524  11.633  22.818  0.00  0.00    +0.000 C 
ATOM     22  F   UNL     1      -1.206  12.610  23.722  0.00  0.00    +0.000 F 
ATOM     23  F   UNL     1      -2.789  11.925  22.408  0.00  0.00    +0.000 F 
ATOM     24  F   UNL     1      -1.605  10.486  23.540  0.00  0.00    +0.000 F 
ENDBRANCH   7  21
BRANCH   1  25
ATOM     25  O   UNL     1       1.872   6.061  18.052  0.00  0.00    +0.000 OA
BRANCH  25  27
ATOM     26  N   UNL     1       2.772   4.229  18.798  0.00  0.00    +0.000 N 
ATOM     27  C   UNL     1       1.856   4.725  17.917  0.00  0.00    +0.000 C 
ATOM     28  O   UNL     1       1.114   4.090  17.189  0.00  0.00    +0.000 OA
ATOM     29  H   UNL     1       3.169   4.934  19.405  0.00  0.00    +0.000 HD
BRANCH  26  30
ATOM     30  C   UNL     1       2.826   2.841  19.221  0.00  0.00    +0.000 C 
ATOM     31  C   UNL     1       4.208   2.536  19.807  0.00  0.00    +0.000 C 
BRANCH  30  33
ATOM     32  C   UNL     1       2.047   3.118  21.658  0.00  0.00    +0.000 C 
ATOM     33  C   UNL     1       1.755   2.534  20.284  0.00  0.00    +0.000 C 
ENDBRANCH  30  33
ENDBRANCH  26  30
ENDBRANCH  25  27
ENDBRANCH   1  25
TORSDOF 6
ENDMDL
MODEL 2
REMARK VINA RESULT:      -7.2      3.720      4.960
REMARK  Name = 
REMARK  9 active torsions:
REMARK  status: ('A' for Active; 'I' for Inactive)
REMARK    1  A    between atoms: C_1  and  C_2
REMARK    2  A    between atoms: C_2  and  C_3
REMARK    3  A    between atoms: C_3  and  C_4
REMARK    4  A    between atoms: C_3  and  N_5
REMARK    5  A    between atoms: C_6  and  O_8
REMARK    6  A    between atoms: O_8  and  C_9
REMARK    7  A    between atoms: C_15  and  C_16
REMARK    8  A    between atoms: C_23  and  C_24
REMARK    9  A    between atoms: N_26  and  C_27
REMARK                            x       y       z     vdW  Elec       q    Type
REMARK                         _______ _______ _______ _____ _____    ______ ____
ROOT
ATOM      1  C   UNL     1       1.244  10.400  18.873  0.00  0.00    +0.000 C 
ATOM      2  C   UNL     1       1.574  11.612  19.738  0.00  0.00    +0.000 C 
ATOM      3  C   UNL     1       0.712  11.689  20.996  0.00  0.00    +0.000 C 
ATOM      4  N   UNL     1      -0.700  11.510  20.655  0.00  0.00    +0.000 N 
ATOM      5  C   UNL     1      -1.712  12.305  21.146  0.00  0.00    +0.000 A 
ATOM      6  C   UNL     1      -1.535  13.049  22.305  0.00  0.00    +0.000 A 
ATOM      7  C   UNL     1      -2.535  13.891  22.799  0.00  0.00    +0.000 A 
ATOM      8  C   UNL     1      -3.730  13.927  22.066  0.00  0.00    +0.000 A 
ATOM      9  S   UNL     1      -5.165  14.819  22.377  0.00  0.00    +0.000 S 
ATOM     10  C   UNL     1      -5.949  14.174  21.013  0.00  0.00    +0.000 A 
ATOM     11  C   UNL     1      -5.157  13.291  20.292  0.00  0.00    +0.000 A 
ATOM     12  C   UNL     1      -3.866  13.149  20.915  0.00  0.00    +0.000 A 
ATOM     13  N   UNL     1      -2.866  12.347  20.461  0.00  0.00    +0.000 NA
ATOM     14  C   UNL     1      -1.050  10.353  19.834  0.00  0.00    +0.000 C 
ATOM     15  C   UNL     1      -0.251  10.419  18.534  0.00  0.00    +0.000 C 
ENDROOT
BRANCH  11  16
ATOM     16  C   UNL     1      -5.668  12.648  19.083  0.00  0.00    +0.000 C 
ATOM     17  O   UNL     1      -6.869  12.415  18.932  0.00  0.00    +0.000 OA
ATOM     18  N   UNL     1      -4.721  12.326  18.137  0.00  0.00    +0.000 N 
ATOM     19  C   UNL     1      -5.052  11.684  16.889  0.00  0.00    +0.000 C 
ATOM     20  H   UNL     1      -3.753  12.562  18.340  0.00  0.00    +0.000 HD
ENDBRANCH  11  16
BRANCH   7  21
ATOM     21  C   UNL     1      -2.299  14.701  24.043  0.00  0.00    +0.000 C 
ATOM     22  F   UNL     1      -1.047  14.523  24.564  0.00  0.00    +0.000 F 
ATOM     23  F   UNL     1      -2.413  16.042  23.838  0.00  0.00    +0.000 F 
ATOM     24  F   UNL     1      -3.158  14.388  25.048  0.00  0.00    +0.000 F 
ENDBRANCH   7  21
BRANCH   1  25
ATOM     25  O   UNL     1       1.430   9.127  19.535  0.00  0.00    +0.000 OA
BRANCH  25  27
ATOM     26  N   UNL     1       2.248   7.143  19.882  0.00  0.00    +0.000 N 
ATOM     27  C   UNL     1       2.065   8.106  18.934  0.00  0.00    +0.000 C 
ATOM     28  O   UNL     1       2.355   8.044  17.752  0.00  0.00    +0.000 OA
ATOM     29  H   UNL     1       1.796   7.354  20.762  0.00  0.00    +0.000 HD
BRANCH  26  30
ATOM     30  C   UNL     1       2.576   5.760  19.585  0.00  0.00    +0.000 C 
ATOM     31  C   UNL     1       4.094   5.607  19.461  0.00  0.00    +0.000 C 
BRANCH  30  33
ATOM     32  C   UNL     1       0.935   3.894  20.253  0.00  0.00    +0.000 C 
ATOM     33  C   UNL     1       2.067   4.812  20.687  0.00  0.00    +0.000 C 
ENDBRANCH  30  33
ENDBRANCH  26  30
ENDBRANCH  25  27
ENDBRANCH   1  25
TORSDOF 6
ENDMDL
MODEL 3
REMARK VINA RESULT:      -7.1      3.643      5.240
REMARK  Name = 
REMARK  9 active torsions:
REMARK  status: ('A' for Active; 'I' for Inactive)
REMARK    1  A    between atoms: C_1  and  C_2
REMARK    2  A    between atoms: C_2  and  C_3
REMARK    3  A    between atoms: C_3  and  C_4
REMARK    4  A    between atoms: C_3  and  N_5
REMARK    5  A    between atoms: C_6  and  O_8
REMARK    6  A    between atoms: O_8  and  C_9
REMARK    7  A    between atoms: C_15  and  C_16
REMARK    8  A    between atoms: C_23  and  C_24
REMARK    9  A    between atoms: N_26  and  C_27
REMARK                            x       y       z     vdW  Elec       q    Type
REMARK                         _______ _______ _______ _____ _____    ______ ____
ROOT
ATOM      1  C   UNL     1       0.971  10.396  18.591  0.00  0.00    +0.000 C 
ATOM      2  C   UNL     1       1.423  11.782  19.041  0.00  0.00    +0.000 C 
ATOM      3  C   UNL     1       1.059  12.076  20.495  0.00  0.00    +0.000 C 
ATOM      4  N   UNL     1      -0.347  11.748  20.742  0.00  0.00    +0.000 N 
ATOM      5  C   UNL     1      -1.215  12.571  21.425  0.00  0.00    +0.000 A 
ATOM      6  C   UNL     1      -0.738  13.554  22.283  0.00  0.00    +0.000 A 
ATOM      7  C   UNL     1      -1.601  14.423  22.956  0.00  0.00    +0.000 A 
ATOM      8  C   UNL     1      -2.971  14.234  22.728  0.00  0.00    +0.000 A 
ATOM      9  S   UNL     1      -4.307  15.089  23.387  0.00  0.00    +0.000 S 
ATOM     10  C   UNL     1      -5.430  14.125  22.551  0.00  0.00    +0.000 A 
ATOM     11  C   UNL     1      -4.836  13.155  21.756  0.00  0.00    +0.000 A 
ATOM     12  C   UNL     1      -3.402  13.223  21.868  0.00  0.00    +0.000 A 
ATOM     13  N   UNL     1      -2.531  12.400  21.224  0.00  0.00    +0.000 NA
ATOM     14  C   UNL     1      -0.809  10.425  20.329  0.00  0.00    +0.000 C 
ATOM     15  C   UNL     1      -0.536  10.257  18.836  0.00  0.00    +0.000 C 
ENDROOT
BRANCH  11  16
ATOM     16  C   UNL     1      -5.653  12.242  20.958  0.00  0.00    +0.000 C 
ATOM     17  O   UNL     1      -6.605  11.632  21.447  0.00  0.00    +0.000 OA
ATOM     18  N   UNL     1      -5.283  12.114  19.638  0.00  0.00    +0.000 N 
ATOM     19  C   UNL     1      -5.977  11.253  18.714  0.00  0.00    +0.000 C 
ATOM     20  H   UNL     1      -4.488  12.662  19.316  0.00  0.00    +0.000 HD
ENDBRANCH  11  16
BRANCH   7  21
ATOM     21  C   UNL     1      -1.049  15.491  23.858  0.00  0.00    +0.000 C 
ATOM     22  F   UNL     1      -1.159  15.176  25.185  0.00  0.00    +0.000 F 
ATOM     23  F   UNL     1       0.276  15.729  23.657  0.00  0.00    +0.000 F 
ATOM     24  F   UNL     1      -1.683  16.684  23.715  0.00  0.00    +0.000 F 
ENDBRANCH   7  21
BRANCH   1  25
ATOM     25  O   UNL     1       1.543   9.306  19.350  0.00  0.00    +0.000 OA
BRANCH  25  27
ATOM     26  N   UNL     1       2.274   7.290  19.707  0.00  0.00    +0.000 N 
ATOM     27  C   UNL     1       2.098   8.241  18.746  0.00  0.00    +0.000 C 
ATOM     28  O   UNL     1       2.331   8.140  17.555  0.00  0.00    +0.000 OA
ATOM     29  H   UNL     1       1.873   7.542  20.601  0.00  0.00    +0.000 HD
BRANCH  26  30
ATOM     30  C   UNL     1       2.517   5.886  19.429  0.00  0.00    +0.000 C 
ATOM     31  C   UNL     1       4.001   5.673  19.118  0.00  0.00    +0.000 C 
BRANCH  30  33
ATOM     32  C   UNL     1       0.960   4.058  20.355  0.00  0.00    +0.000 C 
ATOM     33  C   UNL     1       2.125   4.999  20.625  0.00  0.00    +0.000 C 
ENDBRANCH  30  33
ENDBRANCH  26  30
ENDBRANCH  25  27
ENDBRANCH   1  25
TORSDOF 6
ENDMDL
MODEL 4
REMARK VINA RESULT:      -7.0      3.611      5.321
REMARK  Name = 
REMARK  9 active torsions:
REMARK  status: ('A' for Active; 'I' for Inactive)
REMARK    1  A    between atoms: C_1  and  C_2
REMARK    2  A    between atoms: C_2  and  C_3
REMARK    3  A    between atoms: C_3  and  C_4
REMARK    4  A    between atoms: C_3  and  N_5
REMARK    5  A    between atoms: C_6  and  O_8
REMARK    6  A    between atoms: O_8  and  C_9
REMARK    7  A    between atoms: C_15  and  C_16
REMARK    8  A    between atoms: C_23  and  C_24
REMARK    9  A    between atoms: N_26  and  C_27
REMARK                            x       y       z     vdW  Elec       q    Type
REMARK                         _______ _______ _______ _____ _____    ______ ____
ROOT
ATOM      1  C   UNL     1       1.097  10.392  18.716  0.00  0.00    +0.000 C 
ATOM      2  C   UNL     1       1.535  11.761  19.225  0.00  0.00    +0.000 C 
ATOM      3  C   UNL     1       1.085  12.026  20.660  0.00  0.00    +0.000 C 
ATOM      4  N   UNL     1      -0.337  11.709  20.813  0.00  0.00    +0.000 N 
ATOM      5  C   UNL     1      -1.237  12.526  21.460  0.00  0.00    +0.000 A 
ATOM      6  C   UNL     1      -0.804  13.483  22.369  0.00  0.00    +0.000 A 
ATOM      7  C   UNL     1      -1.698  14.346  23.009  0.00  0.00    +0.000 A 
ATOM      8  C   UNL     1      -3.054  14.179  22.692  0.00  0.00    +0.000 A 
ATOM      9  S   UNL     1      -4.419  15.034  23.288  0.00  0.00    +0.000 S 
ATOM     10  C   UNL     1      -5.498  14.103  22.362  0.00  0.00    +0.000 A 
ATOM     11  C   UNL     1      -4.865  13.144  21.582  0.00  0.00    +0.000 A 
ATOM     12  C   UNL     1      -3.441  13.193  21.783  0.00  0.00    +0.000 A 
ATOM     13  N   UNL     1      -2.540  12.375  21.175  0.00  0.00    +0.000 NA
ATOM     14  C   UNL     1      -0.787  10.402  20.341  0.00  0.00    +0.000 C 
ATOM     15  C   UNL     1      -0.424  10.265  18.863  0.00  0.00    +0.000 C 
ENDROOT
BRANCH  11  16
ATOM     16  C   UNL     1      -5.641  12.259  20.714  0.00  0.00    +0.000 C 
ATOM     17  O   UNL     1      -5.401  12.161  19.510  0.00  0.00    +0.000 OA
ATOM     18  N   UNL     1      -6.646  11.553  21.335  0.00  0.00    +0.000 N 
ATOM     19  C   UNL     1      -7.509  10.640  20.628  0.00  0.00    +0.000 C 
ATOM     20  H   UNL     1      -6.770  11.689  22.336  0.00  0.00    +0.000 HD
ENDBRANCH  11  16
BRANCH   7  21
ATOM     21  C   UNL     1      -1.192  15.387  23.968  0.00  0.00    +0.000 C 
ATOM     22  F   UNL     1       0.115  15.725  23.745  0.00  0.00    +0.000 F 
ATOM     23  F   UNL     1      -1.880  16.559  23.898  0.00  0.00    +0.000 F 
ATOM     24  F   UNL     1      -1.245  14.983  25.263  0.00  0.00    +0.000 F 
ENDBRANCH   7  21
BRANCH   1  25
ATOM     25  O   UNL     1       1.611   9.278  19.482  0.00  0.00    +0.000 OA
BRANCH  25  27
ATOM     26  N   UNL     1       2.184   7.216  19.862  0.00  0.00    +0.000 N 
ATOM     27  C   UNL     1       2.061   8.161  18.887  0.00  0.00    +0.000 C 
ATOM     28  O   UNL     1       2.257   8.019  17.693  0.00  0.00    +0.000 OA
ATOM     29  H   UNL     1       1.827   7.516  20.760  0.00  0.00    +0.000 HD
BRANCH  26  30
ATOM     30  C   UNL     1       2.305   5.792  19.606  0.00  0.00    +0.000 C 
ATOM     31  C   UNL     1       3.783   5.392  19.614  0.00  0.00    +0.000 C 
BRANCH  30  33
ATOM     32  C   UNL     1       1.273   3.527  20.258  0.00  0.00    +0.000 C 
ATOM     33  C   UNL     1       1.559   4.963  20.668  0.00  0.00    +0.000 C 
ENDBRANCH  30  33
ENDBRANCH  26  30
ENDBRANCH  25  27
ENDBRANCH   1  25
TORSDOF 6
ENDMDL
MODEL 5
REMARK VINA RESULT:      -7.0      3.677      4.943
REMARK  Name = 
REMARK  9 active torsions:
REMARK  status: ('A' for Active; 'I' for Inactive)
REMARK    1  A    between atoms: C_1  and  C_2
REMARK    2  A    between atoms: C_2  and  C_3
REMARK    3  A    between atoms: C_3  and  C_4
REMARK    4  A    between atoms: C_3  and  N_5
REMARK    5  A    between atoms: C_6  and  O_8
REMARK    6  A    between atoms: O_8  and  C_9
REMARK    7  A    between atoms: C_15  and  C_16
REMARK    8  A    between atoms: C_23  and  C_24
REMARK    9  A    between atoms: N_26  and  C_27
REMARK                            x       y       z     vdW  Elec       q    Type
REMARK                         _______ _______ _______ _____ _____    ______ ____
ROOT
ATOM      1  C   UNL     1       1.269  10.218  18.494  0.00  0.00    +0.000 C 
ATOM      2  C   UNL     1       1.729  11.562  19.049  0.00  0.00    +0.000 C 
ATOM      3  C   UNL     1       1.121  11.873  20.415  0.00  0.00    +0.000 C 
ATOM      4  N   UNL     1      -0.327  11.652  20.388  0.00  0.00    +0.000 N 
ATOM      5  C   UNL     1      -1.245  12.534  20.913  0.00  0.00    +0.000 A 
ATOM      6  C   UNL     1      -0.868  13.472  21.865  0.00  0.00    +0.000 A 
ATOM      7  C   UNL     1      -1.775  14.400  22.383  0.00  0.00    +0.000 A 
ATOM      8  C   UNL     1      -3.089  14.317  21.898  0.00  0.00    +0.000 A 
ATOM      9  S   UNL     1      -4.458  15.266  22.313  0.00  0.00    +0.000 S 
ATOM     10  C   UNL     1      -5.472  14.396  21.263  0.00  0.00    +0.000 A 
ATOM     11  C   UNL     1      -4.811  13.388  20.573  0.00  0.00    +0.000 A 
ATOM     12  C   UNL     1      -3.423  13.347  20.953  0.00  0.00    +0.000 A 
ATOM     13  N   UNL     1      -2.509  12.465  20.466  0.00  0.00    +0.000 NA
ATOM     14  C   UNL     1      -0.799  10.370  19.869  0.00  0.00    +0.000 C 
ATOM     15  C   UNL     1      -0.263  10.192  18.450  0.00  0.00    +0.000 C 
ENDROOT
BRANCH  11  16
ATOM     16  C   UNL     1      -5.528  12.545  19.619  0.00  0.00    +0.000 C 
ATOM     17  O   UNL     1      -6.538  11.916  19.941  0.00  0.00    +0.000 OA
ATOM     18  N   UNL     1      -4.998  12.504  18.349  0.00  0.00    +0.000 N 
ATOM     19  C   UNL     1      -5.577  11.718  17.287  0.00  0.00    +0.000 C 
ATOM     20  H   UNL     1      -4.166  13.060  18.167  0.00  0.00    +0.000 HD
ENDBRANCH  11  16
BRANCH   7  21
ATOM     21  C   UNL     1      -1.326  15.418  23.394  0.00  0.00    +0.000 C 
ATOM     22  F   UNL     1      -1.701  16.692  23.068  0.00  0.00    +0.000 F 
ATOM     23  F   UNL     1      -1.840  15.201  24.636  0.00  0.00    +0.000 F 
ATOM     24  F   UNL     1       0.024  15.462  23.536  0.00  0.00    +0.000 F 
ENDBRANCH   7  21
BRANCH   1  25
ATOM     25  O   UNL     1       1.607   9.082  19.325  0.00  0.00    +0.000 OA
BRANCH  25  27
ATOM     26  N   UNL     1       2.312   7.090  19.834  0.00  0.00    +0.000 N 
ATOM     27  C   UNL     1       2.222   7.999  18.821  0.00  0.00    +0.000 C 
ATOM     28  O   UNL     1       2.569   7.851  17.662  0.00  0.00    +0.000 OA
ATOM     29  H   UNL     1       1.826   7.375  20.674  0.00  0.00    +0.000 HD
BRANCH  26  30
ATOM     30  C   UNL     1       2.588   5.678  19.638  0.00  0.00    +0.000 C 
ATOM     31  C   UNL     1       4.100   5.461  19.524  0.00  0.00    +0.000 C 
BRANCH  30  33
ATOM     32  C   UNL     1       1.018   3.789  20.405  0.00  0.00    +0.000 C 
ATOM     33  C   UNL     1       2.050   4.832  20.807  0.00  0.00    +0.000 C 
ENDBRANCH  30  33
ENDBRANCH  26  30
ENDBRANCH  25  27
ENDBRANCH   1  25
TORSDOF 6
ENDMDL
MODEL 6
REMARK VINA RESULT:      -6.9      2.689      3.605
REMARK  Name = 
REMARK  9 active torsions:
REMARK  status: ('A' for Active; 'I' for Inactive)
REMARK    1  A    between atoms: C_1  and  C_2
REMARK    2  A    between atoms: C_2  and  C_3
REMARK    3  A    between atoms: C_3  and  C_4
REMARK    4  A    between atoms: C_3  and  N_5
REMARK    5  A    between atoms: C_6  and  O_8
REMARK    6  A    between atoms: O_8  and  C_9
REMARK    7  A    between atoms: C_15  and  C_16
REMARK    8  A    between atoms: C_23  and  C_24
REMARK    9  A    between atoms: N_26  and  C_27
REMARK                            x       y       z     vdW  Elec       q    Type
REMARK                         _______ _______ _______ _____ _____    ______ ____
ROOT
ATOM      1  C   UNL     1       1.486   9.110  21.897  0.00  0.00    +0.000 C 
ATOM      2  C   UNL     1       0.695   9.390  23.171  0.00  0.00    +0.000 C 
ATOM      3  C   UNL     1      -0.751   9.793  22.890  0.00  0.00    +0.000 C 
ATOM      4  N   UNL     1      -0.796  10.836  21.863  0.00  0.00    +0.000 N 
ATOM      5  C   UNL     1      -1.572  11.970  21.960  0.00  0.00    +0.000 A 
ATOM      6  C   UNL     1      -2.669  12.013  22.811  0.00  0.00    +0.000 A 
ATOM      7  C   UNL     1      -3.446  13.165  22.951  0.00  0.00    +0.000 A 
ATOM      8  C   UNL     1      -3.065  14.267  22.172  0.00  0.00    +0.000 A 
ATOM      9  S   UNL     1      -3.785  15.823  22.071  0.00  0.00    +0.000 S 
ATOM     10  C   UNL     1      -2.659  16.349  20.911  0.00  0.00    +0.000 A 
ATOM     11  C   UNL     1      -1.718  15.383  20.583  0.00  0.00    +0.000 A 
ATOM     12  C   UNL     1      -1.964  14.171  21.320  0.00  0.00    +0.000 A 
ATOM     13  N   UNL     1      -1.226  13.033  21.216  0.00  0.00    +0.000 NA
ATOM     14  C   UNL     1      -0.056  10.594  20.627  0.00  0.00    +0.000 C 
ATOM     15  C   UNL     1       1.408  10.335  20.979  0.00  0.00    +0.000 C 
ENDROOT
BRANCH  11  16
ATOM     16  C   UNL     1      -0.667  15.667  19.607  0.00  0.00    +0.000 C 
ATOM     17  O   UNL     1      -0.786  16.564  18.771  0.00  0.00    +0.000 OA
ATOM     18  N   UNL     1       0.451  14.868  19.690  0.00  0.00    +0.000 N 
ATOM     19  C   UNL     1       1.578  15.009  18.802  0.00  0.00    +0.000 C 
ATOM     20  H   UNL     1       0.469  14.155  20.416  0.00  0.00    +0.000 HD
ENDBRANCH  11  16
BRANCH   7  21
ATOM     21  C   UNL     1      -4.611  13.183  23.901  0.00  0.00    +0.000 C 
ATOM     22  F   UNL     1      -4.581  12.152  24.800  0.00  0.00    +0.000 F 
ATOM     23  F   UNL     1      -4.667  14.314  24.657  0.00  0.00    +0.000 F 
ATOM     24  F   UNL     1      -5.809  13.078  23.271  0.00  0.00    +0.000 F 
ENDBRANCH   7  21
BRANCH   1  25
ATOM     25  O   UNL     1       0.949   8.039  21.086  0.00  0.00    +0.000 OA
BRANCH  25  27
ATOM     26  N   UNL     1       1.736   6.013  21.082  0.00  0.00    +0.000 N 
ATOM     27  C   UNL     1       1.749   7.198  20.409  0.00  0.00    +0.000 C 
ATOM     28  O   UNL     1       2.318   7.446  19.360  0.00  0.00    +0.000 OA
ATOM     29  H   UNL     1       1.077   5.994  21.849  0.00  0.00    +0.000 HD
BRANCH  26  30
ATOM     30  C   UNL     1       2.179   4.751  20.518  0.00  0.00    +0.000 C 
ATOM     31  C   UNL     1       2.241   3.688  21.619  0.00  0.00    +0.000 C 
BRANCH  30  33
ATOM     32  C   UNL     1       0.890   2.783  19.476  0.00  0.00    +0.000 C 
ATOM     33  C   UNL     1       1.227   4.265  19.409  0.00  0.00    +0.000 C 
ENDBRANCH  30  33
ENDBRANCH  26  30
ENDBRANCH  25  27
ENDBRANCH   1  25
TORSDOF 6
ENDMDL
MODEL 7
REMARK VINA RESULT:      -6.9      3.673      5.123
REMARK  Name = 
REMARK  9 active torsions:
REMARK  status: ('A' for Active; 'I' for Inactive)
REMARK    1  A    between atoms: C_1  and  C_2
REMARK    2  A    between atoms: C_2  and  C_3
REMARK    3  A    between atoms: C_3  and  C_4
REMARK    4  A    between atoms: C_3  and  N_5
REMARK    5  A    between atoms: C_6  and  O_8
REMARK    6  A    between atoms: O_8  and  C_9
REMARK    7  A    between atoms: C_15  and  C_16
REMARK    8  A    between atoms: C_23  and  C_24
REMARK    9  A    between atoms: N_26  and  C_27
REMARK                            x       y       z     vdW  Elec       q    Type
REMARK                         _______ _______ _______ _____ _____    ______ ____
ROOT
ATOM      1  C   UNL     1       0.764   8.986  18.801  0.00  0.00    +0.000 C 
ATOM      2  C   UNL     1       1.442   9.756  17.672  0.00  0.00    +0.000 C 
ATOM      3  C   UNL     1       2.292  10.918  18.180  0.00  0.00    +0.000 C 
ATOM      4  N   UNL     1       1.531  11.722  19.139  0.00  0.00    +0.000 N 
ATOM      5  C   UNL     1       1.487  13.099  19.117  0.00  0.00    +0.000 A 
ATOM      6  C   UNL     1       2.473  13.833  18.470  0.00  0.00    +0.000 A 
ATOM      7  C   UNL     1       2.427  15.228  18.405  0.00  0.00    +0.000 A 
ATOM      8  C   UNL     1       1.339  15.841  19.041  0.00  0.00    +0.000 A 
ATOM      9  S   UNL     1       0.966  17.512  19.181  0.00  0.00    +0.000 S 
ATOM     10  C   UNL     1      -0.433  17.199  20.093  0.00  0.00    +0.000 A 
ATOM     11  C   UNL     1      -0.659  15.846  20.303  0.00  0.00    +0.000 A 
ATOM     12  C   UNL     1       0.381  15.061  19.690  0.00  0.00    +0.000 A 
ATOM     13  N   UNL     1       0.456  13.704  19.727  0.00  0.00    +0.000 NA
ATOM     14  C   UNL     1       0.876  11.015  20.236  0.00  0.00    +0.000 C 
ATOM     15  C   UNL     1      -0.061   9.962  19.647  0.00  0.00    +0.000 C 
ENDROOT
BRANCH  11  16
ATOM     16  C   UNL     1      -1.825  15.394  21.062  0.00  0.00    +0.000 C 
ATOM     17  O   UNL     1      -2.075  15.833  22.186  0.00  0.00    +0.000 OA
ATOM     18  N   UNL     1      -2.611  14.454  20.435  0.00  0.00    +0.000 N 
ATOM     19  C   UNL     1      -3.795  13.898  21.043  0.00  0.00    +0.000 C 
ATOM     20  H   UNL     1      -2.335  14.152  19.504  0.00  0.00    +0.000 HD
ENDBRANCH  11  16
BRANCH   7  21
ATOM     21  C   UNL     1       3.499  15.989  17.675  0.00  0.00    +0.000 C 
ATOM     22  F   UNL     1       4.479  15.177  17.173  0.00  0.00    +0.000 F 
ATOM     23  F   UNL     1       3.027  16.683  16.604  0.00  0.00    +0.000 F 
ATOM     24  F   UNL     1       4.142  16.886  18.466  0.00  0.00    +0.000 F 
ENDBRANCH   7  21
BRANCH   1  25
ATOM     25  O   UNL     1       1.679   8.394  19.753  0.00  0.00    +0.000 OA
BRANCH  25  27
ATOM     26  N   UNL     1       2.086   6.328  20.291  0.00  0.00    +0.000 N 
ATOM     27  C   UNL     1       2.436   7.330  19.435  0.00  0.00    +0.000 C 
ATOM     28  O   UNL     1       3.231   7.271  18.514  0.00  0.00    +0.000 OA
ATOM     29  H   UNL     1       1.298   6.560  20.881  0.00  0.00    +0.000 HD
BRANCH  26  30
ATOM     30  C   UNL     1       2.403   4.928  20.077  0.00  0.00    +0.000 C 
ATOM     31  C   UNL     1       2.126   4.136  21.359  0.00  0.00    +0.000 C 
BRANCH  30  33
ATOM     32  C   UNL     1       2.383   3.815  17.756  0.00  0.00    +0.000 C 
ATOM     33  C   UNL     1       1.565   4.329  18.931  0.00  0.00    +0.000 C 
ENDBRANCH  30  33
ENDBRANCH  26  30
ENDBRANCH  25  27
ENDBRANCH   1  25
TORSDOF 6
ENDMDL
MODEL 8
REMARK VINA RESULT:      -6.8      3.537      5.214
REMARK  Name = 
REMARK  9 active torsions:
REMARK  status: ('A' for Active; 'I' for Inactive)
REMARK    1  A    between atoms: C_1  and  C_2
REMARK    2  A    between atoms: C_2  and  C_3
REMARK    3  A    between atoms: C_3  and  C_4
REMARK    4  A    between atoms: C_3  and  N_5
REMARK    5  A    between atoms: C_6  and  O_8
REMARK    6  A    between atoms: O_8  and  C_9
REMARK    7  A    between atoms: C_15  and  C_16
REMARK    8  A    between atoms: C_23  and  C_24
REMARK    9  A    between atoms: N_26  and  C_27
REMARK                            x       y       z     vdW  Elec       q    Type
REMARK                         _______ _______ _______ _____ _____    ______ ____
ROOT
ATOM      1  C   UNL     1       0.977  10.048  18.227  0.00  0.00    +0.000 C 
ATOM      2  C   UNL     1       1.517  11.408  18.660  0.00  0.00    +0.000 C 
ATOM      3  C   UNL     1       1.149  11.755  20.100  0.00  0.00    +0.000 C 
ATOM      4  N   UNL     1      -0.280  11.531  20.327  0.00  0.00    +0.000 N 
ATOM      5  C   UNL     1      -1.100  12.427  20.978  0.00  0.00    +0.000 A 
ATOM      6  C   UNL     1      -0.571  13.391  21.826  0.00  0.00    +0.000 A 
ATOM      7  C   UNL     1      -1.383  14.331  22.466  0.00  0.00    +0.000 A 
ATOM      8  C   UNL     1      -2.759  14.234  22.216  0.00  0.00    +0.000 A 
ATOM      9  S   UNL     1      -4.043  15.193  22.833  0.00  0.00    +0.000 S 
ATOM     10  C   UNL     1      -5.216  14.293  21.994  0.00  0.00    +0.000 A 
ATOM     11  C   UNL     1      -4.677  13.268  21.229  0.00  0.00    +0.000 A 
ATOM     12  C   UNL     1      -3.244  13.238  21.367  0.00  0.00    +0.000 A 
ATOM     13  N   UNL     1      -2.421  12.344  20.755  0.00  0.00    +0.000 NA
ATOM     14  C   UNL     1      -0.827  10.236  19.931  0.00  0.00    +0.000 C 
ATOM     15  C   UNL     1      -0.540  10.020  18.446  0.00  0.00    +0.000 C 
ENDROOT
BRANCH  11  16
ATOM     16  C   UNL     1      -5.542  12.398  20.433  0.00  0.00    +0.000 C 
ATOM     17  O   UNL     1      -5.437  12.327  19.208  0.00  0.00    +0.000 OA
ATOM     18  N   UNL     1      -6.470  11.673  21.146  0.00  0.00    +0.000 N 
ATOM     19  C   UNL     1      -7.404  10.771  20.519  0.00  0.00    +0.000 C 
ATOM     20  H   UNL     1      -6.482  11.787  22.157  0.00  0.00    +0.000 HD
ENDBRANCH  11  16
BRANCH   7  21
ATOM     21  C   UNL     1      -0.773  15.376  23.359  0.00  0.00    +0.000 C 
ATOM     22  F   UNL     1      -1.300  16.622  23.155  0.00  0.00    +0.000 F 
ATOM     23  F   UNL     1      -0.958  15.123  24.683  0.00  0.00    +0.000 F 
ATOM     24  F   UNL     1       0.565  15.515  23.173  0.00  0.00    +0.000 F 
ENDBRANCH   7  21
BRANCH   1  25
ATOM     25  O   UNL     1       1.458   8.936  19.018  0.00  0.00    +0.000 OA
BRANCH  25  27
ATOM     26  N   UNL     1       2.368   6.996  19.382  0.00  0.00    +0.000 N 
ATOM     27  C   UNL     1       2.355   8.062  18.531  0.00  0.00    +0.000 C 
ATOM     28  O   UNL     1       2.980   8.185  17.492  0.00  0.00    +0.000 OA
ATOM     29  H   UNL     1       1.660   7.048  20.101  0.00  0.00    +0.000 HD
BRANCH  26  30
ATOM     30  C   UNL     1       2.928   5.698  19.052  0.00  0.00    +0.000 C 
ATOM     31  C   UNL     1       2.890   4.792  20.286  0.00  0.00    +0.000 C 
BRANCH  30  33
ATOM     32  C   UNL     1       1.373   3.777  18.333  0.00  0.00    +0.000 C 
ATOM     33  C   UNL     1       2.143   5.020  17.913  0.00  0.00    +0.000 C 
ENDBRANCH  30  33
ENDBRANCH  26  30
ENDBRANCH  25  27
ENDBRANCH   1  25
TORSDOF 6
ENDMDL
MODEL 9
REMARK VINA RESULT:      -6.8      2.757      3.708
REMARK  Name = 
REMARK  9 active torsions:
REMARK  status: ('A' for Active; 'I' for Inactive)
REMARK    1  A    between atoms: C_1  and  C_2
REMARK    2  A    between atoms: C_2  and  C_3
REMARK    3  A    between atoms: C_3  and  C_4
REMARK    4  A    between atoms: C_3  and  N_5
REMARK    5  A    between atoms: C_6  and  O_8
REMARK    6  A    between atoms: O_8  and  C_9
REMARK    7  A    between atoms: C_15  and  C_16
REMARK    8  A    between atoms: C_23  and  C_24
REMARK    9  A    between atoms: N_26  and  C_27
REMARK                            x       y       z     vdW  Elec       q    Type
REMARK                         _______ _______ _______ _____ _____    ______ ____
ROOT
ATOM      1  C   UNL     1       1.560   9.171  21.718  0.00  0.00    +0.000 C 
ATOM      2  C   UNL     1       0.846   9.388  23.048  0.00  0.00    +0.000 C 
ATOM      3  C   UNL     1      -0.622   9.768  22.872  0.00  0.00    +0.000 C 
ATOM      4  N   UNL     1      -0.753  10.847  21.890  0.00  0.00    +0.000 N 
ATOM      5  C   UNL     1      -1.543  11.959  22.077  0.00  0.00    +0.000 A 
ATOM      6  C   UNL     1      -2.585  11.947  22.996  0.00  0.00    +0.000 A 
ATOM      7  C   UNL     1      -3.374  13.076  23.227  0.00  0.00    +0.000 A 
ATOM      8  C   UNL     1      -3.065  14.213  22.468  0.00  0.00    +0.000 A 
ATOM      9  S   UNL     1      -3.820  15.756  22.469  0.00  0.00    +0.000 S 
ATOM     10  C   UNL     1      -2.780  16.348  21.262  0.00  0.00    +0.000 A 
ATOM     11  C   UNL     1      -1.842  15.416  20.841  0.00  0.00    +0.000 A 
ATOM     12  C   UNL     1      -2.018  14.172  21.546  0.00  0.00    +0.000 A 
ATOM     13  N   UNL     1      -1.266  13.056  21.353  0.00  0.00    +0.000 NA
ATOM     14  C   UNL     1      -0.086  10.666  20.602  0.00  0.00    +0.000 C 
ATOM     15  C   UNL     1       1.402  10.427  20.853  0.00  0.00    +0.000 C 
ENDROOT
BRANCH  11  16
ATOM     16  C   UNL     1      -0.861  15.758  19.813  0.00  0.00    +0.000 C 
ATOM     17  O   UNL     1       0.241  15.209  19.762  0.00  0.00    +0.000 OA
ATOM     18  N   UNL     1      -1.253  16.728  18.919  0.00  0.00    +0.000 N 
ATOM     19  C   UNL     1      -0.407  17.189  17.846  0.00  0.00    +0.000 C 
ATOM     20  H   UNL     1      -2.184  17.124  19.030  0.00  0.00    +0.000 HD
ENDBRANCH  11  16
BRANCH   7  21
ATOM     21  C   UNL     1      -4.478  13.034  24.247  0.00  0.00    +0.000 C 
ATOM     22  F   UNL     1      -5.717  13.216  23.698  0.00  0.00    +0.000 F 
ATOM     23  F   UNL     1      -4.551  11.845  24.907  0.00  0.00    +0.000 F 
ATOM     24  F   UNL     1      -4.357  13.997  25.196  0.00  0.00    +0.000 F 
ENDBRANCH   7  21
BRANCH   1  25
ATOM     25  O   UNL     1       0.995   8.119  20.901  0.00  0.00    +0.000 OA
BRANCH  25  27
ATOM     26  N   UNL     1       1.789   6.096  20.973  0.00  0.00    +0.000 N 
ATOM     27  C   UNL     1       1.772   7.246  20.239  0.00  0.00    +0.000 C 
ATOM     28  O   UNL     1       2.301   7.440  19.158  0.00  0.00    +0.000 OA
ATOM     29  H   UNL     1       1.159   6.116  21.764  0.00  0.00    +0.000 HD
BRANCH  26  30
ATOM     30  C   UNL     1       2.215   4.808  20.458  0.00  0.00    +0.000 C 
ATOM     31  C   UNL     1       2.279   3.792  21.602  0.00  0.00    +0.000 C 
BRANCH  30  33
ATOM     32  C   UNL     1       1.884   4.069  18.015  0.00  0.00    +0.000 C 
ATOM     33  C   UNL     1       1.248   4.284  19.380  0.00  0.00    +0.000 C 
ENDBRANCH  30  33
ENDBRANCH  26  30
ENDBRANCH  25  27
ENDBRANCH   1  25
TORSDOF 6
ENDMDL
