MODEL 1
REMARK VINA RESULT:      -7.7      0.000      0.000
REMARK  Name = 
REMARK  4 active torsions:
REMARK  status: ('A' for Active; 'I' for Inactive)
REMARK    1  A    between atoms: C_2  and  C_13
REMARK    2  A    between atoms: N_3  and  N_4
REMARK    3  A    between atoms: C_5  and  C_6
REMARK    4  A    between atoms: C_9  and  O_10
REMARK                            x       y       z     vdW  Elec       q    Type
REMARK                         _______ _______ _______ _____ _____    ______ ____
ROOT
ATOM      1  O   UNL     1       4.028   3.891  19.229  0.00  0.00    +0.000 OA
ATOM      2  C   UNL     1       3.641   4.731  18.424  0.00  0.00    +0.000 C 
ATOM      3  N   UNL     1       3.929   4.751  17.069  0.00  0.00    +0.000 N 
ATOM      4  H   UNL     1       3.649   5.533  16.492  0.00  0.00    +0.000 HD
ENDROOT
BRANCH   2   5
ATOM      5  C   UNL     1       2.873   5.914  18.914  0.00  0.00    +0.000 A 
ATOM      6  C   UNL     1       2.266   5.844  20.171  0.00  0.00    +0.000 A 
ATOM      7  C   UNL     1       1.576   6.953  20.681  0.00  0.00    +0.000 A 
ATOM      8  C   UNL     1       1.471   8.138  19.969  0.00  0.00    +0.000 A 
ATOM      9  N   UNL     1       0.807   9.176  20.503  0.00  0.00    +0.000 NA
ATOM     10  C   UNL     1       0.716  10.313  19.777  0.00  0.00    +0.000 A 
ATOM     11  C   UNL     1       1.272  10.473  18.522  0.00  0.00    +0.000 A 
ATOM     12  C   UNL     1       1.959   9.401  17.973  0.00  0.00    +0.000 A 
ATOM     13  C   UNL     1       2.075   8.205  18.691  0.00  0.00    +0.000 A 
ATOM     14  C   UNL     1       2.763   7.094  18.169  0.00  0.00    +0.000 A 
ENDBRANCH   2   5
BRANCH   3  15
ATOM     15  N   UNL     1       4.753   3.818  16.515  0.00  0.00    +0.000 NA
ATOM     16  C   UNL     1       6.033   4.053  16.498  0.00  0.00    +0.000 C 
BRANCH  16  17
ATOM     17  C   UNL     1       6.789   5.127  17.185  0.00  0.00    +0.000 A 
ATOM     18  C   UNL     1       7.429   4.898  18.412  0.00  0.00    +0.000 A 
ATOM     19  C   UNL     1       8.082   5.940  19.071  0.00  0.00    +0.000 A 
ATOM     20  C   UNL     1       8.139   7.192  18.470  0.00  0.00    +0.000 A 
ATOM     21  C   UNL     1       7.574   7.410  17.217  0.00  0.00    +0.000 A 
ATOM     22  C   UNL     1       6.896   6.375  16.568  0.00  0.00    +0.000 A 
BRANCH  20  23
ATOM     23  O   UNL     1       8.756   8.240  19.083  0.00  0.00    +0.000 OA
ATOM     24  H   UNL     1       9.233   8.760  18.415  0.00  0.00    +0.000 HD
ENDBRANCH  20  23
ENDBRANCH  16  17
ENDBRANCH   3  15
TORSDOF 4
ENDMDL
MODEL 2
REMARK VINA RESULT:      -7.6      1.077      2.103
REMARK  Name = 
REMARK  4 active torsions:
REMARK  status: ('A' for Active; 'I' for Inactive)
REMARK    1  A    between atoms: C_2  and  C_13
REMARK    2  A    between atoms: N_3  and  N_4
REMARK    3  A    between atoms: C_5  and  C_6
REMARK    4  A    between atoms: C_9  and  O_10
REMARK                            x       y       z     vdW  Elec       q    Type
REMARK                         _______ _______ _______ _____ _____    ______ ____
ROOT
ATOM      1  O   UNL     1       3.039   4.583  19.780  0.00  0.00    +0.000 OA
ATOM      2  C   UNL     1       2.869   5.377  18.861  0.00  0.00    +0.000 C 
ATOM      3  N   UNL     1       3.221   5.173  17.537  0.00  0.00    +0.000 N 
ATOM      4  H   UNL     1       3.133   5.917  16.857  0.00  0.00    +0.000 HD
ENDROOT
BRANCH   2   5
ATOM      5  C   UNL     1       2.333   6.738  19.159  0.00  0.00    +0.000 A 
ATOM      6  C   UNL     1       2.314   7.689  18.135  0.00  0.00    +0.000 A 
ATOM      7  C   UNL     1       1.775   8.962  18.368  0.00  0.00    +0.000 A 
ATOM      8  C   UNL     1       1.253   9.319  19.603  0.00  0.00    +0.000 A 
ATOM      9  N   UNL     1       0.741  10.547  19.776  0.00  0.00    +0.000 NA
ATOM     10  C   UNL     1       0.248  10.865  20.995  0.00  0.00    +0.000 A 
ATOM     11  C   UNL     1       0.235   9.997  22.070  0.00  0.00    +0.000 A 
ATOM     12  C   UNL     1       0.762   8.728  21.889  0.00  0.00    +0.000 A 
ATOM     13  C   UNL     1       1.284   8.360  20.643  0.00  0.00    +0.000 A 
ATOM     14  C   UNL     1       1.829   7.082  20.419  0.00  0.00    +0.000 A 
ENDBRANCH   2   5
BRANCH   3  15
ATOM     15  N   UNL     1       3.866   4.036  17.151  0.00  0.00    +0.000 NA
ATOM     16  C   UNL     1       5.166   4.050  17.092  0.00  0.00    +0.000 C 
BRANCH  16  17
ATOM     17  C   UNL     1       6.106   5.086  17.581  0.00  0.00    +0.000 A 
ATOM     18  C   UNL     1       6.403   6.222  16.815  0.00  0.00    +0.000 A 
ATOM     19  C   UNL     1       7.338   7.154  17.268  0.00  0.00    +0.000 A 
ATOM     20  C   UNL     1       7.928   6.971  18.513  0.00  0.00    +0.000 A 
ATOM     21  C   UNL     1       7.582   5.888  19.316  0.00  0.00    +0.000 A 
ATOM     22  C   UNL     1       6.668   4.939  18.852  0.00  0.00    +0.000 A 
BRANCH  20  23
ATOM     23  O   UNL     1       8.853   7.849  18.990  0.00  0.00    +0.000 OA
ATOM     24  H   UNL     1       9.376   8.192  18.245  0.00  0.00    +0.000 HD
ENDBRANCH  20  23
ENDBRANCH  16  17
ENDBRANCH   3  15
TORSDOF 4
ENDMDL
MODEL 3
REMARK VINA RESULT:      -7.6      2.604      6.643
REMARK  Name = 
REMARK  4 active torsions:
REMARK  status: ('A' for Active; 'I' for Inactive)
REMARK    1  A    between atoms: C_2  and  C_13
REMARK    2  A    between atoms: N_3  and  N_4
REMARK    3  A    between atoms: C_5  and  C_6
REMARK    4  A    between atoms: C_9  and  O_10
REMARK                            x       y       z     vdW  Elec       q    Type
REMARK                         _______ _______ _______ _____ _____    ______ ____
ROOT
ATOM      1  O   UNL     1       3.402   2.879  17.656  0.00  0.00    +0.000 OA
ATOM      2  C   UNL     1       4.149   3.826  17.878  0.00  0.00    +0.000 C 
ATOM      3  N   UNL     1       4.143   4.615  19.017  0.00  0.00    +0.000 N 
ATOM      4  H   UNL     1       4.730   5.437  19.080  0.00  0.00    +0.000 HD
ENDROOT
BRANCH   2   5
ATOM      5  C   UNL     1       5.100   4.271  16.817  0.00  0.00    +0.000 A 
ATOM      6  C   UNL     1       6.094   5.195  17.154  0.00  0.00    +0.000 A 
ATOM      7  C   UNL     1       7.031   5.600  16.193  0.00  0.00    +0.000 A 
ATOM      8  C   UNL     1       7.005   5.109  14.896  0.00  0.00    +0.000 A 
ATOM      9  N   UNL     1       7.929   5.520  14.013  0.00  0.00    +0.000 NA
ATOM     10  C   UNL     1       7.869   5.029  12.755  0.00  0.00    +0.000 A 
ATOM     11  C   UNL     1       6.918   4.123  12.326  0.00  0.00    +0.000 A 
ATOM     12  C   UNL     1       5.966   3.698  13.239  0.00  0.00    +0.000 A 
ATOM     13  C   UNL     1       5.992   4.184  14.552  0.00  0.00    +0.000 A 
ATOM     14  C   UNL     1       5.043   3.777  15.509  0.00  0.00    +0.000 A 
ENDBRANCH   2   5
BRANCH   3  15
ATOM     15  N   UNL     1       3.219   4.420  19.999  0.00  0.00    +0.000 NA
ATOM     16  C   UNL     1       2.431   5.407  20.315  0.00  0.00    +0.000 C 
BRANCH  16  17
ATOM     17  C   UNL     1       2.239   6.701  19.617  0.00  0.00    +0.000 A 
ATOM     18  C   UNL     1       1.708   7.816  20.281  0.00  0.00    +0.000 A 
ATOM     19  C   UNL     1       1.478   9.005  19.588  0.00  0.00    +0.000 A 
ATOM     20  C   UNL     1       1.835   9.088  18.247  0.00  0.00    +0.000 A 
ATOM     21  C   UNL     1       2.434   8.012  17.599  0.00  0.00    +0.000 A 
ATOM     22  C   UNL     1       2.639   6.812  18.283  0.00  0.00    +0.000 A 
BRANCH  20  23
ATOM     23  O   UNL     1       1.618  10.226  17.529  0.00  0.00    +0.000 OA
ATOM     24  H   UNL     1       1.564  10.979  18.141  0.00  0.00    +0.000 HD
ENDBRANCH  20  23
ENDBRANCH  16  17
ENDBRANCH   3  15
TORSDOF 4
ENDMDL
MODEL 4
REMARK VINA RESULT:      -7.6      2.611      6.687
REMARK  Name = 
REMARK  4 active torsions:
REMARK  status: ('A' for Active; 'I' for Inactive)
REMARK    1  A    between atoms: C_2  and  C_13
REMARK    2  A    between atoms: N_3  and  N_4
REMARK    3  A    between atoms: C_5  and  C_6
REMARK    4  A    between atoms: C_9  and  O_10
REMARK                            x       y       z     vdW  Elec       q    Type
REMARK                         _______ _______ _______ _____ _____    ______ ____
ROOT
ATOM      1  O   UNL     1       3.593   2.728  17.731  0.00  0.00    +0.000 OA
ATOM      2  C   UNL     1       4.267   3.738  17.906  0.00  0.00    +0.000 C 
ATOM      3  N   UNL     1       4.202   4.577  19.007  0.00  0.00    +0.000 N 
ATOM      4  H   UNL     1       4.725   5.442  19.029  0.00  0.00    +0.000 HD
ENDROOT
BRANCH   2   5
ATOM      5  C   UNL     1       5.179   4.205  16.820  0.00  0.00    +0.000 A 
ATOM      6  C   UNL     1       6.153   5.159  17.129  0.00  0.00    +0.000 A 
ATOM      7  C   UNL     1       7.055   5.585  16.144  0.00  0.00    +0.000 A 
ATOM      8  C   UNL     1       7.014   5.087  14.851  0.00  0.00    +0.000 A 
ATOM      9  N   UNL     1       7.905   5.519  13.945  0.00  0.00    +0.000 NA
ATOM     10  C   UNL     1       7.831   5.020  12.691  0.00  0.00    +0.000 A 
ATOM     11  C   UNL     1       6.897   4.083  12.289  0.00  0.00    +0.000 A 
ATOM     12  C   UNL     1       5.979   3.636  13.226  0.00  0.00    +0.000 A 
ATOM     13  C   UNL     1       6.021   4.130  14.535  0.00  0.00    +0.000 A 
ATOM     14  C   UNL     1       5.106   3.702  15.516  0.00  0.00    +0.000 A 
ENDBRANCH   2   5
BRANCH   3  15
ATOM     15  N   UNL     1       3.298   4.357  20.002  0.00  0.00    +0.000 NA
ATOM     16  C   UNL     1       2.488   5.323  20.328  0.00  0.00    +0.000 C 
BRANCH  16  17
ATOM     17  C   UNL     1       2.252   6.611  19.632  0.00  0.00    +0.000 A 
ATOM     18  C   UNL     1       2.529   6.763  18.266  0.00  0.00    +0.000 A 
ATOM     19  C   UNL     1       2.358   8.001  17.646  0.00  0.00    +0.000 A 
ATOM     20  C   UNL     1       1.856   9.066  18.385  0.00  0.00    +0.000 A 
ATOM     21  C   UNL     1       1.504   8.905  19.722  0.00  0.00    +0.000 A 
ATOM     22  C   UNL     1       1.702   7.674  20.352  0.00  0.00    +0.000 A 
BRANCH  20  23
ATOM     23  O   UNL     1       1.684  10.295  17.823  0.00  0.00    +0.000 OA
ATOM     24  H   UNL     1       2.130  10.312  16.960  0.00  0.00    +0.000 HD
ENDBRANCH  20  23
ENDBRANCH  16  17
ENDBRANCH   3  15
TORSDOF 4
ENDMDL
MODEL 5
REMARK VINA RESULT:      -7.6      0.209      1.053
REMARK  Name = 
REMARK  4 active torsions:
REMARK  status: ('A' for Active; 'I' for Inactive)
REMARK    1  A    between atoms: C_2  and  C_13
REMARK    2  A    between atoms: N_3  and  N_4
REMARK    3  A    between atoms: C_5  and  C_6
REMARK    4  A    between atoms: C_9  and  O_10
REMARK                            x       y       z     vdW  Elec       q    Type
REMARK                         _______ _______ _______ _____ _____    ______ ____
ROOT
ATOM      1  O   UNL     1       3.831   3.971  19.179  0.00  0.00    +0.000 OA
ATOM      2  C   UNL     1       3.488   4.863  18.411  0.00  0.00    +0.000 C 
ATOM      3  N   UNL     1       3.817   4.950  17.068  0.00  0.00    +0.000 N 
ATOM      4  H   UNL     1       3.573   5.769  16.527  0.00  0.00    +0.000 HD
ENDROOT
BRANCH   2   5
ATOM      5  C   UNL     1       2.734   6.037  18.944  0.00  0.00    +0.000 A 
ATOM      6  C   UNL     1       2.181   5.951  20.224  0.00  0.00    +0.000 A 
ATOM      7  C   UNL     1       1.506   7.050  20.773  0.00  0.00    +0.000 A 
ATOM      8  C   UNL     1       1.363   8.241  20.077  0.00  0.00    +0.000 A 
ATOM      9  N   UNL     1       0.715   9.269  20.648  0.00  0.00    +0.000 NA
ATOM     10  C   UNL     1       0.586  10.412  19.937  0.00  0.00    +0.000 A 
ATOM     11  C   UNL     1       1.088  10.587  18.662  0.00  0.00    +0.000 A 
ATOM     12  C   UNL     1       1.758   9.526  18.075  0.00  0.00    +0.000 A 
ATOM     13  C   UNL     1       1.912   8.324  18.776  0.00  0.00    +0.000 A 
ATOM     14  C   UNL     1       2.585   7.222  18.215  0.00  0.00    +0.000 A 
ENDBRANCH   2   5
BRANCH   3  15
ATOM     15  N   UNL     1       4.635   4.028  16.487  0.00  0.00    +0.000 NA
ATOM     16  C   UNL     1       5.915   4.264  16.459  0.00  0.00    +0.000 C 
BRANCH  16  17
ATOM     17  C   UNL     1       6.678   5.326  17.158  0.00  0.00    +0.000 A 
ATOM     18  C   UNL     1       6.799   6.614  16.616  0.00  0.00    +0.000 A 
ATOM     19  C   UNL     1       7.573   7.580  17.260  0.00  0.00    +0.000 A 
ATOM     20  C   UNL     1       8.175   7.267  18.473  0.00  0.00    +0.000 A 
ATOM     21  C   UNL     1       7.997   6.017  19.059  0.00  0.00    +0.000 A 
ATOM     22  C   UNL     1       7.246   5.039  18.401  0.00  0.00    +0.000 A 
BRANCH  20  23
ATOM     23  O   UNL     1       8.949   8.176  19.131  0.00  0.00    +0.000 OA
ATOM     24  H   UNL     1       8.393   8.667  19.759  0.00  0.00    +0.000 HD
ENDBRANCH  20  23
ENDBRANCH  16  17
ENDBRANCH   3  15
TORSDOF 4
ENDMDL
MODEL 6
REMARK VINA RESULT:      -7.6      1.589      2.445
REMARK  Name = 
REMARK  4 active torsions:
REMARK  status: ('A' for Active; 'I' for Inactive)
REMARK    1  A    between atoms: C_2  and  C_13
REMARK    2  A    between atoms: N_3  and  N_4
REMARK    3  A    between atoms: C_5  and  C_6
REMARK    4  A    between atoms: C_9  and  O_10
REMARK                            x       y       z     vdW  Elec       q    Type
REMARK                         _______ _______ _______ _____ _____    ______ ____
ROOT
ATOM      1  O   UNL     1       2.832   5.006  20.622  0.00  0.00    +0.000 OA
ATOM      2  C   UNL     1       2.394   5.438  19.562  0.00  0.00    +0.000 C 
ATOM      3  N   UNL     1       2.247   4.715  18.389  0.00  0.00    +0.000 N 
ATOM      4  H   UNL     1       1.966   5.171  17.531  0.00  0.00    +0.000 HD
ENDROOT
BRANCH   2   5
ATOM      5  C   UNL     1       2.070   6.890  19.442  0.00  0.00    +0.000 A 
ATOM      6  C   UNL     1       2.319   7.533  18.226  0.00  0.00    +0.000 A 
ATOM      7  C   UNL     1       1.985   8.885  18.064  0.00  0.00    +0.000 A 
ATOM      8  C   UNL     1       1.408   9.621  19.088  0.00  0.00    +0.000 A 
ATOM      9  N   UNL     1       1.097  10.911  18.883  0.00  0.00    +0.000 NA
ATOM     10  C   UNL     1       0.544  11.602  19.905  0.00  0.00    +0.000 A 
ATOM     11  C   UNL     1       0.272  11.057  21.145  0.00  0.00    +0.000 A 
ATOM     12  C   UNL     1       0.591   9.725  21.354  0.00  0.00    +0.000 A 
ATOM     13  C   UNL     1       1.167   8.974  20.323  0.00  0.00    +0.000 A 
ATOM     14  C   UNL     1       1.506   7.619  20.495  0.00  0.00    +0.000 A 
ENDBRANCH   2   5
BRANCH   3  15
ATOM     15  N   UNL     1       2.653   3.416  18.312  0.00  0.00    +0.000 NA
ATOM     16  C   UNL     1       3.824   3.162  17.803  0.00  0.00    +0.000 C 
BRANCH  16  17
ATOM     17  C   UNL     1       4.911   4.108  17.457  0.00  0.00    +0.000 A 
ATOM     18  C   UNL     1       5.845   4.528  18.416  0.00  0.00    +0.000 A 
ATOM     19  C   UNL     1       6.821   5.468  18.084  0.00  0.00    +0.000 A 
ATOM     20  C   UNL     1       6.893   5.938  16.778  0.00  0.00    +0.000 A 
ATOM     21  C   UNL     1       6.021   5.470  15.800  0.00  0.00    +0.000 A 
ATOM     22  C   UNL     1       5.024   4.551  16.137  0.00  0.00    +0.000 A 
BRANCH  20  23
ATOM     23  O   UNL     1       7.823   6.864  16.413  0.00  0.00    +0.000 OA
ATOM     24  H   UNL     1       8.235   6.585  15.578  0.00  0.00    +0.000 HD
ENDBRANCH  20  23
ENDBRANCH  16  17
ENDBRANCH   3  15
TORSDOF 4
ENDMDL
MODEL 7
REMARK VINA RESULT:      -7.5      0.967      1.741
REMARK  Name = 
REMARK  4 active torsions:
REMARK  status: ('A' for Active; 'I' for Inactive)
REMARK    1  A    between atoms: C_2  and  C_13
REMARK    2  A    between atoms: N_3  and  N_4
REMARK    3  A    between atoms: C_5  and  C_6
REMARK    4  A    between atoms: C_9  and  O_10
REMARK                            x       y       z     vdW  Elec       q    Type
REMARK                         _______ _______ _______ _____ _____    ______ ____
ROOT
ATOM      1  O   UNL     1       2.946   4.459  19.254  0.00  0.00    +0.000 OA
ATOM      2  C   UNL     1       2.992   5.386  18.452  0.00  0.00    +0.000 C 
ATOM      3  N   UNL     1       3.607   5.356  17.211  0.00  0.00    +0.000 N 
ATOM      4  H   UNL     1       3.682   6.194  16.650  0.00  0.00    +0.000 HD
ENDROOT
BRANCH   2   5
ATOM      5  C   UNL     1       2.441   6.718  18.841  0.00  0.00    +0.000 A 
ATOM      6  C   UNL     1       2.306   7.700  17.856  0.00  0.00    +0.000 A 
ATOM      7  C   UNL     1       1.749   8.946  18.177  0.00  0.00    +0.000 A 
ATOM      8  C   UNL     1       1.322   9.245  19.462  0.00  0.00    +0.000 A 
ATOM      9  N   UNL     1       0.788  10.449  19.719  0.00  0.00    +0.000 NA
ATOM     10  C   UNL     1       0.390  10.711  20.985  0.00  0.00    +0.000 A 
ATOM     11  C   UNL     1       0.494   9.809  22.027  0.00  0.00    +0.000 A 
ATOM     12  C   UNL     1       1.044   8.566  21.759  0.00  0.00    +0.000 A 
ATOM     13  C   UNL     1       1.470   8.255  20.462  0.00  0.00    +0.000 A 
ATOM     14  C   UNL     1       2.034   7.004  20.149  0.00  0.00    +0.000 A 
ENDBRANCH   2   5
BRANCH   3  15
ATOM     15  N   UNL     1       4.288   4.252  16.794  0.00  0.00    +0.000 NA
ATOM     16  C   UNL     1       5.590   4.285  16.805  0.00  0.00    +0.000 C 
BRANCH  16  17
ATOM     17  C   UNL     1       6.487   5.301  17.405  0.00  0.00    +0.000 A 
ATOM     18  C   UNL     1       7.177   5.051  18.600  0.00  0.00    +0.000 A 
ATOM     19  C   UNL     1       7.966   6.045  19.179  0.00  0.00    +0.000 A 
ATOM     20  C   UNL     1       8.107   7.265  18.527  0.00  0.00    +0.000 A 
ATOM     21  C   UNL     1       7.490   7.496  17.301  0.00  0.00    +0.000 A 
ATOM     22  C   UNL     1       6.675   6.512  16.734  0.00  0.00    +0.000 A 
BRANCH  20  23
ATOM     23  O   UNL     1       8.859   8.267  19.061  0.00  0.00    +0.000 OA
ATOM     24  H   UNL     1       8.623   8.373  19.998  0.00  0.00    +0.000 HD
ENDBRANCH  20  23
ENDBRANCH  16  17
ENDBRANCH   3  15
TORSDOF 4
ENDMDL
MODEL 8
REMARK VINA RESULT:      -7.5      1.750      2.741
REMARK  Name = 
REMARK  4 active torsions:
REMARK  status: ('A' for Active; 'I' for Inactive)
REMARK    1  A    between atoms: C_2  and  C_13
REMARK    2  A    between atoms: N_3  and  N_4
REMARK    3  A    between atoms: C_5  and  C_6
REMARK    4  A    between atoms: C_9  and  O_10
REMARK                            x       y       z     vdW  Elec       q    Type
REMARK                         _______ _______ _______ _____ _____    ______ ____
ROOT
ATOM      1  O   UNL     1       2.866   5.031  20.725  0.00  0.00    +0.000 OA
ATOM      2  C   UNL     1       2.389   5.411  19.661  0.00  0.00    +0.000 C 
ATOM      3  N   UNL     1       2.190   4.628  18.535  0.00  0.00    +0.000 N 
ATOM      4  H   UNL     1       1.880   5.041  17.666  0.00  0.00    +0.000 HD
ENDROOT
BRANCH   2   5
ATOM      5  C   UNL     1       2.073   6.858  19.476  0.00  0.00    +0.000 A 
ATOM      6  C   UNL     1       2.310   7.441  18.228  0.00  0.00    +0.000 A 
ATOM      7  C   UNL     1       1.981   8.786  18.007  0.00  0.00    +0.000 A 
ATOM      8  C   UNL     1       1.423   9.574  19.002  0.00  0.00    +0.000 A 
ATOM      9  N   UNL     1       1.117  10.854  18.740  0.00  0.00    +0.000 NA
ATOM     10  C   UNL     1       0.583  11.597  19.736  0.00  0.00    +0.000 A 
ATOM     11  C   UNL     1       0.324  11.113  21.004  0.00  0.00    +0.000 A 
ATOM     12  C   UNL     1       0.637   9.790  21.272  0.00  0.00    +0.000 A 
ATOM     13  C   UNL     1       1.194   8.987  20.269  0.00  0.00    +0.000 A 
ATOM     14  C   UNL     1       1.527   7.640  20.501  0.00  0.00    +0.000 A 
ENDBRANCH   2   5
BRANCH   3  15
ATOM     15  N   UNL     1       2.583   3.323  18.511  0.00  0.00    +0.000 NA
ATOM     16  C   UNL     1       3.695   3.021  17.907  0.00  0.00    +0.000 C 
BRANCH  16  17
ATOM     17  C   UNL     1       4.745   3.929  17.386  0.00  0.00    +0.000 A 
ATOM     18  C   UNL     1       4.760   4.332  16.042  0.00  0.00    +0.000 A 
ATOM     19  C   UNL     1       5.793   5.137  15.560  0.00  0.00    +0.000 A 
ATOM     20  C   UNL     1       6.772   5.582  16.439  0.00  0.00    +0.000 A 
ATOM     21  C   UNL     1       6.723   5.254  17.791  0.00  0.00    +0.000 A 
ATOM     22  C   UNL     1       5.706   4.424  18.270  0.00  0.00    +0.000 A 
BRANCH  20  23
ATOM     23  O   UNL     1       7.804   6.361  16.009  0.00  0.00    +0.000 OA
ATOM     24  H   UNL     1       8.632   6.026  16.392  0.00  0.00    +0.000 HD
ENDBRANCH  20  23
ENDBRANCH  16  17
ENDBRANCH   3  15
TORSDOF 4
ENDMDL
MODEL 9
REMARK VINA RESULT:      -7.4      1.852      2.678
REMARK  Name = 
REMARK  4 active torsions:
REMARK  status: ('A' for Active; 'I' for Inactive)
REMARK    1  A    between atoms: C_2  and  C_13
REMARK    2  A    between atoms: N_3  and  N_4
REMARK    3  A    between atoms: C_5  and  C_6
REMARK    4  A    between atoms: C_9  and  O_10
REMARK                            x       y       z     vdW  Elec       q    Type
REMARK                         _______ _______ _______ _____ _____    ______ ____
ROOT
ATOM      1  O   UNL     1       2.135   5.655  18.105  0.00  0.00    +0.000 OA
ATOM      2  C   UNL     1       2.511   6.164  19.155  0.00  0.00    +0.000 C 
ATOM      3  N   UNL     1       3.397   5.602  20.059  0.00  0.00    +0.000 N 
ATOM      4  H   UNL     1       3.582   6.047  20.948  0.00  0.00    +0.000 HD
ENDROOT
BRANCH   2   5
ATOM      5  C   UNL     1       1.914   7.460  19.594  0.00  0.00    +0.000 A 
ATOM      6  C   UNL     1       1.875   8.521  18.685  0.00  0.00    +0.000 A 
ATOM      7  C   UNL     1       1.280   9.737  19.049  0.00  0.00    +0.000 A 
ATOM      8  C   UNL     1       0.720   9.929  20.303  0.00  0.00    +0.000 A 
ATOM      9  N   UNL     1       0.154  11.109  20.603  0.00  0.00    +0.000 NA
ATOM     10  C   UNL     1      -0.374  11.265  21.838  0.00  0.00    +0.000 A 
ATOM     11  C   UNL     1      -0.373  10.280  22.807  0.00  0.00    +0.000 A 
ATOM     12  C   UNL     1       0.210   9.061  22.495  0.00  0.00    +0.000 A 
ATOM     13  C   UNL     1       0.770   8.859  21.228  0.00  0.00    +0.000 A 
ATOM     14  C   UNL     1       1.372   7.638  20.872  0.00  0.00    +0.000 A 
ENDBRANCH   2   5
BRANCH   3  15
ATOM     15  N   UNL     1       3.898   4.350  19.861  0.00  0.00    +0.000 NA
ATOM     16  C   UNL     1       4.961   4.216  19.121  0.00  0.00    +0.000 C 
BRANCH  16  17
ATOM     17  C   UNL     1       5.863   5.268  18.595  0.00  0.00    +0.000 A 
ATOM     18  C   UNL     1       7.085   5.560  19.219  0.00  0.00    +0.000 A 
ATOM     19  C   UNL     1       7.889   6.596  18.744  0.00  0.00    +0.000 A 
ATOM     20  C   UNL     1       7.493   7.296  17.611  0.00  0.00    +0.000 A 
ATOM     21  C   UNL     1       6.321   6.963  16.938  0.00  0.00    +0.000 A 
ATOM     22  C   UNL     1       5.500   5.945  17.429  0.00  0.00    +0.000 A 
BRANCH  20  23
ATOM     23  O   UNL     1       8.242   8.322  17.119  0.00  0.00    +0.000 OA
ATOM     24  H   UNL     1       8.859   8.621  17.808  0.00  0.00    +0.000 HD
ENDBRANCH  20  23
ENDBRANCH  16  17
ENDBRANCH   3  15
TORSDOF 4
ENDMDL
