MODEL 1
REMARK VINA RESULT:      -6.2      0.000      0.000
REMARK  Name = 
REMARK  3 active torsions:
REMARK  status: ('A' for Active; 'I' for Inactive)
REMARK    1  A    between atoms: C_1  and  N_2
REMARK    2  A    between atoms: N_12  and  C_13
REMARK    3  A    between atoms: C_16  and  C_17
REMARK                            x       y       z     vdW  Elec       q    Type
REMARK                         _______ _______ _______ _____ _____    ______ ____
ROOT
ATOM      1  C   UNL     1       5.298   5.772  19.603  0.00  0.00    +0.000 C 
ATOM      2  N   UNL     1       4.576   4.886  18.665  0.00  0.00    +0.000 N 
ATOM      3  C   UNL     1       3.371   4.296  19.182  0.00  0.00    +0.000 A 
ATOM      4  C   UNL     1       2.893   4.535  20.497  0.00  0.00    +0.000 A 
ATOM      5  C   UNL     1       1.722   3.965  21.017  0.00  0.00    +0.000 A 
ATOM      6  C   UNL     1       0.962   3.120  20.239  0.00  0.00    +0.000 A 
ATOM      7  C   UNL     1       1.387   2.856  18.946  0.00  0.00    +0.000 A 
ATOM      8  C   UNL     1       2.569   3.430  18.420  0.00  0.00    +0.000 A 
ATOM      9  S   UNL     1       2.904   2.950  16.761  0.00  0.00    +0.000 S 
ATOM     10  C   UNL     1       4.368   3.776  16.394  0.00  0.00    +0.000 A 
ATOM     11  C   UNL     1       4.819   3.546  15.147  0.00  0.00    +0.000 A 
ATOM     12  N   UNL     1       5.966   4.108  14.659  0.00  0.00    +0.000 N 
ATOM     13  C   UNL     1       6.409   3.828  13.304  0.00  0.00    +0.000 C 
ATOM     14  C   UNL     1       6.736   4.953  15.428  0.00  0.00    +0.000 A 
ATOM     15  O   UNL     1       7.770   5.466  15.006  0.00  0.00    +0.000 OA
ATOM     16  C   UNL     1       6.249   5.221  16.823  0.00  0.00    +0.000 A 
ATOM     17  C   UNL     1       5.099   4.667  17.332  0.00  0.00    +0.000 A 
ENDROOT
BRANCH  16  18
ATOM     18  C   UNL     1       7.126   6.107  17.514  0.00  0.00    +0.000 C 
ATOM     19  N   UNL     1       7.850   6.842  18.050  0.00  0.00    +0.000 NA
ENDBRANCH  16  18
TORSDOF 1
ENDMDL
MODEL 2
REMARK VINA RESULT:      -6.0      3.405      4.334
REMARK  Name = 
REMARK  3 active torsions:
REMARK  status: ('A' for Active; 'I' for Inactive)
REMARK    1  A    between atoms: C_1  and  N_2
REMARK    2  A    between atoms: N_12  and  C_13
REMARK    3  A    between atoms: C_16  and  C_17
REMARK                            x       y       z     vdW  Elec       q    Type
REMARK                         _______ _______ _______ _____ _____    ______ ____
ROOT
ATOM      1  C   UNL     1       2.230   5.067  20.914  0.00  0.00    +0.000 C 
ATOM      2  N   UNL     1       2.411   6.144  19.917  0.00  0.00    +0.000 N 
ATOM      3  C   UNL     1       1.700   7.363  20.194  0.00  0.00    +0.000 A 
ATOM      4  C   UNL     1       0.879   7.540  21.338  0.00  0.00    +0.000 A 
ATOM      5  C   UNL     1       0.178   8.721  21.620  0.00  0.00    +0.000 A 
ATOM      6  C   UNL     1       0.264   9.796  20.764  0.00  0.00    +0.000 A 
ATOM      7  C   UNL     1       1.055   9.673  19.632  0.00  0.00    +0.000 A 
ATOM      8  C   UNL     1       1.763   8.481  19.345  0.00  0.00    +0.000 A 
ATOM      9  S   UNL     1       2.699   8.561  17.858  0.00  0.00    +0.000 S 
ATOM     10  C   UNL     1       3.433   7.009  17.763  0.00  0.00    +0.000 A 
ATOM     11  C   UNL     1       4.210   6.845  16.676  0.00  0.00    +0.000 A 
ATOM     12  N   UNL     1       4.884   5.684  16.416  0.00  0.00    +0.000 N 
ATOM     13  C   UNL     1       5.710   5.558  15.227  0.00  0.00    +0.000 C 
ATOM     14  C   UNL     1       4.803   4.600  17.263  0.00  0.00    +0.000 A 
ATOM     15  O   UNL     1       5.401   3.549  17.045  0.00  0.00    +0.000 OA
ATOM     16  C   UNL     1       3.941   4.765  18.481  0.00  0.00    +0.000 A 
ATOM     17  C   UNL     1       3.256   5.922  18.762  0.00  0.00    +0.000 A 
ENDROOT
BRANCH  16  18
ATOM     18  C   UNL     1       3.940   3.581  19.276  0.00  0.00    +0.000 C 
ATOM     19  N   UNL     1       3.950   2.599  19.899  0.00  0.00    +0.000 NA
ENDBRANCH  16  18
TORSDOF 1
ENDMDL
MODEL 3
REMARK VINA RESULT:      -5.8      3.939      5.692
REMARK  Name = 
REMARK  3 active torsions:
REMARK  status: ('A' for Active; 'I' for Inactive)
REMARK    1  A    between atoms: C_1  and  N_2
REMARK    2  A    between atoms: N_12  and  C_13
REMARK    3  A    between atoms: C_16  and  C_17
REMARK                            x       y       z     vdW  Elec       q    Type
REMARK                         _______ _______ _______ _____ _____    ______ ____
ROOT
ATOM      1  C   UNL     1       3.724   7.158  17.068  0.00  0.00    +0.000 C 
ATOM      2  N   UNL     1       2.931   7.097  18.314  0.00  0.00    +0.000 N 
ATOM      3  C   UNL     1       2.240   8.309  18.662  0.00  0.00    +0.000 A 
ATOM      4  C   UNL     1       2.302   9.490  17.877  0.00  0.00    +0.000 A 
ATOM      5  C   UNL     1       1.636  10.680  18.203  0.00  0.00    +0.000 A 
ATOM      6  C   UNL     1       0.866  10.749  19.344  0.00  0.00    +0.000 A 
ATOM      7  C   UNL     1       0.773   9.621  20.143  0.00  0.00    +0.000 A 
ATOM      8  C   UNL     1       1.445   8.419  19.815  0.00  0.00    +0.000 A 
ATOM      9  S   UNL     1       1.177   7.125  20.977  0.00  0.00    +0.000 S 
ATOM     10  C   UNL     1       2.096   5.819  20.340  0.00  0.00    +0.000 A 
ATOM     11  C   UNL     1       2.036   4.701  21.088  0.00  0.00    +0.000 A 
ATOM     12  N   UNL     1       2.695   3.551  20.754  0.00  0.00    +0.000 N 
ATOM     13  C   UNL     1       2.597   2.371  21.596  0.00  0.00    +0.000 C 
ATOM     14  C   UNL     1       3.470   3.470  19.618  0.00  0.00    +0.000 A 
ATOM     15  O   UNL     1       4.070   2.444  19.304  0.00  0.00    +0.000 OA
ATOM     16  C   UNL     1       3.550   4.707  18.772  0.00  0.00    +0.000 A 
ATOM     17  C   UNL     1       2.895   5.872  19.088  0.00  0.00    +0.000 A 
ENDROOT
BRANCH  16  18
ATOM     18  C   UNL     1       4.377   4.498  17.630  0.00  0.00    +0.000 C 
ATOM     19  N   UNL     1       5.050   4.295  16.703  0.00  0.00    +0.000 NA
ENDBRANCH  16  18
TORSDOF 1
ENDMDL
MODEL 4
REMARK VINA RESULT:      -5.7      1.443      3.212
REMARK  Name = 
REMARK  3 active torsions:
REMARK  status: ('A' for Active; 'I' for Inactive)
REMARK    1  A    between atoms: C_1  and  N_2
REMARK    2  A    between atoms: N_12  and  C_13
REMARK    3  A    between atoms: C_16  and  C_17
REMARK                            x       y       z     vdW  Elec       q    Type
REMARK                         _______ _______ _______ _____ _____    ______ ____
ROOT
ATOM      1  C   UNL     1       3.612   2.756  16.106  0.00  0.00    +0.000 C 
ATOM      2  N   UNL     1       3.703   3.707  17.234  0.00  0.00    +0.000 N 
ATOM      3  C   UNL     1       2.684   3.567  18.239  0.00  0.00    +0.000 A 
ATOM      4  C   UNL     1       1.657   2.590  18.171  0.00  0.00    +0.000 A 
ATOM      5  C   UNL     1       0.656   2.442  19.142  0.00  0.00    +0.000 A 
ATOM      6  C   UNL     1       0.632   3.272  20.240  0.00  0.00    +0.000 A 
ATOM      7  C   UNL     1       1.615   4.242  20.353  0.00  0.00    +0.000 A 
ATOM      8  C   UNL     1       2.627   4.394  19.374  0.00  0.00    +0.000 A 
ATOM      9  S   UNL     1       3.762   5.689  19.732  0.00  0.00    +0.000 S 
ATOM     10  C   UNL     1       4.851   5.644  18.402  0.00  0.00    +0.000 A 
ATOM     11  C   UNL     1       5.823   6.573  18.469  0.00  0.00    +0.000 A 
ATOM     12  N   UNL     1       6.790   6.705  17.510  0.00  0.00    +0.000 N 
ATOM     13  C   UNL     1       7.818   7.724  17.631  0.00  0.00    +0.000 C 
ATOM     14  C   UNL     1       6.823   5.882  16.405  0.00  0.00    +0.000 A 
ATOM     15  O   UNL     1       7.683   5.987  15.535  0.00  0.00    +0.000 OA
ATOM     16  C   UNL     1       5.746   4.840  16.313  0.00  0.00    +0.000 A 
ATOM     17  C   UNL     1       4.766   4.691  17.265  0.00  0.00    +0.000 A 
ENDROOT
BRANCH  16  18
ATOM     18  C   UNL     1       5.888   4.055  15.131  0.00  0.00    +0.000 C 
ATOM     19  N   UNL     1       6.022   3.438  14.155  0.00  0.00    +0.000 NA
ENDBRANCH  16  18
TORSDOF 1
ENDMDL
MODEL 5
REMARK VINA RESULT:      -5.7      2.892      5.812
REMARK  Name = 
REMARK  3 active torsions:
REMARK  status: ('A' for Active; 'I' for Inactive)
REMARK    1  A    between atoms: C_1  and  N_2
REMARK    2  A    between atoms: N_12  and  C_13
REMARK    3  A    between atoms: C_16  and  C_17
REMARK                            x       y       z     vdW  Elec       q    Type
REMARK                         _______ _______ _______ _____ _____    ______ ____
ROOT
ATOM      1  C   UNL     1       3.877   7.464  17.224  0.00  0.00    +0.000 C 
ATOM      2  N   UNL     1       4.007   5.998  17.371  0.00  0.00    +0.000 N 
ATOM      3  C   UNL     1       4.850   5.356  16.400  0.00  0.00    +0.000 A 
ATOM      4  C   UNL     1       5.521   6.061  15.367  0.00  0.00    +0.000 A 
ATOM      5  C   UNL     1       6.345   5.450  14.412  0.00  0.00    +0.000 A 
ATOM      6  C   UNL     1       6.543   4.087  14.442  0.00  0.00    +0.000 A 
ATOM      7  C   UNL     1       5.910   3.353  15.433  0.00  0.00    +0.000 A 
ATOM      8  C   UNL     1       5.077   3.969  16.399  0.00  0.00    +0.000 A 
ATOM      9  S   UNL     1       4.386   2.838  17.554  0.00  0.00    +0.000 S 
ATOM     10  C   UNL     1       3.439   3.842  18.580  0.00  0.00    +0.000 A 
ATOM     11  C   UNL     1       2.803   3.169  19.557  0.00  0.00    +0.000 A 
ATOM     12  N   UNL     1       2.000   3.783  20.478  0.00  0.00    +0.000 N 
ATOM     13  C   UNL     1       1.337   3.010  21.514  0.00  0.00    +0.000 C 
ATOM     14  C   UNL     1       1.793   5.145  20.456  0.00  0.00    +0.000 A 
ATOM     15  O   UNL     1       1.074   5.713  21.275  0.00  0.00    +0.000 OA
ATOM     16  C   UNL     1       2.493   5.913  19.372  0.00  0.00    +0.000 A 
ATOM     17  C   UNL     1       3.304   5.315  18.438  0.00  0.00    +0.000 A 
ENDROOT
BRANCH  16  18
ATOM     18  C   UNL     1       2.201   7.305  19.456  0.00  0.00    +0.000 C 
ATOM     19  N   UNL     1       1.931   8.435  19.523  0.00  0.00    +0.000 NA
ENDBRANCH  16  18
TORSDOF 1
ENDMDL
MODEL 6
REMARK VINA RESULT:      -5.7      3.055      6.193
REMARK  Name = 
REMARK  3 active torsions:
REMARK  status: ('A' for Active; 'I' for Inactive)
REMARK    1  A    between atoms: C_1  and  N_2
REMARK    2  A    between atoms: N_12  and  C_13
REMARK    3  A    between atoms: C_16  and  C_17
REMARK                            x       y       z     vdW  Elec       q    Type
REMARK                         _______ _______ _______ _____ _____    ______ ____
ROOT
ATOM      1  C   UNL     1       3.742   2.506  17.618  0.00  0.00    +0.000 C 
ATOM      2  N   UNL     1       3.987   3.952  17.435  0.00  0.00    +0.000 N 
ATOM      3  C   UNL     1       4.898   4.292  16.376  0.00  0.00    +0.000 A 
ATOM      4  C   UNL     1       5.526   3.322  15.552  0.00  0.00    +0.000 A 
ATOM      5  C   UNL     1       6.417   3.636  14.516  0.00  0.00    +0.000 A 
ATOM      6  C   UNL     1       6.728   4.951  14.250  0.00  0.00    +0.000 A 
ATOM      7  C   UNL     1       6.139   5.937  15.027  0.00  0.00    +0.000 A 
ATOM      8  C   UNL     1       5.239   5.621  16.073  0.00  0.00    +0.000 A 
ATOM      9  S   UNL     1       4.620   7.034  16.917  0.00  0.00    +0.000 S 
ATOM     10  C   UNL     1       3.579   6.363  18.110  0.00  0.00    +0.000 A 
ATOM     11  C   UNL     1       2.987   7.286  18.891  0.00  0.00    +0.000 A 
ATOM     12  N   UNL     1       2.122   6.959  19.899  0.00  0.00    +0.000 N 
ATOM     13  C   UNL     1       1.508   7.995  20.712  0.00  0.00    +0.000 C 
ATOM     14  C   UNL     1       1.805   5.648  20.177  0.00  0.00    +0.000 A 
ATOM     15  O   UNL     1       1.031   5.336  21.079  0.00  0.00    +0.000 OA
ATOM     16  C   UNL     1       2.457   4.604  19.317  0.00  0.00    +0.000 A 
ATOM     17  C   UNL     1       3.328   4.910  18.299  0.00  0.00    +0.000 A 
ENDROOT
BRANCH  16  18
ATOM     18  C   UNL     1       2.050   3.292  19.701  0.00  0.00    +0.000 C 
ATOM     19  N   UNL     1       1.709   2.234  20.042  0.00  0.00    +0.000 NA
ENDBRANCH  16  18
TORSDOF 1
ENDMDL
MODEL 7
REMARK VINA RESULT:      -5.6      3.416      6.143
REMARK  Name = 
REMARK  3 active torsions:
REMARK  status: ('A' for Active; 'I' for Inactive)
REMARK    1  A    between atoms: C_1  and  N_2
REMARK    2  A    between atoms: N_12  and  C_13
REMARK    3  A    between atoms: C_16  and  C_17
REMARK                            x       y       z     vdW  Elec       q    Type
REMARK                         _______ _______ _______ _____ _____    ______ ____
ROOT
ATOM      1  C   UNL     1       3.903   3.429  19.016  0.00  0.00    +0.000 C 
ATOM      2  N   UNL     1       3.921   4.716  18.289  0.00  0.00    +0.000 N 
ATOM      3  C   UNL     1       4.717   4.733  17.092  0.00  0.00    +0.000 A 
ATOM      4  C   UNL     1       5.441   3.606  16.625  0.00  0.00    +0.000 A 
ATOM      5  C   UNL     1       6.224   3.608  15.462  0.00  0.00    +0.000 A 
ATOM      6  C   UNL     1       6.322   4.750  14.699  0.00  0.00    +0.000 A 
ATOM      7  C   UNL     1       5.632   5.878  15.113  0.00  0.00    +0.000 A 
ATOM      8  C   UNL     1       4.842   5.878  16.287  0.00  0.00    +0.000 A 
ATOM      9  S   UNL     1       4.061   7.422  16.608  0.00  0.00    +0.000 S 
ATOM     10  C   UNL     1       3.192   7.135  18.064  0.00  0.00    +0.000 A 
ATOM     11  C   UNL     1       2.508   8.207  18.505  0.00  0.00    +0.000 A 
ATOM     12  N   UNL     1       1.752   8.187  19.644  0.00  0.00    +0.000 N 
ATOM     13  C   UNL     1       1.032   9.373  20.076  0.00  0.00    +0.000 C 
ATOM     14  C   UNL     1       1.648   7.051  20.417  0.00  0.00    +0.000 A 
ATOM     15  O   UNL     1       0.974   7.016  21.444  0.00  0.00    +0.000 OA
ATOM     16  C   UNL     1       2.405   5.845  19.942  0.00  0.00    +0.000 A 
ATOM     17  C   UNL     1       3.169   5.844  18.800  0.00  0.00    +0.000 A 
ENDROOT
BRANCH  16  18
ATOM     18  C   UNL     1       2.217   4.739  20.822  0.00  0.00    +0.000 C 
ATOM     19  N   UNL     1       2.055   3.857  21.563  0.00  0.00    +0.000 NA
ENDBRANCH  16  18
TORSDOF 1
ENDMDL
MODEL 8
REMARK VINA RESULT:      -5.5      3.586      4.658
REMARK  Name = 
REMARK  3 active torsions:
REMARK  status: ('A' for Active; 'I' for Inactive)
REMARK    1  A    between atoms: C_1  and  N_2
REMARK    2  A    between atoms: N_12  and  C_13
REMARK    3  A    between atoms: C_16  and  C_17
REMARK                            x       y       z     vdW  Elec       q    Type
REMARK                         _______ _______ _______ _____ _____    ______ ____
ROOT
ATOM      1  C   UNL     1       3.257   8.409  17.452  0.00  0.00    +0.000 C 
ATOM      2  N   UNL     1       2.745   7.558  18.547  0.00  0.00    +0.000 N 
ATOM      3  C   UNL     1       1.839   8.206  19.456  0.00  0.00    +0.000 A 
ATOM      4  C   UNL     1       1.451   9.565  19.327  0.00  0.00    +0.000 A 
ATOM      5  C   UNL     1       0.570  10.212  20.206  0.00  0.00    +0.000 A 
ATOM      6  C   UNL     1       0.027   9.524  21.269  0.00  0.00    +0.000 A 
ATOM      7  C   UNL     1       0.375   8.193  21.437  0.00  0.00    +0.000 A 
ATOM      8  C   UNL     1       1.264   7.539  20.551  0.00  0.00    +0.000 A 
ATOM      9  S   UNL     1       1.554   5.854  20.964  0.00  0.00    +0.000 S 
ATOM     10  C   UNL     1       2.648   5.326  19.747  0.00  0.00    +0.000 A 
ATOM     11  C   UNL     1       3.015   4.037  19.874  0.00  0.00    +0.000 A 
ATOM     12  N   UNL     1       3.878   3.424  19.008  0.00  0.00    +0.000 N 
ATOM     13  C   UNL     1       4.241   2.029  19.189  0.00  0.00    +0.000 C 
ATOM     14  C   UNL     1       4.430   4.102  17.943  0.00  0.00    +0.000 A 
ATOM     15  O   UNL     1       5.207   3.567  17.156  0.00  0.00    +0.000 OA
ATOM     16  C   UNL     1       4.033   5.541  17.786  0.00  0.00    +0.000 A 
ATOM     17  C   UNL     1       3.167   6.176  18.644  0.00  0.00    +0.000 A 
ENDROOT
BRANCH  16  18
ATOM     18  C   UNL     1       4.666   6.130  16.652  0.00  0.00    +0.000 C 
ATOM     19  N   UNL     1       5.206   6.620  15.746  0.00  0.00    +0.000 NA
ENDBRANCH  16  18
TORSDOF 1
ENDMDL
MODEL 9
REMARK VINA RESULT:      -5.5      9.898     11.496
REMARK  Name = 
REMARK  3 active torsions:
REMARK  status: ('A' for Active; 'I' for Inactive)
REMARK    1  A    between atoms: C_1  and  N_2
REMARK    2  A    between atoms: N_12  and  C_13
REMARK    3  A    between atoms: C_16  and  C_17
REMARK                            x       y       z     vdW  Elec       q    Type
REMARK                         _______ _______ _______ _____ _____    ______ ____
ROOT
ATOM      1  C   UNL     1      -0.280  10.475  18.900  0.00  0.00    +0.000 C 
ATOM      2  N   UNL     1      -1.623  11.090  18.960  0.00  0.00    +0.000 N 
ATOM      3  C   UNL     1      -2.438  10.900  17.791  0.00  0.00    +0.000 A 
ATOM      4  C   UNL     1      -2.003  10.176  16.651  0.00  0.00    +0.000 A 
ATOM      5  C   UNL     1      -2.784   9.984  15.503  0.00  0.00    +0.000 A 
ATOM      6  C   UNL     1      -4.055  10.512  15.437  0.00  0.00    +0.000 A 
ATOM      7  C   UNL     1      -4.527  11.227  16.527  0.00  0.00    +0.000 A 
ATOM      8  C   UNL     1      -3.739  11.422  17.687  0.00  0.00    +0.000 A 
ATOM      9  S   UNL     1      -4.548  12.358  18.937  0.00  0.00    +0.000 S 
ATOM     10  C   UNL     1      -3.380  12.438  20.196  0.00  0.00    +0.000 A 
ATOM     11  C   UNL     1      -3.796  13.127  21.275  0.00  0.00    +0.000 A 
ATOM     12  N   UNL     1      -3.018  13.307  22.385  0.00  0.00    +0.000 N 
ATOM     13  C   UNL     1      -3.515  14.058  23.524  0.00  0.00    +0.000 C 
ATOM     14  C   UNL     1      -1.744  12.786  22.461  0.00  0.00    +0.000 A 
ATOM     15  O   UNL     1      -1.031  12.938  23.450  0.00  0.00    +0.000 OA
ATOM     16  C   UNL     1      -1.262  12.015  21.267  0.00  0.00    +0.000 A 
ATOM     17  C   UNL     1      -2.029  11.823  20.143  0.00  0.00    +0.000 A 
ENDROOT
BRANCH  16  18
ATOM     18  C   UNL     1       0.063  11.529  21.467  0.00  0.00    +0.000 C 
ATOM     19  N   UNL     1       1.151  11.160  21.644  0.00  0.00    +0.000 NA
ENDBRANCH  16  18
TORSDOF 1
ENDMDL
