MODEL 1
REMARK VINA RESULT:      -8.7      0.000      0.000
REMARK  Name = 
REMARK  7 active torsions:
REMARK  status: ('A' for Active; 'I' for Inactive)
REMARK    1  A    between atoms: C_1  and  C_2
REMARK    2  A    between atoms: C_5  and  N_6
REMARK    3  A    between atoms: C_7  and  C_9
REMARK    4  A    between atoms: C_9  and  C_10
REMARK    5  A    between atoms: C_10  and  C_11
REMARK    6  A    between atoms: N_18  and  C_19
REMARK    7  A    between atoms: C_19  and  C_20
REMARK                            x       y       z     vdW  Elec       q    Type
REMARK                         _______ _______ _______ _____ _____    ______ ____
ROOT
ATOM      1  C   UNL     1       2.089   5.725  20.119  0.00  0.00    +0.000 A 
ATOM      2  N   UNL     1       0.987   5.178  20.597  0.00  0.00    +0.000 NA
ATOM      3  N   UNL     1       1.180   3.816  20.661  0.00  0.00    +0.000 NA
ATOM      4  C   UNL     1       2.392   3.563  20.220  0.00  0.00    +0.000 A 
ATOM      5  C   UNL     1       3.123   2.372  20.066  0.00  0.00    +0.000 A 
ATOM      6  C   UNL     1       4.362   2.433  19.566  0.00  0.00    +0.000 A 
ATOM      7  C   UNL     1       4.913   3.766  19.145  0.00  0.00    +0.000 A 
ATOM      8  N   UNL     1       6.154   3.784  18.564  0.00  0.00    +0.000 N 
ATOM      9  N   UNL     1       4.250   4.884  19.290  0.00  0.00    +0.000 NA
ATOM     10  N   UNL     1       3.010   4.736  19.845  0.00  0.00    +0.000 N 
ATOM     11  H   UNL     1       6.778   2.989  18.633  0.00  0.00    +0.000 HD
ENDROOT
BRANCH   1  12
ATOM     12  C   UNL     1       2.338   7.178  19.930  0.00  0.00    +0.000 C 
BRANCH  12  13
ATOM     13  C   UNL     1       2.234   7.602  18.472  0.00  0.00    +0.000 C 
BRANCH  13  15
ATOM     14  N   UNL     1       1.074   9.445  19.552  0.00  0.00    +0.000 N 
ATOM     15  C   UNL     1       1.688   9.008  18.394  0.00  0.00    +0.000 C 
ATOM     16  O   UNL     1       1.844   9.653  17.358  0.00  0.00    +0.000 OA
ATOM     17  H   UNL     1       1.009   8.787  20.319  0.00  0.00    +0.000 HD
BRANCH  14  22
ATOM     18  C   UNL     1      -1.479  14.535  20.286  0.00  0.00    +0.000 C 
ATOM     19  C   UNL     1      -0.804  13.211  20.112  0.00  0.00    +0.000 A 
ATOM     20  C   UNL     1       0.510  13.021  20.536  0.00  0.00    +0.000 A 
ATOM     21  C   UNL     1       1.141  11.785  20.363  0.00  0.00    +0.000 A 
ATOM     22  C   UNL     1       0.478  10.712  19.763  0.00  0.00    +0.000 A 
ATOM     23  C   UNL     1      -0.843  10.897  19.345  0.00  0.00    +0.000 A 
ATOM     24  C   UNL     1      -1.466  12.136  19.518  0.00  0.00    +0.000 A 
ATOM     25  F   UNL     1      -2.730  12.286  19.100  0.00  0.00    +0.000 F 
ENDBRANCH  14  22
ENDBRANCH  13  15
ENDBRANCH  12  13
ENDBRANCH   1  12
BRANCH   8  26
ATOM     26  C   UNL     1       6.671   4.891  17.783  0.00  0.00    +0.000 C 
BRANCH  26  27
ATOM     27  C   UNL     1       6.611   4.683  16.303  0.00  0.00    +0.000 A 
ATOM     28  C   UNL     1       5.870   3.834  15.504  0.00  0.00    +0.000 A 
ATOM     29  C   UNL     1       6.239   4.112  14.166  0.00  0.00    +0.000 A 
ATOM     30  C   UNL     1       7.184   5.109  14.228  0.00  0.00    +0.000 A 
ATOM     31  O   UNL     1       7.422   5.461  15.521  0.00  0.00    +0.000 OA
ENDBRANCH  26  27
ENDBRANCH   8  26
TORSDOF 6
ENDMDL
MODEL 2
REMARK VINA RESULT:      -8.7      1.725      2.169
REMARK  Name = 
REMARK  7 active torsions:
REMARK  status: ('A' for Active; 'I' for Inactive)
REMARK    1  A    between atoms: C_1  and  C_2
REMARK    2  A    between atoms: C_5  and  N_6
REMARK    3  A    between atoms: C_7  and  C_9
REMARK    4  A    between atoms: C_9  and  C_10
REMARK    5  A    between atoms: C_10  and  C_11
REMARK    6  A    between atoms: N_18  and  C_19
REMARK    7  A    between atoms: C_19  and  C_20
REMARK                            x       y       z     vdW  Elec       q    Type
REMARK                         _______ _______ _______ _____ _____    ______ ____
ROOT
ATOM      1  C   UNL     1       2.101   5.998  20.056  0.00  0.00    +0.000 A 
ATOM      2  N   UNL     1       1.050   5.436  20.623  0.00  0.00    +0.000 NA
ATOM      3  N   UNL     1       1.333   4.103  20.819  0.00  0.00    +0.000 NA
ATOM      4  C   UNL     1       2.547   3.882  20.367  0.00  0.00    +0.000 A 
ATOM      5  C   UNL     1       3.350   2.729  20.312  0.00  0.00    +0.000 A 
ATOM      6  C   UNL     1       4.570   2.816  19.768  0.00  0.00    +0.000 A 
ATOM      7  C   UNL     1       5.020   4.129  19.196  0.00  0.00    +0.000 A 
ATOM      8  N   UNL     1       6.242   4.164  18.577  0.00  0.00    +0.000 N 
ATOM      9  N   UNL     1       4.290   5.212  19.248  0.00  0.00    +0.000 NA
ATOM     10  N   UNL     1       3.077   5.046  19.854  0.00  0.00    +0.000 N 
ATOM     11  H   UNL     1       6.919   3.421  18.706  0.00  0.00    +0.000 HD
ENDROOT
BRANCH   1  12
ATOM     12  C   UNL     1       2.249   7.436  19.711  0.00  0.00    +0.000 C 
BRANCH  12  13
ATOM     13  C   UNL     1       1.818   8.355  20.845  0.00  0.00    +0.000 C 
BRANCH  13  15
ATOM     14  N   UNL     1       0.295   9.559  19.382  0.00  0.00    +0.000 N 
ATOM     15  C   UNL     1       0.425   8.872  20.574  0.00  0.00    +0.000 C 
ATOM     16  O   UNL     1      -0.469   8.633  21.385  0.00  0.00    +0.000 OA
ATOM     17  H   UNL     1       1.133   9.688  18.827  0.00  0.00    +0.000 HD
BRANCH  14  22
ATOM     18  C   UNL     1      -4.472  11.858  17.159  0.00  0.00    +0.000 C 
ATOM     19  C   UNL     1      -3.237  11.263  17.757  0.00  0.00    +0.000 A 
ATOM     20  C   UNL     1      -2.678  11.798  18.916  0.00  0.00    +0.000 A 
ATOM     21  C   UNL     1      -1.517  11.245  19.466  0.00  0.00    +0.000 A 
ATOM     22  C   UNL     1      -0.887  10.148  18.874  0.00  0.00    +0.000 A 
ATOM     23  C   UNL     1      -1.451   9.603  17.716  0.00  0.00    +0.000 A 
ATOM     24  C   UNL     1      -2.610  10.163  17.170  0.00  0.00    +0.000 A 
ATOM     25  F   UNL     1      -3.122   9.625  16.055  0.00  0.00    +0.000 F 
ENDBRANCH  14  22
ENDBRANCH  13  15
ENDBRANCH  12  13
ENDBRANCH   1  12
BRANCH   8  26
ATOM     26  C   UNL     1       6.666   5.214  17.670  0.00  0.00    +0.000 C 
BRANCH  26  27
ATOM     27  C   UNL     1       6.541   4.866  16.221  0.00  0.00    +0.000 A 
ATOM     28  C   UNL     1       5.636   4.097  15.515  0.00  0.00    +0.000 A 
ATOM     29  C   UNL     1       6.028   4.154  14.157  0.00  0.00    +0.000 A 
ATOM     30  C   UNL     1       7.150   4.949  14.115  0.00  0.00    +0.000 A 
ATOM     31  O   UNL     1       7.473   5.383  15.364  0.00  0.00    +0.000 OA
ENDBRANCH  26  27
ENDBRANCH   8  26
TORSDOF 6
ENDMDL
MODEL 3
REMARK VINA RESULT:      -8.6      1.157      1.701
REMARK  Name = 
REMARK  7 active torsions:
REMARK  status: ('A' for Active; 'I' for Inactive)
REMARK    1  A    between atoms: C_1  and  C_2
REMARK    2  A    between atoms: C_5  and  N_6
REMARK    3  A    between atoms: C_7  and  C_9
REMARK    4  A    between atoms: C_9  and  C_10
REMARK    5  A    between atoms: C_10  and  C_11
REMARK    6  A    between atoms: N_18  and  C_19
REMARK    7  A    between atoms: C_19  and  C_20
REMARK                            x       y       z     vdW  Elec       q    Type
REMARK                         _______ _______ _______ _____ _____    ______ ____
ROOT
ATOM      1  C   UNL     1       2.030   5.321  19.764  0.00  0.00    +0.000 A 
ATOM      2  N   UNL     1       1.014   4.785  20.414  0.00  0.00    +0.000 NA
ATOM      3  N   UNL     1       1.016   3.430  20.167  0.00  0.00    +0.000 NA
ATOM      4  C   UNL     1       2.030   3.171  19.372  0.00  0.00    +0.000 A 
ATOM      5  C   UNL     1       2.519   1.981  18.805  0.00  0.00    +0.000 A 
ATOM      6  C   UNL     1       3.591   2.037  18.006  0.00  0.00    +0.000 A 
ATOM      7  C   UNL     1       4.207   3.374  17.708  0.00  0.00    +0.000 A 
ATOM      8  N   UNL     1       5.254   3.406  16.824  0.00  0.00    +0.000 N 
ATOM      9  N   UNL     1       3.771   4.489  18.234  0.00  0.00    +0.000 NA
ATOM     10  N   UNL     1       2.700   4.337  19.069  0.00  0.00    +0.000 N 
ATOM     11  H   UNL     1       5.754   2.561  16.570  0.00  0.00    +0.000 HD
ENDROOT
BRANCH   1  12
ATOM     12  C   UNL     1       2.432   6.751  19.788  0.00  0.00    +0.000 C 
BRANCH  12  13
ATOM     13  C   UNL     1       2.510   7.359  18.395  0.00  0.00    +0.000 C 
BRANCH  13  15
ATOM     14  N   UNL     1       1.122   8.993  19.540  0.00  0.00    +0.000 N 
ATOM     15  C   UNL     1       1.855   8.720  18.401  0.00  0.00    +0.000 C 
ATOM     16  O   UNL     1       2.035   9.474  17.445  0.00  0.00    +0.000 OA
ATOM     17  H   UNL     1       1.055   8.260  20.235  0.00  0.00    +0.000 HD
BRANCH  14  22
ATOM     18  C   UNL     1      -1.889  13.783  20.515  0.00  0.00    +0.000 C 
ATOM     19  C   UNL     1      -1.097  12.536  20.280  0.00  0.00    +0.000 A 
ATOM     20  C   UNL     1       0.158  12.369  20.862  0.00  0.00    +0.000 A 
ATOM     21  C   UNL     1       0.899  11.205  20.631  0.00  0.00    +0.000 A 
ATOM     22  C   UNL     1       0.408  10.184  19.816  0.00  0.00    +0.000 A 
ATOM     23  C   UNL     1      -0.856  10.344  19.238  0.00  0.00    +0.000 A 
ATOM     24  C   UNL     1      -1.590  11.511  19.471  0.00  0.00    +0.000 A 
ATOM     25  F   UNL     1      -2.793  11.641  18.897  0.00  0.00    +0.000 F 
ENDBRANCH  14  22
ENDBRANCH  13  15
ENDBRANCH  12  13
ENDBRANCH   1  12
BRANCH   8  26
ATOM     26  C   UNL     1       5.716   4.605  16.152  0.00  0.00    +0.000 C 
BRANCH  26  27
ATOM     27  C   UNL     1       6.563   5.500  17.000  0.00  0.00    +0.000 A 
ATOM     28  C   UNL     1       7.302   5.283  18.147  0.00  0.00    +0.000 A 
ATOM     29  C   UNL     1       7.908   6.518  18.478  0.00  0.00    +0.000 A 
ATOM     30  C   UNL     1       7.500   7.415  17.519  0.00  0.00    +0.000 A 
ATOM     31  O   UNL     1       6.679   6.809  16.618  0.00  0.00    +0.000 OA
ENDBRANCH  26  27
ENDBRANCH   8  26
TORSDOF 6
ENDMDL
MODEL 4
REMARK VINA RESULT:      -8.6      1.007      1.328
REMARK  Name = 
REMARK  7 active torsions:
REMARK  status: ('A' for Active; 'I' for Inactive)
REMARK    1  A    between atoms: C_1  and  C_2
REMARK    2  A    between atoms: C_5  and  N_6
REMARK    3  A    between atoms: C_7  and  C_9
REMARK    4  A    between atoms: C_9  and  C_10
REMARK    5  A    between atoms: C_10  and  C_11
REMARK    6  A    between atoms: N_18  and  C_19
REMARK    7  A    between atoms: C_19  and  C_20
REMARK                            x       y       z     vdW  Elec       q    Type
REMARK                         _______ _______ _______ _____ _____    ______ ____
ROOT
ATOM      1  C   UNL     1       2.121   5.835  20.127  0.00  0.00    +0.000 A 
ATOM      2  N   UNL     1       1.049   5.283  20.665  0.00  0.00    +0.000 NA
ATOM      3  N   UNL     1       1.293   3.936  20.816  0.00  0.00    +0.000 NA
ATOM      4  C   UNL     1       2.504   3.696  20.365  0.00  0.00    +0.000 A 
ATOM      5  C   UNL     1       3.274   2.523  20.275  0.00  0.00    +0.000 A 
ATOM      6  C   UNL     1       4.500   2.594  19.745  0.00  0.00    +0.000 A 
ATOM      7  C   UNL     1       4.993   3.913  19.223  0.00  0.00    +0.000 A 
ATOM      8  N   UNL     1       6.221   3.936  18.615  0.00  0.00    +0.000 N 
ATOM      9  N   UNL     1       4.293   5.015  19.308  0.00  0.00    +0.000 NA
ATOM     10  N   UNL     1       3.071   4.862  19.899  0.00  0.00    +0.000 N 
ATOM     11  H   UNL     1       6.875   3.169  18.722  0.00  0.00    +0.000 HD
ENDROOT
BRANCH   1  12
ATOM     12  C   UNL     1       2.313   7.279  19.835  0.00  0.00    +0.000 C 
BRANCH  12  13
ATOM     13  C   UNL     1       2.041   7.620  18.377  0.00  0.00    +0.000 C 
BRANCH  13  15
ATOM     14  N   UNL     1       0.898   9.587  19.232  0.00  0.00    +0.000 N 
ATOM     15  C   UNL     1       1.738   9.094  18.252  0.00  0.00    +0.000 C 
ATOM     16  O   UNL     1       2.259   9.737  17.341  0.00  0.00    +0.000 OA
ATOM     17  H   UNL     1       0.535   8.925  19.908  0.00  0.00    +0.000 HD
BRANCH  14  22
ATOM     18  C   UNL     1      -0.820  15.022  19.917  0.00  0.00    +0.000 C 
ATOM     19  C   UNL     1      -0.378  13.607  19.720  0.00  0.00    +0.000 A 
ATOM     20  C   UNL     1      -1.071  12.758  18.858  0.00  0.00    +0.000 A 
ATOM     21  C   UNL     1      -0.660  11.432  18.684  0.00  0.00    +0.000 A 
ATOM     22  C   UNL     1       0.448  10.923  19.363  0.00  0.00    +0.000 A 
ATOM     23  C   UNL     1       1.152  11.775  20.220  0.00  0.00    +0.000 A 
ATOM     24  C   UNL     1       0.733  13.098  20.393  0.00  0.00    +0.000 A 
ATOM     25  F   UNL     1       1.421  13.888  21.227  0.00  0.00    +0.000 F 
ENDBRANCH  14  22
ENDBRANCH  13  15
ENDBRANCH  12  13
ENDBRANCH   1  12
BRANCH   8  26
ATOM     26  C   UNL     1       6.682   5.005  17.750  0.00  0.00    +0.000 C 
BRANCH  26  27
ATOM     27  C   UNL     1       6.496   4.740  16.289  0.00  0.00    +0.000 A 
ATOM     28  C   UNL     1       5.441   4.235  15.554  0.00  0.00    +0.000 A 
ATOM     29  C   UNL     1       5.854   4.236  14.200  0.00  0.00    +0.000 A 
ATOM     30  C   UNL     1       7.135   4.736  14.190  0.00  0.00    +0.000 A 
ATOM     31  O   UNL     1       7.537   5.042  15.454  0.00  0.00    +0.000 OA
ENDBRANCH  26  27
ENDBRANCH   8  26
TORSDOF 6
ENDMDL
MODEL 5
REMARK VINA RESULT:      -8.5      1.821      2.250
REMARK  Name = 
REMARK  7 active torsions:
REMARK  status: ('A' for Active; 'I' for Inactive)
REMARK    1  A    between atoms: C_1  and  C_2
REMARK    2  A    between atoms: C_5  and  N_6
REMARK    3  A    between atoms: C_7  and  C_9
REMARK    4  A    between atoms: C_9  and  C_10
REMARK    5  A    between atoms: C_10  and  C_11
REMARK    6  A    between atoms: N_18  and  C_19
REMARK    7  A    between atoms: C_19  and  C_20
REMARK                            x       y       z     vdW  Elec       q    Type
REMARK                         _______ _______ _______ _____ _____    ______ ____
ROOT
ATOM      1  C   UNL     1       2.157   5.260  19.835  0.00  0.00    +0.000 A 
ATOM      2  N   UNL     1       1.149   4.706  20.484  0.00  0.00    +0.000 NA
ATOM      3  N   UNL     1       1.113   3.370  20.155  0.00  0.00    +0.000 NA
ATOM      4  C   UNL     1       2.095   3.139  19.312  0.00  0.00    +0.000 A 
ATOM      5  C   UNL     1       2.537   1.976  18.657  0.00  0.00    +0.000 A 
ATOM      6  C   UNL     1       3.584   2.059  17.828  0.00  0.00    +0.000 A 
ATOM      7  C   UNL     1       4.221   3.398  17.592  0.00  0.00    +0.000 A 
ATOM      8  N   UNL     1       5.240   3.463  16.678  0.00  0.00    +0.000 N 
ATOM      9  N   UNL     1       3.828   4.487  18.200  0.00  0.00    +0.000 NA
ATOM     10  N   UNL     1       2.781   4.307  19.059  0.00  0.00    +0.000 N 
ATOM     11  H   UNL     1       5.712   2.625  16.356  0.00  0.00    +0.000 HD
ENDROOT
BRANCH   1  12
ATOM     12  C   UNL     1       2.593   6.677  19.933  0.00  0.00    +0.000 C 
BRANCH  12  13
ATOM     13  C   UNL     1       2.308   7.465  18.663  0.00  0.00    +0.000 C 
BRANCH  13  15
ATOM     14  N   UNL     1       1.370   8.922  20.367  0.00  0.00    +0.000 N 
ATOM     15  C   UNL     1       1.603   8.753  19.016  0.00  0.00    +0.000 C 
ATOM     16  O   UNL     1       1.321   9.546  18.118  0.00  0.00    +0.000 OA
ATOM     17  H   UNL     1       1.648   8.168  20.984  0.00  0.00    +0.000 HD
BRANCH  14  22
ATOM     18  C   UNL     1      -1.338  13.288  22.929  0.00  0.00    +0.000 C 
ATOM     19  C   UNL     1      -0.616  12.162  22.260  0.00  0.00    +0.000 A 
ATOM     20  C   UNL     1       0.292  12.409  21.232  0.00  0.00    +0.000 A 
ATOM     21  C   UNL     1       0.958  11.353  20.602  0.00  0.00    +0.000 A 
ATOM     22  C   UNL     1       0.733  10.028  20.980  0.00  0.00    +0.000 A 
ATOM     23  C   UNL     1      -0.170   9.777  22.018  0.00  0.00    +0.000 A 
ATOM     24  C   UNL     1      -0.834  10.838  22.641  0.00  0.00    +0.000 A 
ATOM     25  F   UNL     1      -1.701  10.566  23.626  0.00  0.00    +0.000 F 
ENDBRANCH  14  22
ENDBRANCH  13  15
ENDBRANCH  12  13
ENDBRANCH   1  12
BRANCH   8  26
ATOM     26  C   UNL     1       5.709   4.691  16.066  0.00  0.00    +0.000 C 
BRANCH  26  27
ATOM     27  C   UNL     1       6.555   5.542  16.959  0.00  0.00    +0.000 A 
ATOM     28  C   UNL     1       7.240   5.281  18.130  0.00  0.00    +0.000 A 
ATOM     29  C   UNL     1       7.878   6.488  18.503  0.00  0.00    +0.000 A 
ATOM     30  C   UNL     1       7.541   7.413  17.543  0.00  0.00    +0.000 A 
ATOM     31  O   UNL     1       6.733   6.851  16.602  0.00  0.00    +0.000 OA
ENDBRANCH  26  27
ENDBRANCH   8  26
TORSDOF 6
ENDMDL
MODEL 6
REMARK VINA RESULT:      -8.4      1.065      1.188
REMARK  Name = 
REMARK  7 active torsions:
REMARK  status: ('A' for Active; 'I' for Inactive)
REMARK    1  A    between atoms: C_1  and  C_2
REMARK    2  A    between atoms: C_5  and  N_6
REMARK    3  A    between atoms: C_7  and  C_9
REMARK    4  A    between atoms: C_9  and  C_10
REMARK    5  A    between atoms: C_10  and  C_11
REMARK    6  A    between atoms: N_18  and  C_19
REMARK    7  A    between atoms: C_19  and  C_20
REMARK                            x       y       z     vdW  Elec       q    Type
REMARK                         _______ _______ _______ _____ _____    ______ ____
ROOT
ATOM      1  C   UNL     1       2.115   5.340  19.668  0.00  0.00    +0.000 A 
ATOM      2  N   UNL     1       1.109   4.773  20.309  0.00  0.00    +0.000 NA
ATOM      3  N   UNL     1       1.129   3.425  20.029  0.00  0.00    +0.000 NA
ATOM      4  C   UNL     1       2.142   3.200  19.223  0.00  0.00    +0.000 A 
ATOM      5  C   UNL     1       2.644   2.031  18.623  0.00  0.00    +0.000 A 
ATOM      6  C   UNL     1       3.711   2.123  17.821  0.00  0.00    +0.000 A 
ATOM      7  C   UNL     1       4.307   3.474  17.553  0.00  0.00    +0.000 A 
ATOM      8  N   UNL     1       5.349   3.543  16.665  0.00  0.00    +0.000 N 
ATOM      9  N   UNL     1       3.858   4.570  18.109  0.00  0.00    +0.000 NA
ATOM     10  N   UNL     1       2.794   4.382  18.945  0.00  0.00    +0.000 N 
ATOM     11  H   UNL     1       5.859   2.712  16.387  0.00  0.00    +0.000 HD
ENDROOT
BRANCH   1  12
ATOM     12  C   UNL     1       2.497   6.774  19.725  0.00  0.00    +0.000 C 
BRANCH  12  13
ATOM     13  C   UNL     1       2.542   7.422  18.349  0.00  0.00    +0.000 C 
BRANCH  13  15
ATOM     14  N   UNL     1       1.136   8.994  19.556  0.00  0.00    +0.000 N 
ATOM     15  C   UNL     1       1.863   8.770  18.403  0.00  0.00    +0.000 C 
ATOM     16  O   UNL     1       2.019   9.556  17.470  0.00  0.00    +0.000 OA
ATOM     17  H   UNL     1       1.089   8.238  20.230  0.00  0.00    +0.000 HD
BRANCH  14  22
ATOM     18  C   UNL     1      -1.944  13.703  20.698  0.00  0.00    +0.000 C 
ATOM     19  C   UNL     1      -1.135  12.476  20.419  0.00  0.00    +0.000 A 
ATOM     20  C   UNL     1       0.083  12.264  21.063  0.00  0.00    +0.000 A 
ATOM     21  C   UNL     1       0.840  11.120  20.793  0.00  0.00    +0.000 A 
ATOM     22  C   UNL     1       0.402  10.162  19.876  0.00  0.00    +0.000 A 
ATOM     23  C   UNL     1      -0.824  10.367  19.236  0.00  0.00    +0.000 A 
ATOM     24  C   UNL     1      -1.574  11.514  19.508  0.00  0.00    +0.000 A 
ATOM     25  F   UNL     1      -2.741  11.688  18.873  0.00  0.00    +0.000 F 
ENDBRANCH  14  22
ENDBRANCH  13  15
ENDBRANCH  12  13
ENDBRANCH   1  12
BRANCH   8  26
ATOM     26  C   UNL     1       5.791   4.765  16.021  0.00  0.00    +0.000 C 
BRANCH  26  27
ATOM     27  C   UNL     1       6.330   4.574  14.638  0.00  0.00    +0.000 A 
ATOM     28  C   UNL     1       5.929   3.787  13.576  0.00  0.00    +0.000 A 
ATOM     29  C   UNL     1       6.830   4.049  12.516  0.00  0.00    +0.000 A 
ATOM     30  C   UNL     1       7.727   4.974  12.995  0.00  0.00    +0.000 A 
ATOM     31  O   UNL     1       7.436   5.297  14.285  0.00  0.00    +0.000 OA
ENDBRANCH  26  27
ENDBRANCH   8  26
TORSDOF 6
ENDMDL
MODEL 7
REMARK VINA RESULT:      -8.3      5.520      7.745
REMARK  Name = 
REMARK  7 active torsions:
REMARK  status: ('A' for Active; 'I' for Inactive)
REMARK    1  A    between atoms: C_1  and  C_2
REMARK    2  A    between atoms: C_5  and  N_6
REMARK    3  A    between atoms: C_7  and  C_9
REMARK    4  A    between atoms: C_9  and  C_10
REMARK    5  A    between atoms: C_10  and  C_11
REMARK    6  A    between atoms: N_18  and  C_19
REMARK    7  A    between atoms: C_19  and  C_20
REMARK                            x       y       z     vdW  Elec       q    Type
REMARK                         _______ _______ _______ _____ _____    ______ ____
ROOT
ATOM      1  C   UNL     1       6.899   6.718  17.038  0.00  0.00    +0.000 A 
ATOM      2  N   UNL     1       7.763   6.009  16.334  0.00  0.00    +0.000 NA
ATOM      3  N   UNL     1       7.177   4.800  16.034  0.00  0.00    +0.000 NA
ATOM      4  C   UNL     1       5.974   4.797  16.562  0.00  0.00    +0.000 A 
ATOM      5  C   UNL     1       4.938   3.846  16.571  0.00  0.00    +0.000 A 
ATOM      6  C   UNL     1       3.803   4.132  17.219  0.00  0.00    +0.000 A 
ATOM      7  C   UNL     1       3.692   5.439  17.951  0.00  0.00    +0.000 A 
ATOM      8  N   UNL     1       2.548   5.668  18.670  0.00  0.00    +0.000 N 
ATOM      9  N   UNL     1       4.642   6.338  17.944  0.00  0.00    +0.000 NA
ATOM     10  N   UNL     1       5.749   5.983  17.226  0.00  0.00    +0.000 N 
ATOM     11  H   UNL     1       1.715   5.108  18.526  0.00  0.00    +0.000 HD
ENDROOT
BRANCH   1  12
ATOM     12  C   UNL     1       7.097   8.106  17.531  0.00  0.00    +0.000 C 
BRANCH  12  13
ATOM     13  C   UNL     1       8.420   8.282  18.262  0.00  0.00    +0.000 C 
BRANCH  13  15
ATOM     14  N   UNL     1       9.258  10.012  19.749  0.00  0.00    +0.000 N 
ATOM     15  C   UNL     1       8.656   9.748  18.534  0.00  0.00    +0.000 C 
ATOM     16  O   UNL     1       8.336  10.574  17.679  0.00  0.00    +0.000 OA
ATOM     17  H   UNL     1       9.447   9.222  20.354  0.00  0.00    +0.000 HD
BRANCH  14  22
ATOM     18  C   UNL     1      10.476  15.180  21.932  0.00  0.00    +0.000 C 
ATOM     19  C   UNL     1      10.178  13.831  21.358  0.00  0.00    +0.000 A 
ATOM     20  C   UNL     1      10.850  13.375  20.226  0.00  0.00    +0.000 A 
ATOM     21  C   UNL     1      10.562  12.117  19.687  0.00  0.00    +0.000 A 
ATOM     22  C   UNL     1       9.598  11.287  20.262  0.00  0.00    +0.000 A 
ATOM     23  C   UNL     1       8.928  11.738  21.404  0.00  0.00    +0.000 A 
ATOM     24  C   UNL     1       9.219  12.998  21.936  0.00  0.00    +0.000 A 
ATOM     25  F   UNL     1       8.555  13.407  23.025  0.00  0.00    +0.000 F 
ENDBRANCH  14  22
ENDBRANCH  13  15
ENDBRANCH  12  13
ENDBRANCH   1  12
BRANCH   8  26
ATOM     26  C   UNL     1       2.424   6.676  19.705  0.00  0.00    +0.000 C 
BRANCH  26  27
ATOM     27  C   UNL     1       1.914   7.997  19.223  0.00  0.00    +0.000 A 
ATOM     28  C   UNL     1       1.937   8.618  17.990  0.00  0.00    +0.000 A 
ATOM     29  C   UNL     1       1.278   9.860  18.149  0.00  0.00    +0.000 A 
ATOM     30  C   UNL     1       0.897   9.925  19.469  0.00  0.00    +0.000 A 
ATOM     31  O   UNL     1       1.282   8.801  20.132  0.00  0.00    +0.000 OA
ENDBRANCH  26  27
ENDBRANCH   8  26
TORSDOF 6
ENDMDL
MODEL 8
REMARK VINA RESULT:      -8.3      1.390      1.746
REMARK  Name = 
REMARK  7 active torsions:
REMARK  status: ('A' for Active; 'I' for Inactive)
REMARK    1  A    between atoms: C_1  and  C_2
REMARK    2  A    between atoms: C_5  and  N_6
REMARK    3  A    between atoms: C_7  and  C_9
REMARK    4  A    between atoms: C_9  and  C_10
REMARK    5  A    between atoms: C_10  and  C_11
REMARK    6  A    between atoms: N_18  and  C_19
REMARK    7  A    between atoms: C_19  and  C_20
REMARK                            x       y       z     vdW  Elec       q    Type
REMARK                         _______ _______ _______ _____ _____    ______ ____
ROOT
ATOM      1  C   UNL     1       2.257   5.497  19.572  0.00  0.00    +0.000 A 
ATOM      2  N   UNL     1       1.267   4.964  20.264  0.00  0.00    +0.000 NA
ATOM      3  N   UNL     1       1.255   3.610  20.018  0.00  0.00    +0.000 NA
ATOM      4  C   UNL     1       2.233   3.347  19.181  0.00  0.00    +0.000 A 
ATOM      5  C   UNL     1       2.693   2.154  18.594  0.00  0.00    +0.000 A 
ATOM      6  C   UNL     1       3.731   2.207  17.751  0.00  0.00    +0.000 A 
ATOM      7  C   UNL     1       4.339   3.541  17.427  0.00  0.00    +0.000 A 
ATOM      8  N   UNL     1       5.348   3.570  16.500  0.00  0.00    +0.000 N 
ATOM      9  N   UNL     1       3.929   4.658  17.971  0.00  0.00    +0.000 NA
ATOM     10  N   UNL     1       2.894   4.510  18.850  0.00  0.00    +0.000 N 
ATOM     11  H   UNL     1       5.834   2.723  16.225  0.00  0.00    +0.000 HD
ENDROOT
BRANCH   1  12
ATOM     12  C   UNL     1       2.665   6.926  19.579  0.00  0.00    +0.000 C 
BRANCH  12  13
ATOM     13  C   UNL     1       2.616   7.553  18.194  0.00  0.00    +0.000 C 
BRANCH  13  15
ATOM     14  N   UNL     1       1.005   8.973  19.333  0.00  0.00    +0.000 N 
ATOM     15  C   UNL     1       1.870   8.865  18.260  0.00  0.00    +0.000 C 
ATOM     16  O   UNL     1       2.094   9.724  17.409  0.00  0.00    +0.000 OA
ATOM     17  H   UNL     1       0.918   8.168  19.942  0.00  0.00    +0.000 HD
BRANCH  14  22
ATOM     18  C   UNL     1      -2.238  13.490  20.760  0.00  0.00    +0.000 C 
ATOM     19  C   UNL     1      -1.398  12.316  20.369  0.00  0.00    +0.000 A 
ATOM     20  C   UNL     1      -1.774  11.493  19.310  0.00  0.00    +0.000 A 
ATOM     21  C   UNL     1      -0.991  10.390  18.953  0.00  0.00    +0.000 A 
ATOM     22  C   UNL     1       0.183  10.083  19.644  0.00  0.00    +0.000 A 
ATOM     23  C   UNL     1       0.569  10.913  20.701  0.00  0.00    +0.000 A 
ATOM     24  C   UNL     1      -0.220  12.012  21.053  0.00  0.00    +0.000 A 
ATOM     25  F   UNL     1       0.170  12.784  22.076  0.00  0.00    +0.000 F 
ENDBRANCH  14  22
ENDBRANCH  13  15
ENDBRANCH  12  13
ENDBRANCH   1  12
BRANCH   8  26
ATOM     26  C   UNL     1       5.786   4.767  15.809  0.00  0.00    +0.000 C 
BRANCH  26  27
ATOM     27  C   UNL     1       6.288   4.530  14.420  0.00  0.00    +0.000 A 
ATOM     28  C   UNL     1       5.882   3.682  13.408  0.00  0.00    +0.000 A 
ATOM     29  C   UNL     1       6.741   3.923  12.309  0.00  0.00    +0.000 A 
ATOM     30  C   UNL     1       7.621   4.898  12.716  0.00  0.00    +0.000 A 
ATOM     31  O   UNL     1       7.359   5.271  13.999  0.00  0.00    +0.000 OA
ENDBRANCH  26  27
ENDBRANCH   8  26
TORSDOF 6
ENDMDL
MODEL 9
REMARK VINA RESULT:      -8.3      5.153      7.858
REMARK  Name = 
REMARK  7 active torsions:
REMARK  status: ('A' for Active; 'I' for Inactive)
REMARK    1  A    between atoms: C_1  and  C_2
REMARK    2  A    between atoms: C_5  and  N_6
REMARK    3  A    between atoms: C_7  and  C_9
REMARK    4  A    between atoms: C_9  and  C_10
REMARK    5  A    between atoms: C_10  and  C_11
REMARK    6  A    between atoms: N_18  and  C_19
REMARK    7  A    between atoms: C_19  and  C_20
REMARK                            x       y       z     vdW  Elec       q    Type
REMARK                         _______ _______ _______ _____ _____    ______ ____
ROOT
ATOM      1  C   UNL     1       6.098   5.611  18.194  0.00  0.00    +0.000 A 
ATOM      2  N   UNL     1       6.479   4.454  18.704  0.00  0.00    +0.000 NA
ATOM      3  N   UNL     1       5.362   3.815  19.194  0.00  0.00    +0.000 NA
ATOM      4  C   UNL     1       4.327   4.595  18.975  0.00  0.00    +0.000 A 
ATOM      5  C   UNL     1       2.954   4.460  19.250  0.00  0.00    +0.000 A 
ATOM      6  C   UNL     1       2.126   5.454  18.909  0.00  0.00    +0.000 A 
ATOM      7  C   UNL     1       2.696   6.696  18.287  0.00  0.00    +0.000 A 
ATOM      8  N   UNL     1       1.832   7.727  18.023  0.00  0.00    +0.000 N 
ATOM      9  N   UNL     1       3.968   6.834  18.016  0.00  0.00    +0.000 NA
ATOM     10  N   UNL     1       4.737   5.757  18.358  0.00  0.00    +0.000 N 
ATOM     11  H   UNL     1       0.828   7.582  18.013  0.00  0.00    +0.000 HD
ENDROOT
BRANCH   1  12
ATOM     12  C   UNL     1       6.971   6.602  17.514  0.00  0.00    +0.000 C 
BRANCH  12  13
ATOM     13  C   UNL     1       8.095   7.100  18.410  0.00  0.00    +0.000 C 
BRANCH  13  15
ATOM     14  N   UNL     1       9.119   9.177  19.148  0.00  0.00    +0.000 N 
ATOM     15  C   UNL     1       8.241   8.595  18.253  0.00  0.00    +0.000 C 
ATOM     16  O   UNL     1       7.619   9.166  17.359  0.00  0.00    +0.000 OA
ATOM     17  H   UNL     1       9.545   8.572  19.840  0.00  0.00    +0.000 HD
BRANCH  14  22
ATOM     18  C   UNL     1      10.533  14.739  19.309  0.00  0.00    +0.000 C 
ATOM     19  C   UNL     1      10.151  13.293  19.282  0.00  0.00    +0.000 A 
ATOM     20  C   UNL     1       9.813  12.623  20.456  0.00  0.00    +0.000 A 
ATOM     21  C   UNL     1       9.467  11.269  20.428  0.00  0.00    +0.000 A 
ATOM     22  C   UNL     1       9.449  10.551  19.231  0.00  0.00    +0.000 A 
ATOM     23  C   UNL     1       9.778  11.223  18.049  0.00  0.00    +0.000 A 
ATOM     24  C   UNL     1      10.127  12.576  18.085  0.00  0.00    +0.000 A 
ATOM     25  F   UNL     1      10.445  13.190  16.938  0.00  0.00    +0.000 F 
ENDBRANCH  14  22
ENDBRANCH  13  15
ENDBRANCH  12  13
ENDBRANCH   1  12
BRANCH   8  26
ATOM     26  C   UNL     1       2.246   9.095  17.777  0.00  0.00    +0.000 C 
BRANCH  26  27
ATOM     27  C   UNL     1       1.333  10.130  18.355  0.00  0.00    +0.000 A 
ATOM     28  C   UNL     1       0.036  10.079  18.826  0.00  0.00    +0.000 A 
ATOM     29  C   UNL     1      -0.287  11.384  19.266  0.00  0.00    +0.000 A 
ATOM     30  C   UNL     1       0.828  12.154  19.033  0.00  0.00    +0.000 A 
ATOM     31  O   UNL     1       1.818  11.404  18.475  0.00  0.00    +0.000 OA
ENDBRANCH  26  27
ENDBRANCH   8  26
TORSDOF 6
ENDMDL
