MODEL 1
REMARK VINA RESULT:      -8.4      0.000      0.000
REMARK  Name = 
REMARK  10 active torsions:
REMARK  status: ('A' for Active; 'I' for Inactive)
REMARK    1  A    between atoms: C_1  and  O_2
REMARK    2  A    between atoms: O_2  and  C_3
REMARK    3  A    between atoms: C_8  and  C_9
REMARK    4  A    between atoms: C_12  and  C_13
REMARK    5  A    between atoms: C_13  and  CA_14
REMARK    6  A    between atoms: CA_14  and  N_15
REMARK    7  A    between atoms: CA_14  and  C_30
REMARK    8  A    between atoms: C_16  and  C_18
REMARK    9  A    between atoms: C_18  and  C_19
REMARK   10  A    between atoms: C_30  and  OXT_32
REMARK                            x       y       z     vdW  Elec       q    Type
REMARK                         _______ _______ _______ _____ _____    ______ ____
ROOT
ATOM      1  CA  UNL     1       6.840   6.295  17.635  0.00  0.00    +0.000 C 
ENDROOT
BRANCH   1   2
ATOM      2  N   UNL     1       5.556   6.001  18.304  0.00  0.00    +0.000 N 
ATOM      3  C   UNL     1       4.428   5.558  17.648  0.00  0.00    +0.000 C 
ATOM      4  O   UNL     1       4.430   5.273  16.456  0.00  0.00    +0.000 OA
ATOM      5  H   UNL     1       5.432   6.386  19.230  0.00  0.00    +0.000 HD
BRANCH   3   6
ATOM      6  C   UNL     1       3.140   5.419  18.497  0.00  0.00    +0.000 C 
ATOM      7  C   UNL     1       2.163   4.427  17.827  0.00  0.00    +0.000 C 
ATOM      8  C   UNL     1       1.349   3.817  18.968  0.00  0.00    +0.000 C 
ATOM      9  C   UNL     1       2.243   3.870  20.199  0.00  0.00    +0.000 C 
ATOM     10  C   UNL     1       3.505   4.606  19.772  0.00  0.00    +0.000 C 
BRANCH   6  11
ATOM     11  C   UNL     1       2.552   6.789  18.874  0.00  0.00    +0.000 A 
ATOM     12  C   UNL     1       2.069   7.018  20.173  0.00  0.00    +0.000 A 
ATOM     13  C   UNL     1       1.492   8.238  20.528  0.00  0.00    +0.000 A 
ATOM     14  C   UNL     1       1.403   9.256  19.586  0.00  0.00    +0.000 A 
ATOM     15  N   UNL     1       1.880   9.079  18.305  0.00  0.00    +0.000 N 
ATOM     16  O   UNL     1       1.805  10.011  17.445  0.00  0.00    +0.000 OA
ATOM     17  C   UNL     1       2.448   7.854  17.966  0.00  0.00    +0.000 A 
ENDBRANCH   6  11
ENDBRANCH   3   6
ENDBRANCH   1   2
BRANCH   1  18
ATOM     18  C   UNL     1       7.473   5.269  16.641  0.00  0.00    +0.000 C 
ATOM     19  O   UNL     1       8.086   4.237  16.903  0.00  0.00    +0.000 OA
BRANCH  18  20
ATOM     20  OXT UNL     1       7.381   5.660  15.339  0.00  0.00    +0.000 OA
ATOM     21  HXT UNL     1       8.033   5.273  14.733  0.00  0.00    +0.000 HD
ENDBRANCH  18  20
ENDBRANCH   1  18
BRANCH   1  22
ATOM     22  C   UNL     1       7.903   6.754  18.676  0.00  0.00    +0.000 C 
BRANCH  22  26
ATOM     23  C   UNL     1       9.233  10.864  18.171  0.00  0.00    +0.000 A 
ATOM     24  C   UNL     1       8.359  10.255  17.265  0.00  0.00    +0.000 A 
ATOM     25  C   UNL     1       7.840   8.978  17.503  0.00  0.00    +0.000 A 
ATOM     26  C   UNL     1       8.233   8.231  18.605  0.00  0.00    +0.000 A 
ATOM     27  C   UNL     1       8.984   8.873  19.589  0.00  0.00    +0.000 A 
ATOM     28  C   UNL     1       9.471  10.173  19.376  0.00  0.00    +0.000 A 
BRANCH  23  34
ATOM     29  C   UNL     1       9.178  13.424  18.026  0.00  0.00    +0.000 A 
ATOM     30  C   UNL     1       9.851  14.631  17.787  0.00  0.00    +0.000 A 
ATOM     31  C   UNL     1      11.174  14.633  17.348  0.00  0.00    +0.000 A 
ATOM     32  C   UNL     1      11.839  13.431  17.149  0.00  0.00    +0.000 A 
ATOM     33  C   UNL     1      11.188  12.224  17.416  0.00  0.00    +0.000 A 
ATOM     34  C   UNL     1       9.855  12.183  17.871  0.00  0.00    +0.000 A 
BRANCH  29  36
ATOM     35  C   UNL     1       6.917  14.146  17.710  0.00  0.00    +0.000 C 
ATOM     36  O   UNL     1       7.870  13.392  18.452  0.00  0.00    +0.000 OA
ENDBRANCH  29  36
ENDBRANCH  23  34
ENDBRANCH  22  26
ENDBRANCH   1  22
TORSDOF 9
ENDMDL
MODEL 2
REMARK VINA RESULT:      -8.3      4.794      7.487
REMARK  Name = 
REMARK  10 active torsions:
REMARK  status: ('A' for Active; 'I' for Inactive)
REMARK    1  A    between atoms: C_1  and  O_2
REMARK    2  A    between atoms: O_2  and  C_3
REMARK    3  A    between atoms: C_8  and  C_9
REMARK    4  A    between atoms: C_12  and  C_13
REMARK    5  A    between atoms: C_13  and  CA_14
REMARK    6  A    between atoms: CA_14  and  N_15
REMARK    7  A    between atoms: CA_14  and  C_30
REMARK    8  A    between atoms: C_16  and  C_18
REMARK    9  A    between atoms: C_18  and  C_19
REMARK   10  A    between atoms: C_30  and  OXT_32
REMARK                            x       y       z     vdW  Elec       q    Type
REMARK                         _______ _______ _______ _____ _____    ______ ____
ROOT
ATOM      1  CA  UNL     1       1.413   8.739  20.931  0.00  0.00    +0.000 C 
ENDROOT
BRANCH   1   2
ATOM      2  N   UNL     1       1.830   7.375  20.545  0.00  0.00    +0.000 N 
ATOM      3  C   UNL     1       2.386   7.054  19.326  0.00  0.00    +0.000 C 
ATOM      4  O   UNL     1       2.676   7.903  18.492  0.00  0.00    +0.000 OA
ATOM      5  H   UNL     1       1.454   6.616  21.097  0.00  0.00    +0.000 HD
BRANCH   3   6
ATOM      6  C   UNL     1       2.649   5.552  19.056  0.00  0.00    +0.000 C 
ATOM      7  C   UNL     1       2.203   4.705  20.269  0.00  0.00    +0.000 C 
ATOM      8  C   UNL     1       1.815   3.341  19.700  0.00  0.00    +0.000 C 
ATOM      9  C   UNL     1       1.364   3.595  18.267  0.00  0.00    +0.000 C 
ATOM     10  C   UNL     1       1.605   5.075  18.006  0.00  0.00    +0.000 C 
BRANCH   6  11
ATOM     11  C   UNL     1       4.080   5.302  18.554  0.00  0.00    +0.000 A 
ATOM     12  C   UNL     1       4.307   4.942  17.215  0.00  0.00    +0.000 A 
ATOM     13  C   UNL     1       5.593   4.669  16.745  0.00  0.00    +0.000 A 
ATOM     14  C   UNL     1       6.676   4.766  17.610  0.00  0.00    +0.000 A 
ATOM     15  N   UNL     1       6.499   5.133  18.926  0.00  0.00    +0.000 N 
ATOM     16  O   UNL     1       7.489   5.229  19.717  0.00  0.00    +0.000 OA
ATOM     17  C   UNL     1       5.210   5.397  19.380  0.00  0.00    +0.000 A 
ENDBRANCH   6  11
ENDBRANCH   3   6
ENDBRANCH   1   2
BRANCH   1  18
ATOM     18  C   UNL     1       1.276   9.133  22.436  0.00  0.00    +0.000 C 
ATOM     19  O   UNL     1       0.247   9.351  23.073  0.00  0.00    +0.000 OA
BRANCH  18  20
ATOM     20  OXT UNL     1       2.476   9.330  23.049  0.00  0.00    +0.000 OA
ATOM     21  HXT UNL     1       2.478   9.241  24.016  0.00  0.00    +0.000 HD
ENDBRANCH  18  20
ENDBRANCH   1  18
BRANCH   1  22
ATOM     22  C   UNL     1       0.133   9.157  20.151  0.00  0.00    +0.000 C 
BRANCH  22  26
ATOM     23  C   UNL     1       0.427  13.420  19.335  0.00  0.00    +0.000 A 
ATOM     24  C   UNL     1       1.261  12.489  18.709  0.00  0.00    +0.000 A 
ATOM     25  C   UNL     1       1.076  11.114  18.882  0.00  0.00    +0.000 A 
ATOM     26  C   UNL     1       0.109  10.617  19.747  0.00  0.00    +0.000 A 
ATOM     27  C   UNL     1      -0.822  11.517  20.265  0.00  0.00    +0.000 A 
ATOM     28  C   UNL     1      -0.667  12.898  20.055  0.00  0.00    +0.000 A 
BRANCH  23  34
ATOM     29  C   UNL     1       1.792  15.533  19.829  0.00  0.00    +0.000 A 
ATOM     30  C   UNL     1       2.005  16.904  19.624  0.00  0.00    +0.000 A 
ATOM     31  C   UNL     1       1.109  17.658  18.866  0.00  0.00    +0.000 A 
ATOM     32  C   UNL     1      -0.003  17.049  18.301  0.00  0.00    +0.000 A 
ATOM     33  C   UNL     1      -0.206  15.677  18.472  0.00  0.00    +0.000 A 
ATOM     34  C   UNL     1       0.683  14.881  19.222  0.00  0.00    +0.000 A 
BRANCH  29  36
ATOM     35  C   UNL     1       2.898  15.173  21.922  0.00  0.00    +0.000 C 
ATOM     36  O   UNL     1       2.654  14.767  20.580  0.00  0.00    +0.000 OA
ENDBRANCH  29  36
ENDBRANCH  23  34
ENDBRANCH  22  26
ENDBRANCH   1  22
TORSDOF 9
ENDMDL
MODEL 3
REMARK VINA RESULT:      -8.3      3.777      7.266
REMARK  Name = 
REMARK  10 active torsions:
REMARK  status: ('A' for Active; 'I' for Inactive)
REMARK    1  A    between atoms: C_1  and  O_2
REMARK    2  A    between atoms: O_2  and  C_3
REMARK    3  A    between atoms: C_8  and  C_9
REMARK    4  A    between atoms: C_12  and  C_13
REMARK    5  A    between atoms: C_13  and  CA_14
REMARK    6  A    between atoms: CA_14  and  N_15
REMARK    7  A    between atoms: CA_14  and  C_30
REMARK    8  A    between atoms: C_16  and  C_18
REMARK    9  A    between atoms: C_18  and  C_19
REMARK   10  A    between atoms: C_30  and  OXT_32
REMARK                            x       y       z     vdW  Elec       q    Type
REMARK                         _______ _______ _______ _____ _____    ______ ____
ROOT
ATOM      1  CA  UNL     1       2.816   4.498  19.385  0.00  0.00    +0.000 C 
ENDROOT
BRANCH   1   2
ATOM      2  N   UNL     1       3.802   4.897  18.359  0.00  0.00    +0.000 N 
ATOM      3  C   UNL     1       4.447   4.011  17.524  0.00  0.00    +0.000 C 
ATOM      4  O   UNL     1       4.177   2.816  17.497  0.00  0.00    +0.000 OA
ATOM      5  H   UNL     1       4.202   5.820  18.454  0.00  0.00    +0.000 HD
BRANCH   3   6
ATOM      6  C   UNL     1       5.536   4.602  16.594  0.00  0.00    +0.000 C 
ATOM      7  C   UNL     1       6.161   3.485  15.727  0.00  0.00    +0.000 C 
ATOM      8  C   UNL     1       6.621   4.171  14.441  0.00  0.00    +0.000 C 
ATOM      9  C   UNL     1       5.705   5.373  14.254  0.00  0.00    +0.000 C 
ATOM     10  C   UNL     1       4.813   5.420  15.486  0.00  0.00    +0.000 C 
BRANCH   6  11
ATOM     11  C   UNL     1       6.530   5.486  17.365  0.00  0.00    +0.000 A 
ATOM     12  C   UNL     1       7.301   4.942  18.406  0.00  0.00    +0.000 A 
ATOM     13  C   UNL     1       8.178   5.733  19.149  0.00  0.00    +0.000 A 
ATOM     14  C   UNL     1       8.307   7.084  18.850  0.00  0.00    +0.000 A 
ATOM     15  N   UNL     1       7.583   7.653  17.825  0.00  0.00    +0.000 N 
ATOM     16  O   UNL     1       7.705   8.887  17.545  0.00  0.00    +0.000 OA
ATOM     17  C   UNL     1       6.708   6.852  17.097  0.00  0.00    +0.000 A 
ENDBRANCH   6  11
ENDBRANCH   3   6
ENDBRANCH   1   2
BRANCH   1  18
ATOM     18  C   UNL     1       1.389   4.015  18.973  0.00  0.00    +0.000 C 
ATOM     19  O   UNL     1       0.924   3.901  17.841  0.00  0.00    +0.000 OA
BRANCH  18  20
ATOM     20  OXT UNL     1       0.573   3.786  20.039  0.00  0.00    +0.000 OA
ATOM     21  HXT UNL     1       0.994   3.832  20.912  0.00  0.00    +0.000 HD
ENDBRANCH  18  20
ENDBRANCH   1  18
BRANCH   1  22
ATOM     22  C   UNL     1       2.711   5.588  20.491  0.00  0.00    +0.000 C 
BRANCH  22  26
ATOM     23  C   UNL     1       1.116   9.458  19.307  0.00  0.00    +0.000 A 
ATOM     24  C   UNL     1       1.828   8.649  18.416  0.00  0.00    +0.000 A 
ATOM     25  C   UNL     1       2.227   7.356  18.768  0.00  0.00    +0.000 A 
ATOM     26  C   UNL     1       2.006   6.852  20.043  0.00  0.00    +0.000 A 
ATOM     27  C   UNL     1       1.174   7.581  20.893  0.00  0.00    +0.000 A 
ATOM     28  C   UNL     1       0.731   8.863  20.526  0.00  0.00    +0.000 A 
BRANCH  23  34
ATOM     29  C   UNL     1      -0.531  11.283  18.579  0.00  0.00    +0.000 A 
ATOM     30  C   UNL     1      -0.795  12.639  18.334  0.00  0.00    +0.000 A 
ATOM     31  C   UNL     1       0.224  13.588  18.414  0.00  0.00    +0.000 A 
ATOM     32  C   UNL     1       1.513  13.193  18.746  0.00  0.00    +0.000 A 
ATOM     33  C   UNL     1       1.778  11.850  19.024  0.00  0.00    +0.000 A 
ATOM     34  C   UNL     1       0.773  10.864  18.964  0.00  0.00    +0.000 A 
BRANCH  29  36
ATOM     35  C   UNL     1      -1.994   9.979  17.204  0.00  0.00    +0.000 C 
ATOM     36  O   UNL     1      -1.515  10.325  18.499  0.00  0.00    +0.000 OA
ENDBRANCH  29  36
ENDBRANCH  23  34
ENDBRANCH  22  26
ENDBRANCH   1  22
TORSDOF 9
ENDMDL
MODEL 4
REMARK VINA RESULT:      -8.2      5.503      9.590
REMARK  Name = 
REMARK  10 active torsions:
REMARK  status: ('A' for Active; 'I' for Inactive)
REMARK    1  A    between atoms: C_1  and  O_2
REMARK    2  A    between atoms: O_2  and  C_3
REMARK    3  A    between atoms: C_8  and  C_9
REMARK    4  A    between atoms: C_12  and  C_13
REMARK    5  A    between atoms: C_13  and  CA_14
REMARK    6  A    between atoms: CA_14  and  N_15
REMARK    7  A    between atoms: CA_14  and  C_30
REMARK    8  A    between atoms: C_16  and  C_18
REMARK    9  A    between atoms: C_18  and  C_19
REMARK   10  A    between atoms: C_30  and  OXT_32
REMARK                            x       y       z     vdW  Elec       q    Type
REMARK                         _______ _______ _______ _____ _____    ______ ____
ROOT
ATOM      1  CA  UNL     1      -0.884  10.861  20.724  0.00  0.00    +0.000 C 
ENDROOT
BRANCH   1   2
ATOM      2  N   UNL     1      -1.685  10.595  19.511  0.00  0.00    +0.000 N 
ATOM      3  C   UNL     1      -2.186  11.577  18.686  0.00  0.00    +0.000 C 
ATOM      4  O   UNL     1      -1.918  12.763  18.838  0.00  0.00    +0.000 OA
ATOM      5  H   UNL     1      -2.093   9.673  19.435  0.00  0.00    +0.000 HD
BRANCH   3   6
ATOM      6  C   UNL     1      -3.104  11.111  17.529  0.00  0.00    +0.000 C 
ATOM      7  C   UNL     1      -2.556  11.617  16.175  0.00  0.00    +0.000 C 
ATOM      8  C   UNL     1      -3.017  10.595  15.136  0.00  0.00    +0.000 C 
ATOM      9  C   UNL     1      -3.159   9.273  15.880  0.00  0.00    +0.000 C 
ATOM     10  C   UNL     1      -2.886   9.582  17.344  0.00  0.00    +0.000 C 
BRANCH   6  11
ATOM     11  C   UNL     1      -4.583  11.422  17.811  0.00  0.00    +0.000 A 
ATOM     12  C   UNL     1      -5.267  12.371  17.033  0.00  0.00    +0.000 A 
ATOM     13  C   UNL     1      -6.597  12.702  17.296  0.00  0.00    +0.000 A 
ATOM     14  C   UNL     1      -7.269  12.073  18.337  0.00  0.00    +0.000 A 
ATOM     15  N   UNL     1      -6.641  11.124  19.113  0.00  0.00    +0.000 N 
ATOM     16  O   UNL     1      -7.256  10.542  20.061  0.00  0.00    +0.000 OA
ATOM     17  C   UNL     1      -5.312  10.809  18.841  0.00  0.00    +0.000 A 
ENDBRANCH   6  11
ENDBRANCH   3   6
ENDBRANCH   1   2
BRANCH   1  18
ATOM     18  C   UNL     1      -1.241  12.055  21.667  0.00  0.00    +0.000 C 
ATOM     19  O   UNL     1      -2.140  12.119  22.502  0.00  0.00    +0.000 OA
BRANCH  18  20
ATOM     20  OXT UNL     1      -0.486  13.165  21.433  0.00  0.00    +0.000 OA
ATOM     21  HXT UNL     1       0.475  13.037  21.463  0.00  0.00    +0.000 HD
ENDBRANCH  18  20
ENDBRANCH   1  18
BRANCH   1  22
ATOM     22  C   UNL     1       0.633  10.890  20.378  0.00  0.00    +0.000 C 
BRANCH  22  26
ATOM     23  C   UNL     1       2.505   7.455  18.475  0.00  0.00    +0.000 A 
ATOM     24  C   UNL     1       2.122   7.436  19.820  0.00  0.00    +0.000 A 
ATOM     25  C   UNL     1       1.409   8.497  20.388  0.00  0.00    +0.000 A 
ATOM     26  C   UNL     1       1.124   9.647  19.664  0.00  0.00    +0.000 A 
ATOM     27  C   UNL     1       1.367   9.626  18.290  0.00  0.00    +0.000 A 
ATOM     28  C   UNL     1       2.042   8.542  17.705  0.00  0.00    +0.000 A 
BRANCH  23  34
ATOM     29  C   UNL     1       2.905   5.019  17.781  0.00  0.00    +0.000 A 
ATOM     30  C   UNL     1       3.725   4.062  17.165  0.00  0.00    +0.000 A 
ATOM     31  C   UNL     1       4.996   4.404  16.705  0.00  0.00    +0.000 A 
ATOM     32  C   UNL     1       5.457   5.705  16.848  0.00  0.00    +0.000 A 
ATOM     33  C   UNL     1       4.635   6.674  17.430  0.00  0.00    +0.000 A 
ATOM     34  C   UNL     1       3.342   6.368  17.898  0.00  0.00    +0.000 A 
BRANCH  29  36
ATOM     35  C   UNL     1       1.525   3.557  19.081  0.00  0.00    +0.000 C 
ATOM     36  O   UNL     1       1.651   4.708  18.253  0.00  0.00    +0.000 OA
ENDBRANCH  29  36
ENDBRANCH  23  34
ENDBRANCH  22  26
ENDBRANCH   1  22
TORSDOF 9
ENDMDL
MODEL 5
REMARK VINA RESULT:      -8.2      3.898      7.648
REMARK  Name = 
REMARK  10 active torsions:
REMARK  status: ('A' for Active; 'I' for Inactive)
REMARK    1  A    between atoms: C_1  and  O_2
REMARK    2  A    between atoms: O_2  and  C_3
REMARK    3  A    between atoms: C_8  and  C_9
REMARK    4  A    between atoms: C_12  and  C_13
REMARK    5  A    between atoms: C_13  and  CA_14
REMARK    6  A    between atoms: CA_14  and  N_15
REMARK    7  A    between atoms: CA_14  and  C_30
REMARK    8  A    between atoms: C_16  and  C_18
REMARK    9  A    between atoms: C_18  and  C_19
REMARK   10  A    between atoms: C_30  and  OXT_32
REMARK                            x       y       z     vdW  Elec       q    Type
REMARK                         _______ _______ _______ _____ _____    ______ ____
ROOT
ATOM      1  CA  UNL     1       2.639   4.371  19.084  0.00  0.00    +0.000 C 
ENDROOT
BRANCH   1   2
ATOM      2  N   UNL     1       3.679   5.074  18.304  0.00  0.00    +0.000 N 
ATOM      3  C   UNL     1       5.018   4.752  18.338  0.00  0.00    +0.000 C 
ATOM      4  O   UNL     1       5.445   3.779  18.948  0.00  0.00    +0.000 OA
ATOM      5  H   UNL     1       3.429   5.982  17.938  0.00  0.00    +0.000 HD
BRANCH   3   6
ATOM      6  C   UNL     1       5.975   5.678  17.546  0.00  0.00    +0.000 C 
ATOM      7  C   UNL     1       5.539   7.152  17.698  0.00  0.00    +0.000 C 
ATOM      8  C   UNL     1       6.818   7.977  17.553  0.00  0.00    +0.000 C 
ATOM      9  C   UNL     1       7.955   7.076  18.018  0.00  0.00    +0.000 C 
ATOM     10  C   UNL     1       7.326   5.723  18.315  0.00  0.00    +0.000 C 
BRANCH   6  11
ATOM     11  C   UNL     1       6.184   5.186  16.104  0.00  0.00    +0.000 A 
ATOM     12  C   UNL     1       5.315   4.230  15.550  0.00  0.00    +0.000 A 
ATOM     13  C   UNL     1       5.509   3.736  14.259  0.00  0.00    +0.000 A 
ATOM     14  C   UNL     1       6.571   4.205  13.496  0.00  0.00    +0.000 A 
ATOM     15  N   UNL     1       7.435   5.155  13.995  0.00  0.00    +0.000 N 
ATOM     16  O   UNL     1       8.403   5.590  13.295  0.00  0.00    +0.000 OA
ATOM     17  C   UNL     1       7.232   5.634  15.286  0.00  0.00    +0.000 A 
ENDBRANCH   6  11
ENDBRANCH   3   6
ENDBRANCH   1   2
BRANCH   1  18
ATOM     18  C   UNL     1       1.419   3.707  18.368  0.00  0.00    +0.000 C 
ATOM     19  O   UNL     1       0.841   2.664  18.665  0.00  0.00    +0.000 OA
BRANCH  18  20
ATOM     20  OXT UNL     1       1.045   4.360  17.232  0.00  0.00    +0.000 OA
ATOM     21  HXT UNL     1       1.715   4.941  16.838  0.00  0.00    +0.000 HD
ENDBRANCH  18  20
ENDBRANCH   1  18
BRANCH   1  22
ATOM     22  C   UNL     1       2.146   5.262  20.261  0.00  0.00    +0.000 C 
BRANCH  22  26
ATOM     23  C   UNL     1       1.210   9.375  19.197  0.00  0.00    +0.000 A 
ATOM     24  C   UNL     1       1.170   8.928  20.521  0.00  0.00    +0.000 A 
ATOM     25  C   UNL     1       1.593   7.640  20.867  0.00  0.00    +0.000 A 
ATOM     26  C   UNL     1       1.993   6.725  19.901  0.00  0.00    +0.000 A 
ATOM     27  C   UNL     1       2.178   7.195  18.601  0.00  0.00    +0.000 A 
ATOM     28  C   UNL     1       1.798   8.504  18.257  0.00  0.00    +0.000 A 
BRANCH  23  34
ATOM     29  C   UNL     1      -0.674  10.932  18.423  0.00  0.00    +0.000 A 
ATOM     30  C   UNL     1      -1.124  12.232  18.146  0.00  0.00    +0.000 A 
ATOM     31  C   UNL     1      -0.250  13.316  18.204  0.00  0.00    +0.000 A 
ATOM     32  C   UNL     1       1.080  13.114  18.547  0.00  0.00    +0.000 A 
ATOM     33  C   UNL     1       1.531  11.829  18.858  0.00  0.00    +0.000 A 
ATOM     34  C   UNL     1       0.674  10.711  18.820  0.00  0.00    +0.000 A 
BRANCH  29  36
ATOM     35  C   UNL     1      -2.816  10.044  17.831  0.00  0.00    +0.000 C 
ATOM     36  O   UNL     1      -1.513   9.843  18.365  0.00  0.00    +0.000 OA
ENDBRANCH  29  36
ENDBRANCH  23  34
ENDBRANCH  22  26
ENDBRANCH   1  22
TORSDOF 9
ENDMDL
MODEL 6
REMARK VINA RESULT:      -8.1      5.216      8.305
REMARK  Name = 
REMARK  10 active torsions:
REMARK  status: ('A' for Active; 'I' for Inactive)
REMARK    1  A    between atoms: C_1  and  O_2
REMARK    2  A    between atoms: O_2  and  C_3
REMARK    3  A    between atoms: C_8  and  C_9
REMARK    4  A    between atoms: C_12  and  C_13
REMARK    5  A    between atoms: C_13  and  CA_14
REMARK    6  A    between atoms: CA_14  and  N_15
REMARK    7  A    between atoms: CA_14  and  C_30
REMARK    8  A    between atoms: C_16  and  C_18
REMARK    9  A    between atoms: C_18  and  C_19
REMARK   10  A    between atoms: C_30  and  OXT_32
REMARK                            x       y       z     vdW  Elec       q    Type
REMARK                         _______ _______ _______ _____ _____    ______ ____
ROOT
ATOM      1  CA  UNL     1       1.395   8.763  21.239  0.00  0.00    +0.000 C 
ENDROOT
BRANCH   1   2
ATOM      2  N   UNL     1       1.812   7.387  20.898  0.00  0.00    +0.000 N 
ATOM      3  C   UNL     1       2.307   7.014  19.668  0.00  0.00    +0.000 C 
ATOM      4  O   UNL     1       2.538   7.825  18.779  0.00  0.00    +0.000 OA
ATOM      5  H   UNL     1       1.478   6.652  21.506  0.00  0.00    +0.000 HD
BRANCH   3   6
ATOM      6  C   UNL     1       2.578   5.503  19.457  0.00  0.00    +0.000 C 
ATOM      7  C   UNL     1       2.368   4.733  20.780  0.00  0.00    +0.000 C 
ATOM      8  C   UNL     1       1.944   3.323  20.373  0.00  0.00    +0.000 C 
ATOM      9  C   UNL     1       1.257   3.463  19.022  0.00  0.00    +0.000 C 
ATOM     10  C   UNL     1       1.396   4.926  18.628  0.00  0.00    +0.000 C 
BRANCH   6  11
ATOM     11  C   UNL     1       3.917   5.256  18.743  0.00  0.00    +0.000 A 
ATOM     12  C   UNL     1       3.942   4.947  17.373  0.00  0.00    +0.000 A 
ATOM     13  C   UNL     1       5.140   4.676  16.711  0.00  0.00    +0.000 A 
ATOM     14  C   UNL     1       6.339   4.727  17.413  0.00  0.00    +0.000 A 
ATOM     15  N   UNL     1       6.361   5.044  18.753  0.00  0.00    +0.000 N 
ATOM     16  O   UNL     1       7.457   5.097  19.394  0.00  0.00    +0.000 OA
ATOM     17  C   UNL     1       5.156   5.305  19.399  0.00  0.00    +0.000 A 
ENDBRANCH   6  11
ENDBRANCH   3   6
ENDBRANCH   1   2
BRANCH   1  18
ATOM     18  C   UNL     1       1.418   9.258  22.721  0.00  0.00    +0.000 C 
ATOM     19  O   UNL     1       0.472   9.625  23.413  0.00  0.00    +0.000 OA
BRANCH  18  20
ATOM     20  OXT UNL     1       2.677   9.356  23.232  0.00  0.00    +0.000 OA
ATOM     21  HXT UNL     1       3.125  10.206  23.093  0.00  0.00    +0.000 HD
ENDBRANCH  18  20
ENDBRANCH   1  18
BRANCH   1  22
ATOM     22  C   UNL     1       0.019   9.091  20.589  0.00  0.00    +0.000 C 
BRANCH  22  26
ATOM     23  C   UNL     1      -0.490  13.308  19.652  0.00  0.00    +0.000 A 
ATOM     24  C   UNL     1       0.692  12.814  20.212  0.00  0.00    +0.000 A 
ATOM     25  C   UNL     1       0.893  11.442  20.393  0.00  0.00    +0.000 A 
ATOM     26  C   UNL     1      -0.104  10.520  20.101  0.00  0.00    +0.000 A 
ATOM     27  C   UNL     1      -1.226  10.976  19.409  0.00  0.00    +0.000 A 
ATOM     28  C   UNL     1      -1.412  12.350  19.183  0.00  0.00    +0.000 A 
BRANCH  23  34
ATOM     29  C   UNL     1      -1.528  15.504  20.474  0.00  0.00    +0.000 A 
ATOM     30  C   UNL     1      -1.663  16.894  20.346  0.00  0.00    +0.000 A 
ATOM     31  C   UNL     1      -1.069  17.572  19.282  0.00  0.00    +0.000 A 
ATOM     32  C   UNL     1      -0.330  16.869  18.341  0.00  0.00    +0.000 A 
ATOM     33  C   UNL     1      -0.162  15.489  18.478  0.00  0.00    +0.000 A 
ATOM     34  C   UNL     1      -0.738  14.771  19.545  0.00  0.00    +0.000 A 
BRANCH  29  36
ATOM     35  C   UNL     1      -1.706  15.137  22.833  0.00  0.00    +0.000 C 
ATOM     36  O   UNL     1      -2.110  14.808  21.509  0.00  0.00    +0.000 OA
ENDBRANCH  29  36
ENDBRANCH  23  34
ENDBRANCH  22  26
ENDBRANCH   1  22
TORSDOF 9
ENDMDL
MODEL 7
REMARK VINA RESULT:      -8.1      4.549      7.072
REMARK  Name = 
REMARK  10 active torsions:
REMARK  status: ('A' for Active; 'I' for Inactive)
REMARK    1  A    between atoms: C_1  and  O_2
REMARK    2  A    between atoms: O_2  and  C_3
REMARK    3  A    between atoms: C_8  and  C_9
REMARK    4  A    between atoms: C_12  and  C_13
REMARK    5  A    between atoms: C_13  and  CA_14
REMARK    6  A    between atoms: CA_14  and  N_15
REMARK    7  A    between atoms: CA_14  and  C_30
REMARK    8  A    between atoms: C_16  and  C_18
REMARK    9  A    between atoms: C_18  and  C_19
REMARK   10  A    between atoms: C_30  and  OXT_32
REMARK                            x       y       z     vdW  Elec       q    Type
REMARK                         _______ _______ _______ _____ _____    ______ ____
ROOT
ATOM      1  CA  UNL     1       1.559   8.682  21.458  0.00  0.00    +0.000 C 
ENDROOT
BRANCH   1   2
ATOM      2  N   UNL     1       1.831   7.256  21.185  0.00  0.00    +0.000 N 
ATOM      3  C   UNL     1       2.273   6.774  19.972  0.00  0.00    +0.000 C 
ATOM      4  O   UNL     1       2.577   7.511  19.042  0.00  0.00    +0.000 OA
ATOM      5  H   UNL     1       1.430   6.590  21.830  0.00  0.00    +0.000 HD
BRANCH   3   6
ATOM      6  C   UNL     1       2.387   5.235  19.837  0.00  0.00    +0.000 C 
ATOM      7  C   UNL     1       2.429   4.577  21.235  0.00  0.00    +0.000 C 
ATOM      8  C   UNL     1       1.831   3.183  21.052  0.00  0.00    +0.000 C 
ATOM      9  C   UNL     1       0.867   3.288  19.878  0.00  0.00    +0.000 C 
ATOM     10  C   UNL     1       1.012   4.704  19.340  0.00  0.00    +0.000 C 
BRANCH   6  11
ATOM     11  C   UNL     1       3.511   4.827  18.870  0.00  0.00    +0.000 A 
ATOM     12  C   UNL     1       3.201   4.362  17.581  0.00  0.00    +0.000 A 
ATOM     13  C   UNL     1       4.200   3.945  16.700  0.00  0.00    +0.000 A 
ATOM     14  C   UNL     1       5.531   4.003  17.094  0.00  0.00    +0.000 A 
ATOM     15  N   UNL     1       5.880   4.469  18.342  0.00  0.00    +0.000 N 
ATOM     16  O   UNL     1       7.097   4.529  18.701  0.00  0.00    +0.000 OA
ATOM     17  C   UNL     1       4.871   4.875  19.211  0.00  0.00    +0.000 A 
ENDBRANCH   6  11
ENDBRANCH   3   6
ENDBRANCH   1   2
BRANCH   1  18
ATOM     18  C   UNL     1       1.437   9.202  22.926  0.00  0.00    +0.000 C 
ATOM     19  O   UNL     1       0.435   9.618  23.503  0.00  0.00    +0.000 OA
BRANCH  18  20
ATOM     20  OXT UNL     1       2.634   9.262  23.574  0.00  0.00    +0.000 OA
ATOM     21  HXT UNL     1       2.620   9.015  24.512  0.00  0.00    +0.000 HD
ENDBRANCH  18  20
ENDBRANCH   1  18
BRANCH   1  22
ATOM     22  C   UNL     1       0.348   9.176  20.615  0.00  0.00    +0.000 C 
BRANCH  22  26
ATOM     23  C   UNL     1       1.374  13.097  19.034  0.00  0.00    +0.000 A 
ATOM     24  C   UNL     1       1.518  11.933  18.272  0.00  0.00    +0.000 A 
ATOM     25  C   UNL     1       1.068  10.696  18.744  0.00  0.00    +0.000 A 
ATOM     26  C   UNL     1       0.536  10.557  20.019  0.00  0.00    +0.000 A 
ATOM     27  C   UNL     1       0.252  11.720  20.733  0.00  0.00    +0.000 A 
ATOM     28  C   UNL     1       0.660  12.972  20.243  0.00  0.00    +0.000 A 
BRANCH  23  34
ATOM     29  C   UNL     1       1.186  15.603  18.528  0.00  0.00    +0.000 A 
ATOM     30  C   UNL     1       1.802  16.803  18.141  0.00  0.00    +0.000 A 
ATOM     31  C   UNL     1       3.138  16.822  17.744  0.00  0.00    +0.000 A 
ATOM     32  C   UNL     1       3.875  15.645  17.738  0.00  0.00    +0.000 A 
ATOM     33  C   UNL     1       3.280  14.450  18.153  0.00  0.00    +0.000 A 
ATOM     34  C   UNL     1       1.935  14.394  18.570  0.00  0.00    +0.000 A 
BRANCH  29  36
ATOM     35  C   UNL     1      -0.820  16.791  19.070  0.00  0.00    +0.000 C 
ATOM     36  O   UNL     1      -0.133  15.555  18.915  0.00  0.00    +0.000 OA
ENDBRANCH  29  36
ENDBRANCH  23  34
ENDBRANCH  22  26
ENDBRANCH   1  22
TORSDOF 9
ENDMDL
MODEL 8
REMARK VINA RESULT:      -8.1      4.544      7.234
REMARK  Name = 
REMARK  10 active torsions:
REMARK  status: ('A' for Active; 'I' for Inactive)
REMARK    1  A    between atoms: C_1  and  O_2
REMARK    2  A    between atoms: O_2  and  C_3
REMARK    3  A    between atoms: C_8  and  C_9
REMARK    4  A    between atoms: C_12  and  C_13
REMARK    5  A    between atoms: C_13  and  CA_14
REMARK    6  A    between atoms: CA_14  and  N_15
REMARK    7  A    between atoms: CA_14  and  C_30
REMARK    8  A    between atoms: C_16  and  C_18
REMARK    9  A    between atoms: C_18  and  C_19
REMARK   10  A    between atoms: C_30  and  OXT_32
REMARK                            x       y       z     vdW  Elec       q    Type
REMARK                         _______ _______ _______ _____ _____    ______ ____
ROOT
ATOM      1  CA  UNL     1       2.572   7.575  18.972  0.00  0.00    +0.000 C 
ENDROOT
BRANCH   1   2
ATOM      2  N   UNL     1       3.335   6.424  18.446  0.00  0.00    +0.000 N 
ATOM      3  C   UNL     1       4.471   6.540  17.675  0.00  0.00    +0.000 C 
ATOM      4  O   UNL     1       5.003   7.619  17.445  0.00  0.00    +0.000 OA
ATOM      5  H   UNL     1       2.857   5.534  18.437  0.00  0.00    +0.000 HD
BRANCH   3   6
ATOM      6  C   UNL     1       5.066   5.224  17.113  0.00  0.00    +0.000 C 
ATOM      7  C   UNL     1       5.041   5.243  15.568  0.00  0.00    +0.000 C 
ATOM      8  C   UNL     1       6.209   4.362  15.127  0.00  0.00    +0.000 C 
ATOM      9  C   UNL     1       7.240   4.437  16.245  0.00  0.00    +0.000 C 
ATOM     10  C   UNL     1       6.602   5.266  17.351  0.00  0.00    +0.000 C 
BRANCH   6  11
ATOM     11  C   UNL     1       4.444   3.985  17.779  0.00  0.00    +0.000 A 
ATOM     12  C   UNL     1       3.314   3.370  17.213  0.00  0.00    +0.000 A 
ATOM     13  C   UNL     1       2.706   2.271  17.820  0.00  0.00    +0.000 A 
ATOM     14  C   UNL     1       3.231   1.760  19.001  0.00  0.00    +0.000 A 
ATOM     15  N   UNL     1       4.348   2.322  19.579  0.00  0.00    +0.000 N 
ATOM     16  O   UNL     1       4.834   1.851  20.655  0.00  0.00    +0.000 OA
ATOM     17  C   UNL     1       4.940   3.422  18.964  0.00  0.00    +0.000 A 
ENDBRANCH   6  11
ENDBRANCH   3   6
ENDBRANCH   1   2
BRANCH   1  18
ATOM     18  C   UNL     1       1.860   7.491  20.361  0.00  0.00    +0.000 C 
ATOM     19  O   UNL     1       1.480   8.415  21.075  0.00  0.00    +0.000 OA
BRANCH  18  20
ATOM     20  OXT UNL     1       1.750   6.216  20.828  0.00  0.00    +0.000 OA
ATOM     21  HXT UNL     1       2.410   5.586  20.499  0.00  0.00    +0.000 HD
ENDBRANCH  18  20
ENDBRANCH   1  18
BRANCH   1  22
ATOM     22  C   UNL     1       1.581   8.109  17.897  0.00  0.00    +0.000 C 
BRANCH  22  26
ATOM     23  C   UNL     1       0.899  12.324  18.722  0.00  0.00    +0.000 A 
ATOM     24  C   UNL     1       2.120  11.858  18.227  0.00  0.00    +0.000 A 
ATOM     25  C   UNL     1       2.288  10.522  17.847  0.00  0.00    +0.000 A 
ATOM     26  C   UNL     1       1.276   9.587  18.023  0.00  0.00    +0.000 A 
ATOM     27  C   UNL     1       0.012  10.058  18.375  0.00  0.00    +0.000 A 
ATOM     28  C   UNL     1      -0.174  11.409  18.713  0.00  0.00    +0.000 A 
BRANCH  23  34
ATOM     29  C   UNL     1       1.494  14.257  20.299  0.00  0.00    +0.000 A 
ATOM     30  C   UNL     1       1.348  15.604  20.661  0.00  0.00    +0.000 A 
ATOM     31  C   UNL     1       0.439  16.425  19.996  0.00  0.00    +0.000 A 
ATOM     32  C   UNL     1      -0.328  15.911  18.958  0.00  0.00    +0.000 A 
ATOM     33  C   UNL     1      -0.166  14.579  18.569  0.00  0.00    +0.000 A 
ATOM     34  C   UNL     1       0.750  13.722  19.211  0.00  0.00    +0.000 A 
BRANCH  29  36
ATOM     35  C   UNL     1       3.620  13.973  21.363  0.00  0.00    +0.000 C 
ATOM     36  O   UNL     1       2.376  13.421  20.944  0.00  0.00    +0.000 OA
ENDBRANCH  29  36
ENDBRANCH  23  34
ENDBRANCH  22  26
ENDBRANCH   1  22
TORSDOF 9
ENDMDL
MODEL 9
REMARK VINA RESULT:      -8.1      3.927      7.279
REMARK  Name = 
REMARK  10 active torsions:
REMARK  status: ('A' for Active; 'I' for Inactive)
REMARK    1  A    between atoms: C_1  and  O_2
REMARK    2  A    between atoms: O_2  and  C_3
REMARK    3  A    between atoms: C_8  and  C_9
REMARK    4  A    between atoms: C_12  and  C_13
REMARK    5  A    between atoms: C_13  and  CA_14
REMARK    6  A    between atoms: CA_14  and  N_15
REMARK    7  A    between atoms: CA_14  and  C_30
REMARK    8  A    between atoms: C_16  and  C_18
REMARK    9  A    between atoms: C_18  and  C_19
REMARK   10  A    between atoms: C_30  and  OXT_32
REMARK                            x       y       z     vdW  Elec       q    Type
REMARK                         _______ _______ _______ _____ _____    ______ ____
ROOT
ATOM      1  CA  UNL     1       1.456   8.721  20.602  0.00  0.00    +0.000 C 
ENDROOT
BRANCH   1   2
ATOM      2  N   UNL     1       1.900   7.344  20.303  0.00  0.00    +0.000 N 
ATOM      3  C   UNL     1       2.510   6.968  19.126  0.00  0.00    +0.000 C 
ATOM      4  O   UNL     1       2.828   7.777  18.263  0.00  0.00    +0.000 OA
ATOM      5  H   UNL     1       1.507   6.610  20.876  0.00  0.00    +0.000 HD
BRANCH   3   6
ATOM      6  C   UNL     1       2.796   5.456  18.944  0.00  0.00    +0.000 C 
ATOM      7  C   UNL     1       2.395   4.679  20.218  0.00  0.00    +0.000 C 
ATOM      8  C   UNL     1       2.021   3.276  19.744  0.00  0.00    +0.000 C 
ATOM      9  C   UNL     1       1.533   3.431  18.311  0.00  0.00    +0.000 C 
ATOM     10  C   UNL     1       1.738   4.896  17.952  0.00  0.00    +0.000 C 
BRANCH   6  11
ATOM     11  C   UNL     1       4.220   5.202  18.425  0.00  0.00    +0.000 A 
ATOM     12  C   UNL     1       4.428   4.817  17.089  0.00  0.00    +0.000 A 
ATOM     13  C   UNL     1       5.706   4.538  16.605  0.00  0.00    +0.000 A 
ATOM     14  C   UNL     1       6.803   4.657  17.450  0.00  0.00    +0.000 A 
ATOM     15  N   UNL     1       6.645   5.049  18.761  0.00  0.00    +0.000 N 
ATOM     16  O   UNL     1       7.648   5.165  19.534  0.00  0.00    +0.000 OA
ATOM     17  C   UNL     1       5.363   5.318  19.231  0.00  0.00    +0.000 A 
ENDBRANCH   6  11
ENDBRANCH   3   6
ENDBRANCH   1   2
BRANCH   1  18
ATOM     18  C   UNL     1       1.120   9.150  22.066  0.00  0.00    +0.000 C 
ATOM     19  O   UNL     1       1.894   9.530  22.941  0.00  0.00    +0.000 OA
BRANCH  18  20
ATOM     20  OXT UNL     1      -0.194   8.981  22.385  0.00  0.00    +0.000 OA
ATOM     21  HXT UNL     1      -0.805   9.644  22.027  0.00  0.00    +0.000 HD
ENDBRANCH  18  20
ENDBRANCH   1  18
BRANCH   1  22
ATOM     22  C   UNL     1       0.301   9.139  19.645  0.00  0.00    +0.000 C 
BRANCH  22  26
ATOM     23  C   UNL     1       0.731  13.373  18.743  0.00  0.00    +0.000 A 
ATOM     24  C   UNL     1       1.784  12.470  18.566  0.00  0.00    +0.000 A 
ATOM     25  C   UNL     1       1.599  11.095  18.739  0.00  0.00    +0.000 A 
ATOM     26  C   UNL     1       0.385  10.576  19.173  0.00  0.00    +0.000 A 
ATOM     27  C   UNL     1      -0.710  11.438  19.213  0.00  0.00    +0.000 A 
ATOM     28  C   UNL     1      -0.539  12.815  18.994  0.00  0.00    +0.000 A 
BRANCH  23  34
ATOM     29  C   UNL     1       2.240  15.436  18.543  0.00  0.00    +0.000 A 
ATOM     30  C   UNL     1       2.368  16.824  18.391  0.00  0.00    +0.000 A 
ATOM     31  C   UNL     1       1.242  17.647  18.390  0.00  0.00    +0.000 A 
ATOM     32  C   UNL     1      -0.022  17.090  18.535  0.00  0.00    +0.000 A 
ATOM     33  C   UNL     1      -0.161  15.704  18.653  0.00  0.00    +0.000 A 
ATOM     34  C   UNL     1       0.952  14.841  18.648  0.00  0.00    +0.000 A 
BRANCH  29  36
ATOM     35  C   UNL     1       4.491  15.020  17.840  0.00  0.00    +0.000 C 
ATOM     36  O   UNL     1       3.335  14.602  18.556  0.00  0.00    +0.000 OA
ENDBRANCH  29  36
ENDBRANCH  23  34
ENDBRANCH  22  26
ENDBRANCH   1  22
TORSDOF 9
ENDMDL
