MODEL 1
REMARK VINA RESULT:      -8.9      0.000      0.000
REMARK  Name = 
REMARK  6 active torsions:
REMARK  status: ('A' for Active; 'I' for Inactive)
REMARK    1  A    between atoms: C_3  and  C_4
REMARK    2  A    between atoms: N_13  and  C_14
REMARK    3  A    between atoms: C_14  and  C_15
REMARK    4  A    between atoms: C_15  and  O_16
REMARK    5  A    between atoms: C_15  and  C_17
REMARK    6  A    between atoms: C_17  and  N_18
REMARK                            x       y       z     vdW  Elec       q    Type
REMARK                         _______ _______ _______ _____ _____    ______ ____
ROOT
ATOM      1  C   UNL     1       2.181   8.726  18.872  0.00  0.00    +0.000 C 
ENDROOT
BRANCH   1   2
ATOM      2  O   UNL     1       1.450   8.551  20.088  0.00  0.00    +0.000 OA
ATOM      3  H   UNL     1       0.705   7.943  19.909  0.00  0.00    +0.000 HD
ENDBRANCH   1   2
BRANCH   1   4
ATOM      4  C   UNL     1       1.419   9.622  17.862  0.00  0.00    +0.000 C 
BRANCH   4  11
ATOM      5  O   UNL     1      -1.236  10.066  18.256  0.00  0.00    +0.000 OA
ATOM      6  C   UNL     1      -0.481  11.001  18.539  0.00  0.00    +0.000 C 
ATOM      7  C   UNL     1      -1.027  12.286  19.172  0.00  0.00    +0.000 C 
ATOM      8  C   UNL     1      -0.086  13.483  19.016  0.00  0.00    +0.000 C 
ATOM      9  C   UNL     1       1.331  13.116  19.420  0.00  0.00    +0.000 C 
ATOM     10  C   UNL     1       1.830  11.974  18.555  0.00  0.00    +0.000 C 
ATOM     11  N   UNL     1       0.898  10.862  18.430  0.00  0.00    +0.000 N 
BRANCH   7  12
ATOM     12  C   UNL     1      -1.462  12.069  20.624  0.00  0.00    +0.000 A 
ATOM     13  C   UNL     1      -2.552  12.757  21.177  0.00  0.00    +0.000 A 
ATOM     14  C   UNL     1      -2.883  12.602  22.521  0.00  0.00    +0.000 A 
ATOM     15  C   UNL     1      -2.144  11.736  23.324  0.00  0.00    +0.000 A 
ATOM     16  C   UNL     1      -1.075  11.016  22.780  0.00  0.00    +0.000 A 
ATOM     17  C   UNL     1      -0.735  11.196  21.436  0.00  0.00    +0.000 A 
ENDBRANCH   7  12
ENDBRANCH   4  11
ENDBRANCH   1   4
BRANCH   1  18
ATOM     18  C   UNL     1       2.353   7.375  18.185  0.00  0.00    +0.000 C 
BRANCH  18  19
ATOM     19  N   UNL     1       3.309   6.422  18.757  0.00  0.00    +0.000 N 
ATOM     20  C   UNL     1       2.855   5.331  19.495  0.00  0.00    +0.000 A 
ATOM     21  C   UNL     1       2.020   5.265  20.623  0.00  0.00    +0.000 A 
ATOM     22  C   UNL     1       1.635   3.995  21.064  0.00  0.00    +0.000 A 
ATOM     23  C   UNL     1       2.048   2.855  20.385  0.00  0.00    +0.000 A 
ATOM     24  F   UNL     1       1.675   1.652  20.841  0.00  0.00    +0.000 F 
ATOM     25  C   UNL     1       2.829   2.926  19.233  0.00  0.00    +0.000 A 
ATOM     26  C   UNL     1       3.255   4.191  18.780  0.00  0.00    +0.000 A 
ATOM     27  C   UNL     1       3.996   4.651  17.651  0.00  0.00    +0.000 A 
ATOM     28  C   UNL     1       4.441   4.091  16.445  0.00  0.00    +0.000 A 
ATOM     29  C   UNL     1       5.253   4.871  15.620  0.00  0.00    +0.000 A 
ATOM     30  F   UNL     1       5.556   4.421  14.394  0.00  0.00    +0.000 F 
ATOM     31  C   UNL     1       5.740   6.113  16.019  0.00  0.00    +0.000 A 
ATOM     32  C   UNL     1       5.296   6.698  17.205  0.00  0.00    +0.000 A 
ATOM     33  C   UNL     1       4.338   5.976  17.929  0.00  0.00    +0.000 A 
ENDBRANCH  18  19
ENDBRANCH   1  18
TORSDOF 6
ENDMDL
MODEL 2
REMARK VINA RESULT:      -8.8      0.525      1.001
REMARK  Name = 
REMARK  6 active torsions:
REMARK  status: ('A' for Active; 'I' for Inactive)
REMARK    1  A    between atoms: C_3  and  C_4
REMARK    2  A    between atoms: N_13  and  C_14
REMARK    3  A    between atoms: C_14  and  C_15
REMARK    4  A    between atoms: C_15  and  O_16
REMARK    5  A    between atoms: C_15  and  C_17
REMARK    6  A    between atoms: C_17  and  N_18
REMARK                            x       y       z     vdW  Elec       q    Type
REMARK                         _______ _______ _______ _____ _____    ______ ____
ROOT
ATOM      1  C   UNL     1       2.179   8.572  18.666  0.00  0.00    +0.000 C 
ENDROOT
BRANCH   1   2
ATOM      2  O   UNL     1       1.760   8.266  19.998  0.00  0.00    +0.000 OA
ATOM      3  H   UNL     1       2.097   7.376  20.225  0.00  0.00    +0.000 HD
ENDBRANCH   1   2
BRANCH   1   4
ATOM      4  C   UNL     1       1.098   9.364  17.887  0.00  0.00    +0.000 C 
BRANCH   4  11
ATOM      5  O   UNL     1      -1.465  10.159  18.334  0.00  0.00    +0.000 OA
ATOM      6  C   UNL     1      -0.585  10.982  18.608  0.00  0.00    +0.000 C 
ATOM      7  C   UNL     1      -0.941  12.323  19.258  0.00  0.00    +0.000 C 
ATOM      8  C   UNL     1       0.150  13.383  19.090  0.00  0.00    +0.000 C 
ATOM      9  C   UNL     1       1.512  12.825  19.465  0.00  0.00    +0.000 C 
ATOM     10  C   UNL     1       1.836  11.633  18.584  0.00  0.00    +0.000 C 
ATOM     11  N   UNL     1       0.760  10.659  18.471  0.00  0.00    +0.000 N 
BRANCH   7  12
ATOM     12  C   UNL     1      -1.374  12.156  20.716  0.00  0.00    +0.000 A 
ATOM     13  C   UNL     1      -0.721  11.265  21.582  0.00  0.00    +0.000 A 
ATOM     14  C   UNL     1      -1.181  11.071  22.882  0.00  0.00    +0.000 A 
ATOM     15  C   UNL     1      -2.283  11.785  23.344  0.00  0.00    +0.000 A 
ATOM     16  C   UNL     1      -2.925  12.703  22.506  0.00  0.00    +0.000 A 
ATOM     17  C   UNL     1      -2.472  12.874  21.194  0.00  0.00    +0.000 A 
ENDBRANCH   7  12
ENDBRANCH   4  11
ENDBRANCH   1   4
BRANCH   1  18
ATOM     18  C   UNL     1       2.390   7.277  17.890  0.00  0.00    +0.000 C 
BRANCH  18  19
ATOM     19  N   UNL     1       3.252   6.247  18.478  0.00  0.00    +0.000 N 
ATOM     20  C   UNL     1       2.696   5.074  18.987  0.00  0.00    +0.000 A 
ATOM     21  C   UNL     1       1.693   4.873  19.948  0.00  0.00    +0.000 A 
ATOM     22  C   UNL     1       1.254   3.561  20.154  0.00  0.00    +0.000 A 
ATOM     23  C   UNL     1       1.782   2.514  19.408  0.00  0.00    +0.000 A 
ATOM     24  F   UNL     1       1.352   1.266  19.638  0.00  0.00    +0.000 F 
ATOM     25  C   UNL     1       2.735   2.725  18.414  0.00  0.00    +0.000 A 
ATOM     26  C   UNL     1       3.216   4.032  18.203  0.00  0.00    +0.000 A 
ATOM     27  C   UNL     1       4.123   4.626  17.276  0.00  0.00    +0.000 A 
ATOM     28  C   UNL     1       4.760   4.223  16.093  0.00  0.00    +0.000 A 
ATOM     29  C   UNL     1       5.686   5.094  15.517  0.00  0.00    +0.000 A 
ATOM     30  F   UNL     1       6.184   4.803  14.306  0.00  0.00    +0.000 F 
ATOM     31  C   UNL     1       6.090   6.268  16.146  0.00  0.00    +0.000 A 
ATOM     32  C   UNL     1       5.458   6.699  17.311  0.00  0.00    +0.000 A 
ATOM     33  C   UNL     1       4.404   5.900  17.774  0.00  0.00    +0.000 A 
ENDBRANCH  18  19
ENDBRANCH   1  18
TORSDOF 6
ENDMDL
MODEL 3
REMARK VINA RESULT:      -8.7      1.890      2.764
REMARK  Name = 
REMARK  6 active torsions:
REMARK  status: ('A' for Active; 'I' for Inactive)
REMARK    1  A    between atoms: C_3  and  C_4
REMARK    2  A    between atoms: N_13  and  C_14
REMARK    3  A    between atoms: C_14  and  C_15
REMARK    4  A    between atoms: C_15  and  O_16
REMARK    5  A    between atoms: C_15  and  C_17
REMARK    6  A    between atoms: C_17  and  N_18
REMARK                            x       y       z     vdW  Elec       q    Type
REMARK                         _______ _______ _______ _____ _____    ______ ____
ROOT
ATOM      1  C   UNL     1       2.467   6.976  18.809  0.00  0.00    +0.000 C 
ENDROOT
BRANCH   1   2
ATOM      2  O   UNL     1       2.157   6.448  17.518  0.00  0.00    +0.000 OA
ATOM      3  H   UNL     1       1.586   7.094  17.055  0.00  0.00    +0.000 HD
ENDBRANCH   1   2
BRANCH   1   4
ATOM      4  C   UNL     1       2.491   8.526  18.810  0.00  0.00    +0.000 C 
BRANCH   4  11
ATOM      5  O   UNL     1       1.510  10.988  18.195  0.00  0.00    +0.000 OA
ATOM      6  C   UNL     1       1.003  10.429  19.173  0.00  0.00    +0.000 C 
ATOM      7  C   UNL     1      -0.178  11.065  19.914  0.00  0.00    +0.000 C 
ATOM      8  C   UNL     1      -0.365  10.522  21.332  0.00  0.00    +0.000 C 
ATOM      9  C   UNL     1      -0.340   9.003  21.338  0.00  0.00    +0.000 C 
ATOM     10  C   UNL     1       0.984   8.511  20.786  0.00  0.00    +0.000 C 
ATOM     11  N   UNL     1       1.391   9.146  19.541  0.00  0.00    +0.000 N 
BRANCH   7  12
ATOM     12  C   UNL     1      -1.468  11.008  19.090  0.00  0.00    +0.000 A 
ATOM     13  C   UNL     1      -2.532  11.890  19.326  0.00  0.00    +0.000 A 
ATOM     14  C   UNL     1      -3.726  11.770  18.617  0.00  0.00    +0.000 A 
ATOM     15  C   UNL     1      -3.861  10.783  17.644  0.00  0.00    +0.000 A 
ATOM     16  C   UNL     1      -2.796   9.917  17.372  0.00  0.00    +0.000 A 
ATOM     17  C   UNL     1      -1.610  10.029  18.105  0.00  0.00    +0.000 A 
ENDBRANCH   7  12
ENDBRANCH   4  11
ENDBRANCH   1   4
BRANCH   1  18
ATOM     18  C   UNL     1       3.870   6.536  19.213  0.00  0.00    +0.000 C 
BRANCH  18  19
ATOM     19  N   UNL     1       4.139   5.100  19.336  0.00  0.00    +0.000 N 
ATOM     20  C   UNL     1       3.085   4.188  19.364  0.00  0.00    +0.000 A 
ATOM     21  C   UNL     1       1.956   4.112  20.196  0.00  0.00    +0.000 A 
ATOM     22  C   UNL     1       0.995   3.144  19.888  0.00  0.00    +0.000 A 
ATOM     23  C   UNL     1       1.154   2.317  18.782  0.00  0.00    +0.000 A 
ATOM     24  F   UNL     1       0.223   1.389  18.522  0.00  0.00    +0.000 F 
ATOM     25  C   UNL     1       2.245   2.435  17.925  0.00  0.00    +0.000 A 
ATOM     26  C   UNL     1       3.244   3.383  18.225  0.00  0.00    +0.000 A 
ATOM     27  C   UNL     1       4.440   3.814  17.579  0.00  0.00    +0.000 A 
ATOM     28  C   UNL     1       5.024   3.628  16.317  0.00  0.00    +0.000 A 
ATOM     29  C   UNL     1       6.299   4.154  16.101  0.00  0.00    +0.000 A 
ATOM     30  F   UNL     1       6.808   4.131  14.861  0.00  0.00    +0.000 F 
ATOM     31  C   UNL     1       7.050   4.723  17.125  0.00  0.00    +0.000 A 
ATOM     32  C   UNL     1       6.484   4.936  18.382  0.00  0.00    +0.000 A 
ATOM     33  C   UNL     1       5.140   4.566  18.525  0.00  0.00    +0.000 A 
ENDBRANCH  18  19
ENDBRANCH   1  18
TORSDOF 6
ENDMDL
MODEL 4
REMARK VINA RESULT:      -8.6      1.475      3.652
REMARK  Name = 
REMARK  6 active torsions:
REMARK  status: ('A' for Active; 'I' for Inactive)
REMARK    1  A    between atoms: C_3  and  C_4
REMARK    2  A    between atoms: N_13  and  C_14
REMARK    3  A    between atoms: C_14  and  C_15
REMARK    4  A    between atoms: C_15  and  O_16
REMARK    5  A    between atoms: C_15  and  C_17
REMARK    6  A    between atoms: C_17  and  N_18
REMARK                            x       y       z     vdW  Elec       q    Type
REMARK                         _______ _______ _______ _____ _____    ______ ____
ROOT
ATOM      1  C   UNL     1       2.427   7.999  18.481  0.00  0.00    +0.000 C 
ENDROOT
BRANCH   1   2
ATOM      2  O   UNL     1       1.860   8.172  19.781  0.00  0.00    +0.000 OA
ATOM      3  H   UNL     1       2.028   9.093  20.065  0.00  0.00    +0.000 HD
ENDBRANCH   1   2
BRANCH   1   4
ATOM      4  C   UNL     1       2.030   9.148  17.519  0.00  0.00    +0.000 C 
BRANCH   4  11
ATOM      5  O   UNL     1      -0.611   9.429  18.104  0.00  0.00    +0.000 OA
ATOM      6  C   UNL     1       0.113  10.389  18.386  0.00  0.00    +0.000 C 
ATOM      7  C   UNL     1      -0.454  11.610  19.118  0.00  0.00    +0.000 C 
ATOM      8  C   UNL     1       0.413  12.862  18.964  0.00  0.00    +0.000 C 
ATOM      9  C   UNL     1       1.870  12.552  19.258  0.00  0.00    +0.000 C 
ATOM     10  C   UNL     1       2.367  11.482  18.304  0.00  0.00    +0.000 C 
ATOM     11  N   UNL     1       1.486  10.330  18.182  0.00  0.00    +0.000 N 
BRANCH   7  12
ATOM     12  C   UNL     1      -0.780  11.300  20.582  0.00  0.00    +0.000 A 
ATOM     13  C   UNL     1      -1.583  12.152  21.354  0.00  0.00    +0.000 A 
ATOM     14  C   UNL     1      -1.804  11.891  22.705  0.00  0.00    +0.000 A 
ATOM     15  C   UNL     1      -1.246  10.760  23.294  0.00  0.00    +0.000 A 
ATOM     16  C   UNL     1      -0.470   9.881  22.530  0.00  0.00    +0.000 A 
ATOM     17  C   UNL     1      -0.234  10.163  21.181  0.00  0.00    +0.000 A 
ENDBRANCH   7  12
ENDBRANCH   4  11
ENDBRANCH   1   4
BRANCH   1  18
ATOM     18  C   UNL     1       1.880   6.721  17.854  0.00  0.00    +0.000 C 
BRANCH  18  19
ATOM     19  N   UNL     1       2.771   5.561  17.753  0.00  0.00    +0.000 N 
ATOM     20  C   UNL     1       4.152   5.727  17.833  0.00  0.00    +0.000 A 
ATOM     21  C   UNL     1       5.025   6.541  17.092  0.00  0.00    +0.000 A 
ATOM     22  C   UNL     1       6.362   6.589  17.500  0.00  0.00    +0.000 A 
ATOM     23  C   UNL     1       6.786   5.874  18.615  0.00  0.00    +0.000 A 
ATOM     24  F   UNL     1       8.076   5.928  18.972  0.00  0.00    +0.000 F 
ATOM     25  C   UNL     1       5.906   5.115  19.382  0.00  0.00    +0.000 A 
ATOM     26  C   UNL     1       4.558   5.026  18.979  0.00  0.00    +0.000 A 
ATOM     27  C   UNL     1       3.392   4.407  19.519  0.00  0.00    +0.000 A 
ATOM     28  C   UNL     1       3.046   3.804  20.736  0.00  0.00    +0.000 A 
ATOM     29  C   UNL     1       1.789   3.207  20.839  0.00  0.00    +0.000 A 
ATOM     30  F   UNL     1       1.373   2.769  22.036  0.00  0.00    +0.000 F 
ATOM     31  C   UNL     1       0.940   3.074  19.744  0.00  0.00    +0.000 A 
ATOM     32  C   UNL     1       1.253   3.682  18.528  0.00  0.00    +0.000 A 
ATOM     33  C   UNL     1       2.436   4.432  18.500  0.00  0.00    +0.000 A 
ENDBRANCH  18  19
ENDBRANCH   1  18
TORSDOF 6
ENDMDL
MODEL 5
REMARK VINA RESULT:      -8.6      1.788      4.634
REMARK  Name = 
REMARK  6 active torsions:
REMARK  status: ('A' for Active; 'I' for Inactive)
REMARK    1  A    between atoms: C_3  and  C_4
REMARK    2  A    between atoms: N_13  and  C_14
REMARK    3  A    between atoms: C_14  and  C_15
REMARK    4  A    between atoms: C_15  and  O_16
REMARK    5  A    between atoms: C_15  and  C_17
REMARK    6  A    between atoms: C_17  and  N_18
REMARK                            x       y       z     vdW  Elec       q    Type
REMARK                         _______ _______ _______ _____ _____    ______ ____
ROOT
ATOM      1  C   UNL     1       1.725   8.360  18.663  0.00  0.00    +0.000 C 
ENDROOT
BRANCH   1   2
ATOM      2  O   UNL     1       2.580   9.249  17.942  0.00  0.00    +0.000 OA
ATOM      3  H   UNL     1       2.183   9.403  17.061  0.00  0.00    +0.000 HD
ENDBRANCH   1   2
BRANCH   1   4
ATOM      4  C   UNL     1       1.082   9.047  19.895  0.00  0.00    +0.000 C 
BRANCH   4  11
ATOM      5  O   UNL     1       1.473  11.337  21.310  0.00  0.00    +0.000 OA
ATOM      6  C   UNL     1       0.623  11.389  20.416  0.00  0.00    +0.000 C 
ATOM      7  C   UNL     1      -0.079  12.709  20.077  0.00  0.00    +0.000 C 
ATOM      8  C   UNL     1      -1.395  12.515  19.320  0.00  0.00    +0.000 C 
ATOM      9  C   UNL     1      -1.215  11.562  18.152  0.00  0.00    +0.000 C 
ATOM     10  C   UNL     1      -0.730  10.217  18.660  0.00  0.00    +0.000 C 
ATOM     11  N   UNL     1       0.384  10.293  19.595  0.00  0.00    +0.000 N 
BRANCH   7  12
ATOM     12  C   UNL     1       0.860  13.693  19.375  0.00  0.00    +0.000 A 
ATOM     13  C   UNL     1       2.048  13.268  18.762  0.00  0.00    +0.000 A 
ATOM     14  C   UNL     1       2.926  14.191  18.197  0.00  0.00    +0.000 A 
ATOM     15  C   UNL     1       2.615  15.548  18.214  0.00  0.00    +0.000 A 
ATOM     16  C   UNL     1       1.417  15.986  18.791  0.00  0.00    +0.000 A 
ATOM     17  C   UNL     1       0.553  15.055  19.377  0.00  0.00    +0.000 A 
ENDBRANCH   7  12
ENDBRANCH   4  11
ENDBRANCH   1   4
BRANCH   1  18
ATOM     18  C   UNL     1       2.548   7.199  19.213  0.00  0.00    +0.000 C 
BRANCH  18  19
ATOM     19  N   UNL     1       2.683   5.993  18.391  0.00  0.00    +0.000 N 
ATOM     20  C   UNL     1       3.847   5.768  17.660  0.00  0.00    +0.000 A 
ATOM     21  C   UNL     1       4.505   6.566  16.709  0.00  0.00    +0.000 A 
ATOM     22  C   UNL     1       5.744   6.117  16.240  0.00  0.00    +0.000 A 
ATOM     23  C   UNL     1       6.300   4.940  16.727  0.00  0.00    +0.000 A 
ATOM     24  F   UNL     1       7.481   4.527  16.248  0.00  0.00    +0.000 F 
ATOM     25  C   UNL     1       5.672   4.182  17.714  0.00  0.00    +0.000 A 
ATOM     26  C   UNL     1       4.410   4.595  18.186  0.00  0.00    +0.000 A 
ATOM     27  C   UNL     1       3.515   4.122  19.191  0.00  0.00    +0.000 A 
ATOM     28  C   UNL     1       3.581   3.193  20.239  0.00  0.00    +0.000 A 
ATOM     29  C   UNL     1       2.414   2.934  20.960  0.00  0.00    +0.000 A 
ATOM     30  F   UNL     1       2.487   2.177  22.064  0.00  0.00    +0.000 F 
ATOM     31  C   UNL     1       1.180   3.458  20.586  0.00  0.00    +0.000 A 
ATOM     32  C   UNL     1       1.093   4.399  19.560  0.00  0.00    +0.000 A 
ATOM     33  C   UNL     1       2.304   4.782  18.969  0.00  0.00    +0.000 A 
ENDBRANCH  18  19
ENDBRANCH   1  18
TORSDOF 6
ENDMDL
MODEL 6
REMARK VINA RESULT:      -8.5      3.535      9.139
REMARK  Name = 
REMARK  6 active torsions:
REMARK  status: ('A' for Active; 'I' for Inactive)
REMARK    1  A    between atoms: C_3  and  C_4
REMARK    2  A    between atoms: N_13  and  C_14
REMARK    3  A    between atoms: C_14  and  C_15
REMARK    4  A    between atoms: C_15  and  O_16
REMARK    5  A    between atoms: C_15  and  C_17
REMARK    6  A    between atoms: C_17  and  N_18
REMARK                            x       y       z     vdW  Elec       q    Type
REMARK                         _______ _______ _______ _____ _____    ______ ____
ROOT
ATOM      1  C   UNL     1       0.916   8.715  21.451  0.00  0.00    +0.000 C 
ENDROOT
BRANCH   1   2
ATOM      2  O   UNL     1       1.578   9.573  22.383  0.00  0.00    +0.000 OA
ATOM      3  H   UNL     1       1.097  10.424  22.406  0.00  0.00    +0.000 HD
ENDBRANCH   1   2
BRANCH   1   4
ATOM      4  C   UNL     1       1.713   8.572  20.129  0.00  0.00    +0.000 C 
BRANCH   4  11
ATOM      5  O   UNL     1       2.652   7.896  17.667  0.00  0.00    +0.000 OA
ATOM      6  C   UNL     1       2.420   6.958  18.437  0.00  0.00    +0.000 C 
ATOM      7  C   UNL     1       2.751   5.516  18.038  0.00  0.00    +0.000 C 
ATOM      8  C   UNL     1       1.988   4.473  18.856  0.00  0.00    +0.000 C 
ATOM      9  C   UNL     1       2.087   4.770  20.342  0.00  0.00    +0.000 C 
ATOM     10  C   UNL     1       1.513   6.145  20.628  0.00  0.00    +0.000 C 
ATOM     11  N   UNL     1       1.991   7.193  19.738  0.00  0.00    +0.000 N 
BRANCH   7  12
ATOM     12  C   UNL     1       4.260   5.258  18.022  0.00  0.00    +0.000 A 
ATOM     13  C   UNL     1       5.070   5.556  19.129  0.00  0.00    +0.000 A 
ATOM     14  C   UNL     1       6.451   5.386  19.065  0.00  0.00    +0.000 A 
ATOM     15  C   UNL     1       7.038   4.890  17.905  0.00  0.00    +0.000 A 
ATOM     16  C   UNL     1       6.242   4.554  16.804  0.00  0.00    +0.000 A 
ATOM     17  C   UNL     1       4.859   4.751  16.868  0.00  0.00    +0.000 A 
ENDBRANCH   7  12
ENDBRANCH   4  11
ENDBRANCH   1   4
BRANCH   1  18
ATOM     18  C   UNL     1      -0.428   9.325  21.066  0.00  0.00    +0.000 C 
BRANCH  18  19
ATOM     19  N   UNL     1      -0.430  10.549  20.260  0.00  0.00    +0.000 N 
ATOM     20  C   UNL     1      -1.052  10.567  19.013  0.00  0.00    +0.000 A 
ATOM     21  C   UNL     1      -0.875   9.750  17.885  0.00  0.00    +0.000 A 
ATOM     22  C   UNL     1      -1.753   9.936  16.812  0.00  0.00    +0.000 A 
ATOM     23  C   UNL     1      -2.772  10.878  16.888  0.00  0.00    +0.000 A 
ATOM     24  F   UNL     1      -3.588  11.044  15.839  0.00  0.00    +0.000 F 
ATOM     25  C   UNL     1      -2.981  11.646  18.032  0.00  0.00    +0.000 A 
ATOM     26  C   UNL     1      -2.095  11.500  19.118  0.00  0.00    +0.000 A 
ATOM     27  C   UNL     1      -2.021  12.056  20.429  0.00  0.00    +0.000 A 
ATOM     28  C   UNL     1      -2.870  12.814  21.249  0.00  0.00    +0.000 A 
ATOM     29  C   UNL     1      -2.370  13.263  22.473  0.00  0.00    +0.000 A 
ATOM     30  F   UNL     1      -3.209  13.847  23.341  0.00  0.00    +0.000 F 
ATOM     31  C   UNL     1      -1.035  13.102  22.833  0.00  0.00    +0.000 A 
ATOM     32  C   UNL     1      -0.178  12.335  22.044  0.00  0.00    +0.000 A 
ATOM     33  C   UNL     1      -0.749  11.741  20.910  0.00  0.00    +0.000 A 
ENDBRANCH  18  19
ENDBRANCH   1  18
TORSDOF 6
ENDMDL
MODEL 7
REMARK VINA RESULT:      -8.5      1.378      2.284
REMARK  Name = 
REMARK  6 active torsions:
REMARK  status: ('A' for Active; 'I' for Inactive)
REMARK    1  A    between atoms: C_3  and  C_4
REMARK    2  A    between atoms: N_13  and  C_14
REMARK    3  A    between atoms: C_14  and  C_15
REMARK    4  A    between atoms: C_15  and  O_16
REMARK    5  A    between atoms: C_15  and  C_17
REMARK    6  A    between atoms: C_17  and  N_18
REMARK                            x       y       z     vdW  Elec       q    Type
REMARK                         _______ _______ _______ _____ _____    ______ ____
ROOT
ATOM      1  C   UNL     1       1.498   8.707  18.135  0.00  0.00    +0.000 C 
ENDROOT
BRANCH   1   2
ATOM      2  O   UNL     1       2.157   9.618  17.253  0.00  0.00    +0.000 OA
ATOM      3  H   UNL     1       1.481  10.017  16.669  0.00  0.00    +0.000 HD
ENDBRANCH   1   2
BRANCH   1   4
ATOM      4  C   UNL     1       2.002   8.848  19.595  0.00  0.00    +0.000 C 
BRANCH   4  11
ATOM      5  O   UNL     1       1.434  11.508  19.588  0.00  0.00    +0.000 OA
ATOM      6  C   UNL     1       0.865  10.833  20.452  0.00  0.00    +0.000 C 
ATOM      7  C   UNL     1      -0.174  11.466  21.384  0.00  0.00    +0.000 C 
ATOM      8  C   UNL     1      -0.414  10.656  22.659  0.00  0.00    +0.000 C 
ATOM      9  C   UNL     1      -0.645   9.190  22.336  0.00  0.00    +0.000 C 
ATOM     10  C   UNL     1       0.563   8.630  21.610  0.00  0.00    +0.000 C 
ATOM     11  N   UNL     1       1.040   9.455  20.509  0.00  0.00    +0.000 N 
BRANCH   7  12
ATOM     12  C   UNL     1      -1.475  11.800  20.648  0.00  0.00    +0.000 A 
ATOM     13  C   UNL     1      -2.494  12.547  21.257  0.00  0.00    +0.000 A 
ATOM     14  C   UNL     1      -3.700  12.773  20.597  0.00  0.00    +0.000 A 
ATOM     15  C   UNL     1      -3.893  12.278  19.310  0.00  0.00    +0.000 A 
ATOM     16  C   UNL     1      -2.873  11.560  18.675  0.00  0.00    +0.000 A 
ATOM     17  C   UNL     1      -1.675  11.317  19.354  0.00  0.00    +0.000 A 
ENDBRANCH   7  12
ENDBRANCH   4  11
ENDBRANCH   1   4
BRANCH   1  18
ATOM     18  C   UNL     1       1.817   7.275  17.719  0.00  0.00    +0.000 C 
BRANCH  18  19
ATOM     19  N   UNL     1       2.842   6.545  18.471  0.00  0.00    +0.000 N 
ATOM     20  C   UNL     1       2.481   5.485  19.301  0.00  0.00    +0.000 A 
ATOM     21  C   UNL     1       1.564   5.419  20.364  0.00  0.00    +0.000 A 
ATOM     22  C   UNL     1       1.322   4.162  20.926  0.00  0.00    +0.000 A 
ATOM     23  C   UNL     1       1.952   3.030  20.424  0.00  0.00    +0.000 A 
ATOM     24  F   UNL     1       1.712   1.841  20.994  0.00  0.00    +0.000 F 
ATOM     25  C   UNL     1       2.816   3.090  19.333  0.00  0.00    +0.000 A 
ATOM     26  C   UNL     1       3.100   4.347  18.762  0.00  0.00    +0.000 A 
ATOM     27  C   UNL     1       3.868   4.786  17.643  0.00  0.00    +0.000 A 
ATOM     28  C   UNL     1       4.495   4.170  16.550  0.00  0.00    +0.000 A 
ATOM     29  C   UNL     1       5.261   4.968  15.698  0.00  0.00    +0.000 A 
ATOM     30  F   UNL     1       5.733   4.437  14.562  0.00  0.00    +0.000 F 
ATOM     31  C   UNL     1       5.530   6.305  15.978  0.00  0.00    +0.000 A 
ATOM     32  C   UNL     1       4.903   6.944  17.047  0.00  0.00    +0.000 A 
ATOM     33  C   UNL     1       3.995   6.170  17.781  0.00  0.00    +0.000 A 
ENDBRANCH  18  19
ENDBRANCH   1  18
TORSDOF 6
ENDMDL
MODEL 8
REMARK VINA RESULT:      -8.4      1.739      2.708
REMARK  Name = 
REMARK  6 active torsions:
REMARK  status: ('A' for Active; 'I' for Inactive)
REMARK    1  A    between atoms: C_3  and  C_4
REMARK    2  A    between atoms: N_13  and  C_14
REMARK    3  A    between atoms: C_14  and  C_15
REMARK    4  A    between atoms: C_15  and  O_16
REMARK    5  A    between atoms: C_15  and  C_17
REMARK    6  A    between atoms: C_17  and  N_18
REMARK                            x       y       z     vdW  Elec       q    Type
REMARK                         _______ _______ _______ _____ _____    ______ ____
ROOT
ATOM      1  C   UNL     1       2.041   8.061  18.041  0.00  0.00    +0.000 C 
ENDROOT
BRANCH   1   2
ATOM      2  O   UNL     1       1.611   9.103  17.162  0.00  0.00    +0.000 OA
ATOM      3  H   UNL     1       1.396   8.700  16.297  0.00  0.00    +0.000 HD
ENDBRANCH   1   2
BRANCH   1   4
ATOM      4  C   UNL     1       2.413   8.605  19.445  0.00  0.00    +0.000 C 
BRANCH   4  11
ATOM      5  O   UNL     1       1.556  11.166  19.120  0.00  0.00    +0.000 OA
ATOM      6  C   UNL     1       0.971  10.502  19.982  0.00  0.00    +0.000 C 
ATOM      7  C   UNL     1      -0.232  11.080  20.735  0.00  0.00    +0.000 C 
ATOM      8  C   UNL     1      -0.525  10.358  22.051  0.00  0.00    +0.000 C 
ATOM      9  C   UNL     1      -0.552   8.853  21.851  0.00  0.00    +0.000 C 
ATOM     10  C   UNL     1       0.787   8.385  21.312  0.00  0.00    +0.000 C 
ATOM     11  N   UNL     1       1.291   9.166  20.191  0.00  0.00    +0.000 N 
BRANCH   7  12
ATOM     12  C   UNL     1      -1.470  11.189  19.840  0.00  0.00    +0.000 A 
ATOM     13  C   UNL     1      -1.623  10.392  18.695  0.00  0.00    +0.000 A 
ATOM     14  C   UNL     1      -2.719  10.562  17.852  0.00  0.00    +0.000 A 
ATOM     15  C   UNL     1      -3.691  11.511  18.158  0.00  0.00    +0.000 A 
ATOM     16  C   UNL     1      -3.572  12.289  19.314  0.00  0.00    +0.000 A 
ATOM     17  C   UNL     1      -2.456  12.130  20.142  0.00  0.00    +0.000 A 
ENDBRANCH   7  12
ENDBRANCH   4  11
ENDBRANCH   1   4
BRANCH   1  18
ATOM     18  C   UNL     1       3.312   7.424  17.489  0.00  0.00    +0.000 C 
BRANCH  18  19
ATOM     19  N   UNL     1       3.841   6.233  18.161  0.00  0.00    +0.000 N 
ATOM     20  C   UNL     1       2.997   5.167  18.467  0.00  0.00    +0.000 A 
ATOM     21  C   UNL     1       1.797   5.123  19.196  0.00  0.00    +0.000 A 
ATOM     22  C   UNL     1       1.104   3.908  19.218  0.00  0.00    +0.000 A 
ATOM     23  C   UNL     1       1.584   2.807  18.518  0.00  0.00    +0.000 A 
ATOM     24  F   UNL     1       0.905   1.653  18.571  0.00  0.00    +0.000 F 
ATOM     25  C   UNL     1       2.743   2.872  17.749  0.00  0.00    +0.000 A 
ATOM     26  C   UNL     1       3.478   4.074  17.729  0.00  0.00    +0.000 A 
ATOM     27  C   UNL     1       4.646   4.521  17.042  0.00  0.00    +0.000 A 
ATOM     28  C   UNL     1       5.433   4.046  15.983  0.00  0.00    +0.000 A 
ATOM     29  C   UNL     1       6.595   4.750  15.663  0.00  0.00    +0.000 A 
ATOM     30  F   UNL     1       7.274   4.413  14.557  0.00  0.00    +0.000 F 
ATOM     31  C   UNL     1       7.059   5.807  16.440  0.00  0.00    +0.000 A 
ATOM     32  C   UNL     1       6.285   6.309  17.486  0.00  0.00    +0.000 A 
ATOM     33  C   UNL     1       5.036   5.704  17.675  0.00  0.00    +0.000 A 
ENDBRANCH  18  19
ENDBRANCH   1  18
TORSDOF 6
ENDMDL
MODEL 9
REMARK VINA RESULT:      -8.3      3.651      8.712
REMARK  Name = 
REMARK  6 active torsions:
REMARK  status: ('A' for Active; 'I' for Inactive)
REMARK    1  A    between atoms: C_3  and  C_4
REMARK    2  A    between atoms: N_13  and  C_14
REMARK    3  A    between atoms: C_14  and  C_15
REMARK    4  A    between atoms: C_15  and  O_16
REMARK    5  A    between atoms: C_15  and  C_17
REMARK    6  A    between atoms: C_17  and  N_18
REMARK                            x       y       z     vdW  Elec       q    Type
REMARK                         _______ _______ _______ _____ _____    ______ ____
ROOT
ATOM      1  C   UNL     1       2.027  10.184  18.419  0.00  0.00    +0.000 C 
ENDROOT
BRANCH   1   2
ATOM      2  O   UNL     1       2.395  11.070  17.359  0.00  0.00    +0.000 OA
ATOM      3  H   UNL     1       1.629  11.647  17.167  0.00  0.00    +0.000 HD
ENDBRANCH   1   2
BRANCH   1   4
ATOM      4  C   UNL     1       1.545   8.811  17.885  0.00  0.00    +0.000 C 
BRANCH   4  11
ATOM      5  O   UNL     1       1.402   7.615  20.324  0.00  0.00    +0.000 OA
ATOM      6  C   UNL     1       2.269   7.184  19.558  0.00  0.00    +0.000 C 
ATOM      7  C   UNL     1       3.129   5.976  19.946  0.00  0.00    +0.000 C 
ATOM      8  C   UNL     1       4.426   5.874  19.141  0.00  0.00    +0.000 C 
ATOM      9  C   UNL     1       4.155   6.023  17.654  0.00  0.00    +0.000 C 
ATOM     10  C   UNL     1       3.505   7.367  17.384  0.00  0.00    +0.000 C 
ATOM     11  N   UNL     1       2.392   7.685  18.267  0.00  0.00    +0.000 N 
BRANCH   7  12
ATOM     12  C   UNL     1       2.325   4.672  19.928  0.00  0.00    +0.000 A 
ATOM     13  C   UNL     1       2.148   3.901  21.086  0.00  0.00    +0.000 A 
ATOM     14  C   UNL     1       1.480   2.679  21.031  0.00  0.00    +0.000 A 
ATOM     15  C   UNL     1       0.956   2.227  19.824  0.00  0.00    +0.000 A 
ATOM     16  C   UNL     1       1.093   3.001  18.666  0.00  0.00    +0.000 A 
ATOM     17  C   UNL     1       1.786   4.214  18.725  0.00  0.00    +0.000 A 
ENDBRANCH   7  12
ENDBRANCH   4  11
ENDBRANCH   1   4
BRANCH   1  18
ATOM     18  C   UNL     1       0.847  10.773  19.186  0.00  0.00    +0.000 C 
BRANCH  18  19
ATOM     19  N   UNL     1      -0.067  11.670  18.472  0.00  0.00    +0.000 N 
ATOM     20  C   UNL     1      -1.349  11.242  18.135  0.00  0.00    +0.000 A 
ATOM     21  C   UNL     1      -1.785  10.120  17.410  0.00  0.00    +0.000 A 
ATOM     22  C   UNL     1      -3.162   9.888  17.351  0.00  0.00    +0.000 A 
ATOM     23  C   UNL     1      -4.050  10.730  18.012  0.00  0.00    +0.000 A 
ATOM     24  F   UNL     1      -5.365  10.491  17.924  0.00  0.00    +0.000 F 
ATOM     25  C   UNL     1      -3.611  11.807  18.778  0.00  0.00    +0.000 A 
ATOM     26  C   UNL     1      -2.230  12.082  18.834  0.00  0.00    +0.000 A 
ATOM     27  C   UNL     1      -1.428  13.034  19.530  0.00  0.00    +0.000 A 
ATOM     28  C   UNL     1      -1.632  13.953  20.570  0.00  0.00    +0.000 A 
ATOM     29  C   UNL     1      -0.580  14.805  20.908  0.00  0.00    +0.000 A 
ATOM     30  F   UNL     1      -0.694  15.576  21.999  0.00  0.00    +0.000 F 
ATOM     31  C   UNL     1       0.595  14.864  20.164  0.00  0.00    +0.000 A 
ATOM     32  C   UNL     1       0.829  13.948  19.139  0.00  0.00    +0.000 A 
ATOM     33  C   UNL     1      -0.165  12.982  18.935  0.00  0.00    +0.000 A 
ENDBRANCH  18  19
ENDBRANCH   1  18
TORSDOF 6
ENDMDL
