MODEL 1
REMARK VINA RESULT:      -8.2      0.000      0.000
REMARK  Name = 
REMARK  7 active torsions:
REMARK  status: ('A' for Active; 'I' for Inactive)
REMARK    1  A    between atoms: C_1  and  C_2
REMARK    2  A    between atoms: C_2  and  C_3
REMARK    3  A    between atoms: C_7  and  N_8
REMARK    4  A    between atoms: N_14  and  C_15
REMARK    5  A    between atoms: C_15  and  C_16
REMARK    6  A    between atoms: C_16  and  O_17
REMARK    7  A    between atoms: O_17  and  C_18
REMARK                            x       y       z     vdW  Elec       q    Type
REMARK                         _______ _______ _______ _____ _____    ______ ____
ROOT
ATOM      1  N   UNL     1       2.384   8.186  18.500  0.00  0.00    +0.000 N 
ATOM      2  C   UNL     1       2.803   6.939  18.904  0.00  0.00    +0.000 C 
ATOM      3  O   UNL     1       2.304   6.331  19.843  0.00  0.00    +0.000 OA
ATOM      4  N   UNL     1       3.818   6.371  18.139  0.00  0.00    +0.000 N 
ATOM      5  C   UNL     1       4.568   7.172  17.160  0.00  0.00    +0.000 C 
ATOM      6  C   UNL     1       5.005   6.373  15.942  0.00  0.00    +0.000 C 
ATOM      7  N   UNL     1       5.759   5.166  16.291  0.00  0.00    +0.000 NA
ATOM      8  C   UNL     1       4.979   4.331  17.230  0.00  0.00    +0.000 C 
ATOM      9  C   UNL     1       3.747   3.713  16.566  0.00  0.00    +0.000 C 
ATOM     10  S   UNL     1       2.852   3.004  17.917  0.00  0.00    +0.000 S 
ATOM     11  O   UNL     1       3.284   1.623  18.084  0.00  0.00    +0.000 OA
ATOM     12  O   UNL     1       1.448   3.347  17.767  0.00  0.00    +0.000 OA
ATOM     13  C   UNL     1       3.580   3.979  19.207  0.00  0.00    +0.000 C 
ATOM     14  C   UNL     1       4.443   5.056  18.515  0.00  0.00    +0.000 C 
ATOM     15  H   UNL     1       2.723   8.583  17.648  0.00  0.00    +0.000 HD
ENDROOT
BRANCH   1  20
ATOM     16  C   UNL     1       0.104   9.624  21.019  0.00  0.00    +0.000 A 
ATOM     17  C   UNL     1      -0.683  10.455  20.212  0.00  0.00    +0.000 A 
ATOM     18  C   UNL     1      -0.449  10.527  18.850  0.00  0.00    +0.000 A 
ATOM     19  C   UNL     1       0.552   9.774  18.266  0.00  0.00    +0.000 A 
ATOM     20  C   UNL     1       1.350   8.957  19.050  0.00  0.00    +0.000 A 
ATOM     21  C   UNL     1       1.130   8.877  20.424  0.00  0.00    +0.000 A 
BRANCH  16  23
ATOM     22  C   UNL     1      -0.946  10.697  23.027  0.00  0.00    +0.000 C 
ATOM     23  C   UNL     1      -0.156   9.508  22.498  0.00  0.00    +0.000 C 
ENDBRANCH  16  23
ENDBRANCH   1  20
BRANCH   7  24
ATOM     24  C   UNL     1       7.096   5.523  16.819  0.00  0.00    +0.000 C 
BRANCH  24  25
ATOM     25  C   UNL     1       7.756   4.406  17.643  0.00  0.00    +0.000 C 
BRANCH  25  26
ATOM     26  O   UNL     1       8.042   4.858  18.964  0.00  0.00    +0.000 OA
ATOM     27  C   UNL     1       7.928   6.271  19.048  0.00  0.00    +0.000 C 
ENDBRANCH  25  26
ENDBRANCH  24  25
ENDBRANCH   7  24
TORSDOF 5
ENDMDL
MODEL 2
REMARK VINA RESULT:      -8.1      0.716      1.845
REMARK  Name = 
REMARK  7 active torsions:
REMARK  status: ('A' for Active; 'I' for Inactive)
REMARK    1  A    between atoms: C_1  and  C_2
REMARK    2  A    between atoms: C_2  and  C_3
REMARK    3  A    between atoms: C_7  and  N_8
REMARK    4  A    between atoms: N_14  and  C_15
REMARK    5  A    between atoms: C_15  and  C_16
REMARK    6  A    between atoms: C_16  and  O_17
REMARK    7  A    between atoms: O_17  and  C_18
REMARK                            x       y       z     vdW  Elec       q    Type
REMARK                         _______ _______ _______ _____ _____    ______ ____
ROOT
ATOM      1  N   UNL     1       2.349   8.218  18.417  0.00  0.00    +0.000 N 
ATOM      2  C   UNL     1       2.760   6.977  18.846  0.00  0.00    +0.000 C 
ATOM      3  O   UNL     1       2.242   6.382  19.782  0.00  0.00    +0.000 OA
ATOM      4  N   UNL     1       3.791   6.399  18.109  0.00  0.00    +0.000 N 
ATOM      5  C   UNL     1       4.560   7.187  17.135  0.00  0.00    +0.000 C 
ATOM      6  C   UNL     1       5.022   6.371  15.938  0.00  0.00    +0.000 C 
ATOM      7  N   UNL     1       5.770   5.170  16.318  0.00  0.00    +0.000 NA
ATOM      8  C   UNL     1       4.970   4.347  17.253  0.00  0.00    +0.000 C 
ATOM      9  C   UNL     1       3.752   3.719  16.572  0.00  0.00    +0.000 C 
ATOM     10  S   UNL     1       2.829   3.029  17.913  0.00  0.00    +0.000 S 
ATOM     11  O   UNL     1       3.258   1.650  18.108  0.00  0.00    +0.000 OA
ATOM     12  O   UNL     1       1.429   3.369  17.730  0.00  0.00    +0.000 OA
ATOM     13  C   UNL     1       3.531   4.022  19.205  0.00  0.00    +0.000 C 
ATOM     14  C   UNL     1       4.408   5.089  18.516  0.00  0.00    +0.000 C 
ATOM     15  H   UNL     1       2.706   8.604  17.566  0.00  0.00    +0.000 HD
ENDROOT
BRANCH   1  20
ATOM     16  C   UNL     1      -0.724  10.256  18.519  0.00  0.00    +0.000 A 
ATOM     17  C   UNL     1      -0.798  10.547  19.886  0.00  0.00    +0.000 A 
ATOM     18  C   UNL     1       0.168  10.064  20.753  0.00  0.00    +0.000 A 
ATOM     19  C   UNL     1       1.222   9.304  20.282  0.00  0.00    +0.000 A 
ATOM     20  C   UNL     1       1.304   8.996  18.935  0.00  0.00    +0.000 A 
ATOM     21  C   UNL     1       0.337   9.469  18.049  0.00  0.00    +0.000 A 
BRANCH  16  23
ATOM     22  C   UNL     1      -2.900   9.826  17.351  0.00  0.00    +0.000 C 
ATOM     23  C   UNL     1      -1.747  10.798  17.555  0.00  0.00    +0.000 C 
ENDBRANCH  16  23
ENDBRANCH   1  20
BRANCH   7  24
ATOM     24  C   UNL     1       7.095   5.534  16.869  0.00  0.00    +0.000 C 
BRANCH  24  25
ATOM     25  C   UNL     1       7.739   4.427  17.718  0.00  0.00    +0.000 C 
BRANCH  25  26
ATOM     26  O   UNL     1       8.113   4.930  18.999  0.00  0.00    +0.000 OA
ATOM     27  C   UNL     1       7.936   6.337  19.058  0.00  0.00    +0.000 C 
ENDBRANCH  25  26
ENDBRANCH  24  25
ENDBRANCH   7  24
TORSDOF 5
ENDMDL
MODEL 3
REMARK VINA RESULT:      -8.1      2.031      2.627
REMARK  Name = 
REMARK  7 active torsions:
REMARK  status: ('A' for Active; 'I' for Inactive)
REMARK    1  A    between atoms: C_1  and  C_2
REMARK    2  A    between atoms: C_2  and  C_3
REMARK    3  A    between atoms: C_7  and  N_8
REMARK    4  A    between atoms: N_14  and  C_15
REMARK    5  A    between atoms: C_15  and  C_16
REMARK    6  A    between atoms: C_16  and  O_17
REMARK    7  A    between atoms: O_17  and  C_18
REMARK                            x       y       z     vdW  Elec       q    Type
REMARK                         _______ _______ _______ _____ _____    ______ ____
ROOT
ATOM      1  N   UNL     1       2.001   8.436  18.164  0.00  0.00    +0.000 N 
ATOM      2  C   UNL     1       2.289   7.489  19.120  0.00  0.00    +0.000 C 
ATOM      3  O   UNL     1       1.749   7.454  20.219  0.00  0.00    +0.000 OA
ATOM      4  N   UNL     1       3.216   6.520  18.744  0.00  0.00    +0.000 N 
ATOM      5  C   UNL     1       4.025   6.677  17.526  0.00  0.00    +0.000 C 
ATOM      6  C   UNL     1       4.340   5.356  16.843  0.00  0.00    +0.000 C 
ATOM      7  N   UNL     1       4.965   4.382  17.742  0.00  0.00    +0.000 NA
ATOM      8  C   UNL     1       4.120   4.180  18.940  0.00  0.00    +0.000 C 
ATOM      9  C   UNL     1       2.811   3.460  18.608  0.00  0.00    +0.000 C 
ATOM     10  S   UNL     1       1.876   3.575  20.105  0.00  0.00    +0.000 S 
ATOM     11  O   UNL     1       2.157   2.397  20.916  0.00  0.00    +0.000 OA
ATOM     12  O   UNL     1       0.516   3.957  19.768  0.00  0.00    +0.000 OA
ATOM     13  C   UNL     1       2.740   4.957  20.806  0.00  0.00    +0.000 C 
ATOM     14  C   UNL     1       3.700   5.478  19.714  0.00  0.00    +0.000 C 
ATOM     15  H   UNL     1       2.361   8.344  17.236  0.00  0.00    +0.000 HD
ENDROOT
BRANCH   1  20
ATOM     16  C   UNL     1      -1.178  10.279  17.834  0.00  0.00    +0.000 A 
ATOM     17  C   UNL     1      -0.822  11.512  18.395  0.00  0.00    +0.000 A 
ATOM     18  C   UNL     1       0.461  11.714  18.874  0.00  0.00    +0.000 A 
ATOM     19  C   UNL     1       1.409  10.712  18.793  0.00  0.00    +0.000 A 
ATOM     20  C   UNL     1       1.073   9.482  18.254  0.00  0.00    +0.000 A 
ATOM     21  C   UNL     1      -0.216   9.260  17.772  0.00  0.00    +0.000 A 
BRANCH  16  23
ATOM     22  C   UNL     1      -2.666  10.501  15.829  0.00  0.00    +0.000 C 
ATOM     23  C   UNL     1      -2.559  10.050  17.278  0.00  0.00    +0.000 C 
ENDBRANCH  16  23
ENDBRANCH   1  20
BRANCH   7  24
ATOM     24  C   UNL     1       6.346   4.796  18.080  0.00  0.00    +0.000 C 
BRANCH  24  25
ATOM     25  C   UNL     1       7.293   4.846  16.871  0.00  0.00    +0.000 C 
BRANCH  25  26
ATOM     26  O   UNL     1       7.552   6.195  16.491  0.00  0.00    +0.000 OA
ATOM     27  C   UNL     1       7.628   7.034  17.633  0.00  0.00    +0.000 C 
ENDBRANCH  25  26
ENDBRANCH  24  25
ENDBRANCH   7  24
TORSDOF 5
ENDMDL
MODEL 4
REMARK VINA RESULT:      -7.7      1.658      2.136
REMARK  Name = 
REMARK  7 active torsions:
REMARK  status: ('A' for Active; 'I' for Inactive)
REMARK    1  A    between atoms: C_1  and  C_2
REMARK    2  A    between atoms: C_2  and  C_3
REMARK    3  A    between atoms: C_7  and  N_8
REMARK    4  A    between atoms: N_14  and  C_15
REMARK    5  A    between atoms: C_15  and  C_16
REMARK    6  A    between atoms: C_16  and  O_17
REMARK    7  A    between atoms: O_17  and  C_18
REMARK                            x       y       z     vdW  Elec       q    Type
REMARK                         _______ _______ _______ _____ _____    ______ ____
ROOT
ATOM      1  N   UNL     1       2.452   8.618  17.659  0.00  0.00    +0.000 N 
ATOM      2  C   UNL     1       2.806   7.507  18.390  0.00  0.00    +0.000 C 
ATOM      3  O   UNL     1       2.273   7.199  19.448  0.00  0.00    +0.000 OA
ATOM      4  N   UNL     1       3.794   6.707  17.823  0.00  0.00    +0.000 N 
ATOM      5  C   UNL     1       4.588   7.178  16.678  0.00  0.00    +0.000 C 
ATOM      6  C   UNL     1       4.988   6.061  15.727  0.00  0.00    +0.000 C 
ATOM      7  N   UNL     1       5.680   4.958  16.400  0.00  0.00    +0.000 NA
ATOM      8  C   UNL     1       4.854   4.445  17.516  0.00  0.00    +0.000 C 
ATOM      9  C   UNL     1       3.595   3.730  17.021  0.00  0.00    +0.000 C 
ATOM     10  S   UNL     1       2.660   3.454  18.496  0.00  0.00    +0.000 S 
ATOM     11  O   UNL     1       3.021   2.150  19.036  0.00  0.00    +0.000 OA
ATOM     12  O   UNL     1       1.276   3.810  18.235  0.00  0.00    +0.000 OA
ATOM     13  C   UNL     1       3.431   4.705  19.490  0.00  0.00    +0.000 C 
ATOM     14  C   UNL     1       4.351   5.513  18.549  0.00  0.00    +0.000 C 
ATOM     15  H   UNL     1       2.815   8.755  16.737  0.00  0.00    +0.000 HD
ENDROOT
BRANCH   1  20
ATOM     16  C   UNL     1      -0.896  10.140  17.945  0.00  0.00    +0.000 A 
ATOM     17  C   UNL     1      -0.574  11.368  18.535  0.00  0.00    +0.000 A 
ATOM     18  C   UNL     1       0.744  11.674  18.830  0.00  0.00    +0.000 A 
ATOM     19  C   UNL     1       1.757  10.782  18.534  0.00  0.00    +0.000 A 
ATOM     20  C   UNL     1       1.456   9.557  17.963  0.00  0.00    +0.000 A 
ATOM     21  C   UNL     1       0.134   9.231  17.665  0.00  0.00    +0.000 A 
BRANCH  16  23
ATOM     22  C   UNL     1      -2.601  10.033  16.109  0.00  0.00    +0.000 C 
ATOM     23  C   UNL     1      -2.320   9.802  17.587  0.00  0.00    +0.000 C 
ENDBRANCH  16  23
ENDBRANCH   1  20
BRANCH   7  24
ATOM     24  C   UNL     1       7.031   5.380  16.837  0.00  0.00    +0.000 C 
BRANCH  24  25
ATOM     25  C   UNL     1       7.471   4.765  18.174  0.00  0.00    +0.000 C 
BRANCH  25  26
ATOM     26  O   UNL     1       8.062   5.755  19.013  0.00  0.00    +0.000 OA
ATOM     27  C   UNL     1       7.929   7.046  18.437  0.00  0.00    +0.000 C 
ENDBRANCH  25  26
ENDBRANCH  24  25
ENDBRANCH   7  24
TORSDOF 5
ENDMDL
MODEL 5
REMARK VINA RESULT:      -7.6      1.332      1.588
REMARK  Name = 
REMARK  7 active torsions:
REMARK  status: ('A' for Active; 'I' for Inactive)
REMARK    1  A    between atoms: C_1  and  C_2
REMARK    2  A    between atoms: C_2  and  C_3
REMARK    3  A    between atoms: C_7  and  N_8
REMARK    4  A    between atoms: N_14  and  C_15
REMARK    5  A    between atoms: C_15  and  C_16
REMARK    6  A    between atoms: C_16  and  O_17
REMARK    7  A    between atoms: O_17  and  C_18
REMARK                            x       y       z     vdW  Elec       q    Type
REMARK                         _______ _______ _______ _____ _____    ______ ____
ROOT
ATOM      1  N   UNL     1       1.973   8.292  19.007  0.00  0.00    +0.000 N 
ATOM      2  C   UNL     1       2.268   7.092  19.614  0.00  0.00    +0.000 C 
ATOM      3  O   UNL     1       1.714   6.698  20.632  0.00  0.00    +0.000 OA
ATOM      4  N   UNL     1       3.220   6.310  18.965  0.00  0.00    +0.000 N 
ATOM      5  C   UNL     1       4.043   6.863  17.878  0.00  0.00    +0.000 C 
ATOM      6  C   UNL     1       4.394   5.836  16.813  0.00  0.00    +0.000 C 
ATOM      7  N   UNL     1       5.027   4.635  17.363  0.00  0.00    +0.000 NA
ATOM      8  C   UNL     1       4.170   4.045  18.416  0.00  0.00    +0.000 C 
ATOM      9  C   UNL     1       2.881   3.450  17.845  0.00  0.00    +0.000 C 
ATOM     10  S   UNL     1       1.924   3.063  19.281  0.00  0.00    +0.000 S 
ATOM     11  O   UNL     1       2.217   1.692  19.676  0.00  0.00    +0.000 OA
ATOM     12  O   UNL     1       0.560   3.513  19.058  0.00  0.00    +0.000 OA
ATOM     13  C   UNL     1       2.749   4.160  20.405  0.00  0.00    +0.000 C 
ATOM     14  C   UNL     1       3.713   5.019  19.558  0.00  0.00    +0.000 C 
ATOM     15  H   UNL     1       2.348   8.509  18.106  0.00  0.00    +0.000 HD
ENDROOT
BRANCH   1  20
ATOM     16  C   UNL     1      -0.180  10.305  21.224  0.00  0.00    +0.000 A 
ATOM     17  C   UNL     1      -0.851  11.098  20.285  0.00  0.00    +0.000 A 
ATOM     18  C   UNL     1      -0.582  10.955  18.935  0.00  0.00    +0.000 A 
ATOM     19  C   UNL     1       0.339  10.023  18.495  0.00  0.00    +0.000 A 
ATOM     20  C   UNL     1       1.022   9.240  19.410  0.00  0.00    +0.000 A 
ATOM     21  C   UNL     1       0.767   9.375  20.773  0.00  0.00    +0.000 A 
BRANCH  16  23
ATOM     22  C   UNL     1      -1.271  11.686  23.009  0.00  0.00    +0.000 C 
ATOM     23  C   UNL     1      -0.482  10.424  22.695  0.00  0.00    +0.000 C 
ENDBRANCH  16  23
ENDBRANCH   1  20
BRANCH   7  24
ATOM     24  C   UNL     1       6.394   4.939  17.844  0.00  0.00    +0.000 C 
BRANCH  24  25
ATOM     25  C   UNL     1       7.500   4.570  16.844  0.00  0.00    +0.000 C 
BRANCH  25  26
ATOM     26  O   UNL     1       7.532   5.500  15.764  0.00  0.00    +0.000 OA
ATOM     27  C   UNL     1       7.130   4.877  14.553  0.00  0.00    +0.000 C 
ENDBRANCH  25  26
ENDBRANCH  24  25
ENDBRANCH   7  24
TORSDOF 5
ENDMDL
MODEL 6
REMARK VINA RESULT:      -7.6      1.423      1.561
REMARK  Name = 
REMARK  7 active torsions:
REMARK  status: ('A' for Active; 'I' for Inactive)
REMARK    1  A    between atoms: C_1  and  C_2
REMARK    2  A    between atoms: C_2  and  C_3
REMARK    3  A    between atoms: C_7  and  N_8
REMARK    4  A    between atoms: N_14  and  C_15
REMARK    5  A    between atoms: C_15  and  C_16
REMARK    6  A    between atoms: C_16  and  O_17
REMARK    7  A    between atoms: O_17  and  C_18
REMARK                            x       y       z     vdW  Elec       q    Type
REMARK                         _______ _______ _______ _____ _____    ______ ____
ROOT
ATOM      1  N   UNL     1       1.830   8.361  18.895  0.00  0.00    +0.000 N 
ATOM      2  C   UNL     1       2.145   7.253  19.649  0.00  0.00    +0.000 C 
ATOM      3  O   UNL     1       1.624   7.003  20.729  0.00  0.00    +0.000 OA
ATOM      4  N   UNL     1       3.075   6.387  19.082  0.00  0.00    +0.000 N 
ATOM      5  C   UNL     1       3.862   6.783  17.905  0.00  0.00    +0.000 C 
ATOM      6  C   UNL     1       4.180   5.621  16.978  0.00  0.00    +0.000 C 
ATOM      7  N   UNL     1       4.830   4.502  17.665  0.00  0.00    +0.000 NA
ATOM      8  C   UNL     1       4.007   4.064  18.815  0.00  0.00    +0.000 C 
ATOM      9  C   UNL     1       2.701   3.403  18.371  0.00  0.00    +0.000 C 
ATOM     10  S   UNL     1       1.790   3.218  19.876  0.00  0.00    +0.000 S 
ATOM     11  O   UNL     1       2.097   1.911  20.444  0.00  0.00    +0.000 OA
ATOM     12  O   UNL     1       0.421   3.639  19.638  0.00  0.00    +0.000 OA
ATOM     13  C   UNL     1       2.651   4.453  20.814  0.00  0.00    +0.000 C 
ATOM     14  C   UNL     1       3.587   5.185  19.829  0.00  0.00    +0.000 C 
ATOM     15  H   UNL     1       2.176   8.452  17.962  0.00  0.00    +0.000 HD
ENDROOT
BRANCH   1  20
ATOM     16  C   UNL     1      -0.237  10.678  20.886  0.00  0.00    +0.000 A 
ATOM     17  C   UNL     1      -0.951  11.326  19.871  0.00  0.00    +0.000 A 
ATOM     18  C   UNL     1      -0.739  10.988  18.546  0.00  0.00    +0.000 A 
ATOM     19  C   UNL     1       0.167  10.001  18.207  0.00  0.00    +0.000 A 
ATOM     20  C   UNL     1       0.893   9.359  19.196  0.00  0.00    +0.000 A 
ATOM     21  C   UNL     1       0.695   9.691  20.535  0.00  0.00    +0.000 A 
BRANCH  16  23
ATOM     22  C   UNL     1      -0.371   9.777  23.222  0.00  0.00    +0.000 C 
ATOM     23  C   UNL     1      -0.477  11.009  22.336  0.00  0.00    +0.000 C 
ENDBRANCH  16  23
ENDBRANCH   1  20
BRANCH   7  24
ATOM     24  C   UNL     1       6.212   4.864  18.057  0.00  0.00    +0.000 C 
BRANCH  24  25
ATOM     25  C   UNL     1       7.179   4.991  16.870  0.00  0.00    +0.000 C 
BRANCH  25  26
ATOM     26  O   UNL     1       7.575   6.349  16.688  0.00  0.00    +0.000 OA
ATOM     27  C   UNL     1       7.718   7.003  17.940  0.00  0.00    +0.000 C 
ENDBRANCH  25  26
ENDBRANCH  24  25
ENDBRANCH   7  24
TORSDOF 5
ENDMDL
MODEL 7
REMARK VINA RESULT:      -7.5      2.075      2.447
REMARK  Name = 
REMARK  7 active torsions:
REMARK  status: ('A' for Active; 'I' for Inactive)
REMARK    1  A    between atoms: C_1  and  C_2
REMARK    2  A    between atoms: C_2  and  C_3
REMARK    3  A    between atoms: C_7  and  N_8
REMARK    4  A    between atoms: N_14  and  C_15
REMARK    5  A    between atoms: C_15  and  C_16
REMARK    6  A    between atoms: C_16  and  O_17
REMARK    7  A    between atoms: O_17  and  C_18
REMARK                            x       y       z     vdW  Elec       q    Type
REMARK                         _______ _______ _______ _____ _____    ______ ____
ROOT
ATOM      1  N   UNL     1       2.072   8.454  18.129  0.00  0.00    +0.000 N 
ATOM      2  C   UNL     1       2.352   7.503  19.084  0.00  0.00    +0.000 C 
ATOM      3  O   UNL     1       1.829   7.483  20.190  0.00  0.00    +0.000 OA
ATOM      4  N   UNL     1       3.251   6.512  18.696  0.00  0.00    +0.000 N 
ATOM      5  C   UNL     1       4.045   6.647  17.466  0.00  0.00    +0.000 C 
ATOM      6  C   UNL     1       4.319   5.317  16.782  0.00  0.00    +0.000 C 
ATOM      7  N   UNL     1       4.935   4.332  17.674  0.00  0.00    +0.000 NA
ATOM      8  C   UNL     1       4.103   4.152  18.885  0.00  0.00    +0.000 C 
ATOM      9  C   UNL     1       2.773   3.462  18.574  0.00  0.00    +0.000 C 
ATOM     10  S   UNL     1       1.864   3.602  20.085  0.00  0.00    +0.000 S 
ATOM     11  O   UNL     1       2.129   2.420  20.895  0.00  0.00    +0.000 OA
ATOM     12  O   UNL     1       0.508   4.015  19.768  0.00  0.00    +0.000 OA
ATOM     13  C   UNL     1       2.770   4.965  20.769  0.00  0.00    +0.000 C 
ATOM     14  C   UNL     1       3.725   5.461  19.662  0.00  0.00    +0.000 C 
ATOM     15  H   UNL     1       2.416   8.352  17.196  0.00  0.00    +0.000 HD
ENDROOT
BRANCH   1  20
ATOM     16  C   UNL     1       0.810  11.875  18.686  0.00  0.00    +0.000 A 
ATOM     17  C   UNL     1      -0.558  11.689  18.450  0.00  0.00    +0.000 A 
ATOM     18  C   UNL     1      -1.042  10.437  18.110  0.00  0.00    +0.000 A 
ATOM     19  C   UNL     1      -0.188   9.354  18.013  0.00  0.00    +0.000 A 
ATOM     20  C   UNL     1       1.170   9.522  18.230  0.00  0.00    +0.000 A 
ATOM     21  C   UNL     1       1.673  10.777  18.568  0.00  0.00    +0.000 A 
BRANCH  16  23
ATOM     22  C   UNL     1       2.658  13.540  18.379  0.00  0.00    +0.000 C 
ATOM     23  C   UNL     1       1.350  13.222  19.089  0.00  0.00    +0.000 C 
ENDBRANCH  16  23
ENDBRANCH   1  20
BRANCH   7  24
ATOM     24  C   UNL     1       6.330   4.715  17.991  0.00  0.00    +0.000 C 
BRANCH  24  25
ATOM     25  C   UNL     1       7.233   4.846  16.755  0.00  0.00    +0.000 C 
BRANCH  25  26
ATOM     26  O   UNL     1       7.553   6.213  16.509  0.00  0.00    +0.000 OA
ATOM     27  C   UNL     1       7.603   6.945  17.725  0.00  0.00    +0.000 C 
ENDBRANCH  25  26
ENDBRANCH  24  25
ENDBRANCH   7  24
TORSDOF 5
ENDMDL
MODEL 8
REMARK VINA RESULT:      -7.5      1.408      2.304
REMARK  Name = 
REMARK  7 active torsions:
REMARK  status: ('A' for Active; 'I' for Inactive)
REMARK    1  A    between atoms: C_1  and  C_2
REMARK    2  A    between atoms: C_2  and  C_3
REMARK    3  A    between atoms: C_7  and  N_8
REMARK    4  A    between atoms: N_14  and  C_15
REMARK    5  A    between atoms: C_15  and  C_16
REMARK    6  A    between atoms: C_16  and  O_17
REMARK    7  A    between atoms: O_17  and  C_18
REMARK                            x       y       z     vdW  Elec       q    Type
REMARK                         _______ _______ _______ _____ _____    ______ ____
ROOT
ATOM      1  N   UNL     1       2.038   8.147  19.213  0.00  0.00    +0.000 N 
ATOM      2  C   UNL     1       2.321   6.891  19.698  0.00  0.00    +0.000 C 
ATOM      3  O   UNL     1       1.773   6.409  20.681  0.00  0.00    +0.000 OA
ATOM      4  N   UNL     1       3.253   6.162  18.965  0.00  0.00    +0.000 N 
ATOM      5  C   UNL     1       4.072   6.804  17.926  0.00  0.00    +0.000 C 
ATOM      6  C   UNL     1       4.395   5.879  16.763  0.00  0.00    +0.000 C 
ATOM      7  N   UNL     1       5.016   4.622  17.188  0.00  0.00    +0.000 NA
ATOM      8  C   UNL     1       4.162   3.946  18.190  0.00  0.00    +0.000 C 
ATOM      9  C   UNL     1       2.857   3.427  17.581  0.00  0.00    +0.000 C 
ATOM     10  S   UNL     1       1.911   2.918  18.986  0.00  0.00    +0.000 S 
ATOM     11  O   UNL     1       2.188   1.511  19.245  0.00  0.00    +0.000 OA
ATOM     12  O   UNL     1       0.552   3.407  18.825  0.00  0.00    +0.000 OA
ATOM     13  C   UNL     1       2.765   3.890  20.199  0.00  0.00    +0.000 C 
ATOM     14  C   UNL     1       3.732   4.812  19.426  0.00  0.00    +0.000 C 
ATOM     15  H   UNL     1       2.406   8.445  18.332  0.00  0.00    +0.000 HD
ENDROOT
BRANCH   1  20
ATOM     16  C   UNL     1      -0.490  10.833  19.267  0.00  0.00    +0.000 A 
ATOM     17  C   UNL     1      -0.753  10.914  20.640  0.00  0.00    +0.000 A 
ATOM     18  C   UNL     1      -0.092  10.080  21.526  0.00  0.00    +0.000 A 
ATOM     19  C   UNL     1       0.843   9.170  21.072  0.00  0.00    +0.000 A 
ATOM     20  C   UNL     1       1.106   9.066  19.716  0.00  0.00    +0.000 A 
ATOM     21  C   UNL     1       0.446   9.895  18.811  0.00  0.00    +0.000 A 
BRANCH  16  23
ATOM     22  C   UNL     1      -2.570  11.261  17.936  0.00  0.00    +0.000 C 
ATOM     23  C   UNL     1      -1.175  11.754  18.292  0.00  0.00    +0.000 C 
ENDBRANCH  16  23
ENDBRANCH   1  20
BRANCH   7  24
ATOM     24  C   UNL     1       6.393   4.859  17.678  0.00  0.00    +0.000 C 
BRANCH  24  25
ATOM     25  C   UNL     1       7.485   4.505  16.657  0.00  0.00    +0.000 C 
BRANCH  25  26
ATOM     26  O   UNL     1       7.524   5.469  15.608  0.00  0.00    +0.000 OA
ATOM     27  C   UNL     1       7.149   4.882  14.371  0.00  0.00    +0.000 C 
ENDBRANCH  25  26
ENDBRANCH  24  25
ENDBRANCH   7  24
TORSDOF 5
ENDMDL
MODEL 9
REMARK VINA RESULT:      -7.5      1.143      1.315
REMARK  Name = 
REMARK  7 active torsions:
REMARK  status: ('A' for Active; 'I' for Inactive)
REMARK    1  A    between atoms: C_1  and  C_2
REMARK    2  A    between atoms: C_2  and  C_3
REMARK    3  A    between atoms: C_7  and  N_8
REMARK    4  A    between atoms: N_14  and  C_15
REMARK    5  A    between atoms: C_15  and  C_16
REMARK    6  A    between atoms: C_16  and  O_17
REMARK    7  A    between atoms: O_17  and  C_18
REMARK                            x       y       z     vdW  Elec       q    Type
REMARK                         _______ _______ _______ _____ _____    ______ ____
ROOT
ATOM      1  N   UNL     1       2.319   8.509  17.898  0.00  0.00    +0.000 N 
ATOM      2  C   UNL     1       2.689   7.331  18.506  0.00  0.00    +0.000 C 
ATOM      3  O   UNL     1       2.134   6.883  19.501  0.00  0.00    +0.000 OA
ATOM      4  N   UNL     1       3.722   6.635  17.884  0.00  0.00    +0.000 N 
ATOM      5  C   UNL     1       4.534   7.262  16.831  0.00  0.00    +0.000 C 
ATOM      6  C   UNL     1       5.004   6.279  15.771  0.00  0.00    +0.000 C 
ATOM      7  N   UNL     1       5.712   5.126  16.334  0.00  0.00    +0.000 NA
ATOM      8  C   UNL     1       4.869   4.459  17.352  0.00  0.00    +0.000 C 
ATOM      9  C   UNL     1       3.653   3.768  16.732  0.00  0.00    +0.000 C 
ATOM     10  S   UNL     1       2.681   3.291  18.130  0.00  0.00    +0.000 S 
ATOM     11  O   UNL     1       3.071   1.944  18.525  0.00  0.00    +0.000 OA
ATOM     12  O   UNL     1       1.295   3.632  17.864  0.00  0.00    +0.000 OA
ATOM     13  C   UNL     1       3.376   4.439  19.291  0.00  0.00    +0.000 C 
ATOM     14  C   UNL     1       4.296   5.381  18.485  0.00  0.00    +0.000 C 
ATOM     15  H   UNL     1       2.706   8.765  17.012  0.00  0.00    +0.000 HD
ENDROOT
BRANCH   1  20
ATOM     16  C   UNL     1       0.517  11.163  19.719  0.00  0.00    +0.000 A 
ATOM     17  C   UNL     1      -0.727  11.119  19.078  0.00  0.00    +0.000 A 
ATOM     18  C   UNL     1      -0.951  10.215  18.054  0.00  0.00    +0.000 A 
ATOM     19  C   UNL     1       0.041   9.336  17.660  0.00  0.00    +0.000 A 
ATOM     20  C   UNL     1       1.282   9.374  18.274  0.00  0.00    +0.000 A 
ATOM     21  C   UNL     1       1.525  10.282  19.303  0.00  0.00    +0.000 A 
BRANCH  16  23
ATOM     22  C   UNL     1       1.867  13.117  20.521  0.00  0.00    +0.000 C 
ATOM     23  C   UNL     1       0.769  12.118  20.856  0.00  0.00    +0.000 C 
ENDBRANCH  16  23
ENDBRANCH   1  20
BRANCH   7  24
ATOM     24  C   UNL     1       7.033   5.535  16.865  0.00  0.00    +0.000 C 
BRANCH  24  25
ATOM     25  C   UNL     1       7.747   4.434  17.665  0.00  0.00    +0.000 C 
BRANCH  25  26
ATOM     26  O   UNL     1       8.025   4.877  18.991  0.00  0.00    +0.000 OA
ATOM     27  C   UNL     1       7.925   6.291  19.081  0.00  0.00    +0.000 C 
ENDBRANCH  25  26
ENDBRANCH  24  25
ENDBRANCH   7  24
TORSDOF 5
ENDMDL
