MODEL 1
REMARK VINA RESULT:      -8.2      0.000      0.000
REMARK  Name = 
REMARK  4 active torsions:
REMARK  status: ('A' for Active; 'I' for Inactive)
REMARK    1  A    between atoms: N_3  and  C_4
REMARK    2  A    between atoms: N_16  and  S_17
REMARK    3  A    between atoms: S_17  and  C_20
REMARK    4  A    between atoms: C_21  and  C_22
REMARK                            x       y       z     vdW  Elec       q    Type
REMARK                         _______ _______ _______ _____ _____    ______ ____
ROOT
ATOM      1  O   UNL     1       2.544   6.741  20.307  0.00  0.00    +0.000 OA
ATOM      2  C   UNL     1       2.368   7.379  19.286  0.00  0.00    +0.000 C 
ATOM      3  N   UNL     1       2.795   7.014  18.030  0.00  0.00    +0.000 N 
ATOM      4  N   UNL     1       1.730   8.608  19.412  0.00  0.00    +0.000 N 
ATOM      5  H   UNL     1       3.029   7.793  17.423  0.00  0.00    +0.000 HD
ATOM      6  H   UNL     1       1.507   8.885  20.362  0.00  0.00    +0.000 HD
ENDROOT
BRANCH   3   7
ATOM      7  C   UNL     1       3.467   5.797  17.800  0.00  0.00    +0.000 A 
ATOM      8  C   UNL     1       2.821   4.562  17.874  0.00  0.00    +0.000 A 
ATOM      9  C   UNL     1       3.502   3.364  17.569  0.00  0.00    +0.000 A 
ATOM     10  C   UNL     1       4.846   3.354  17.236  0.00  0.00    +0.000 A 
ATOM     11  C   UNL     1       5.496   4.574  17.200  0.00  0.00    +0.000 A 
ATOM     12  C   UNL     1       4.819   5.787  17.449  0.00  0.00    +0.000 A 
ATOM     13  C   UNL     1       5.800   6.923  17.463  0.00  0.00    +0.000 C 
ATOM     14  C   UNL     1       7.049   6.302  16.817  0.00  0.00    +0.000 C 
ATOM     15  C   UNL     1       6.966   4.786  17.013  0.00  0.00    +0.000 C 
ATOM     16  C   UNL     1       2.580   2.189  17.599  0.00  0.00    +0.000 C 
ATOM     17  C   UNL     1       1.387   2.744  18.373  0.00  0.00    +0.000 C 
ATOM     18  C   UNL     1       1.375   4.263  18.148  0.00  0.00    +0.000 C 
ENDBRANCH   3   7
BRANCH   4  19
ATOM     19  S   UNL     1       1.259   9.675  18.254  0.00  0.00    +0.000 S 
ATOM     20  O   UNL     1       2.264  10.716  18.250  0.00  0.00    +0.000 OA
ATOM     21  O   UNL     1       0.992   8.889  17.064  0.00  0.00    +0.000 OA
BRANCH  19  22
ATOM     22  C   UNL     1      -0.247  10.343  18.783  0.00  0.00    +0.000 C 
ATOM     23  C   UNL     1      -1.300  10.375  17.951  0.00  0.00    +0.000 C 
BRANCH  23  24
ATOM     24  C   UNL     1      -2.611  10.928  18.324  0.00  0.00    +0.000 A 
ATOM     25  C   UNL     1      -2.761  11.938  19.277  0.00  0.00    +0.000 A 
ATOM     26  C   UNL     1      -4.036  12.412  19.549  0.00  0.00    +0.000 A 
ATOM     27  N   UNL     1      -5.150  11.962  18.938  0.00  0.00    +0.000 NA
ATOM     28  C   UNL     1      -4.983  10.999  18.007  0.00  0.00    +0.000 A 
ATOM     29  C   UNL     1      -3.751  10.463  17.666  0.00  0.00    +0.000 A 
ENDBRANCH  23  24
ENDBRANCH  19  22
ENDBRANCH   4  19
TORSDOF 4
ENDMDL
MODEL 2
REMARK VINA RESULT:      -8.1      0.756      1.140
REMARK  Name = 
REMARK  4 active torsions:
REMARK  status: ('A' for Active; 'I' for Inactive)
REMARK    1  A    between atoms: N_3  and  C_4
REMARK    2  A    between atoms: N_16  and  S_17
REMARK    3  A    between atoms: S_17  and  C_20
REMARK    4  A    between atoms: C_21  and  C_22
REMARK                            x       y       z     vdW  Elec       q    Type
REMARK                         _______ _______ _______ _____ _____    ______ ____
ROOT
ATOM      1  O   UNL     1       2.200   6.679  20.238  0.00  0.00    +0.000 OA
ATOM      2  C   UNL     1       2.250   7.448  19.297  0.00  0.00    +0.000 C 
ATOM      3  N   UNL     1       2.890   7.212  18.102  0.00  0.00    +0.000 N 
ATOM      4  N   UNL     1       1.657   8.695  19.468  0.00  0.00    +0.000 N 
ATOM      5  H   UNL     1       3.270   8.041  17.658  0.00  0.00    +0.000 HD
ATOM      6  H   UNL     1       1.270   8.868  20.390  0.00  0.00    +0.000 HD
ENDROOT
BRANCH   3   7
ATOM      7  C   UNL     1       3.537   5.989  17.838  0.00  0.00    +0.000 A 
ATOM      8  C   UNL     1       2.857   4.770  17.840  0.00  0.00    +0.000 A 
ATOM      9  C   UNL     1       3.515   3.568  17.501  0.00  0.00    +0.000 A 
ATOM     10  C   UNL     1       4.868   3.536  17.205  0.00  0.00    +0.000 A 
ATOM     11  C   UNL     1       5.550   4.739  17.240  0.00  0.00    +0.000 A 
ATOM     12  C   UNL     1       4.897   5.957  17.524  0.00  0.00    +0.000 A 
ATOM     13  C   UNL     1       5.906   7.065  17.614  0.00  0.00    +0.000 C 
ATOM     14  C   UNL     1       7.157   6.439  16.975  0.00  0.00    +0.000 C 
ATOM     15  C   UNL     1       7.029   4.919  17.102  0.00  0.00    +0.000 C 
ATOM     16  C   UNL     1       2.563   2.417  17.455  0.00  0.00    +0.000 C 
ATOM     17  C   UNL     1       1.364   2.971  18.219  0.00  0.00    +0.000 C 
ATOM     18  C   UNL     1       1.396   4.497  18.061  0.00  0.00    +0.000 C 
ENDBRANCH   3   7
BRANCH   4  19
ATOM     19  S   UNL     1       1.463   9.927  18.397  0.00  0.00    +0.000 S 
ATOM     20  O   UNL     1       1.780  11.134  19.130  0.00  0.00    +0.000 OA
ATOM     21  O   UNL     1       2.211   9.553  17.212  0.00  0.00    +0.000 OA
BRANCH  19  22
ATOM     22  C   UNL     1      -0.213   9.947  17.968  0.00  0.00    +0.000 C 
ATOM     23  C   UNL     1      -0.924  11.080  18.081  0.00  0.00    +0.000 C 
BRANCH  23  24
ATOM     24  C   UNL     1      -2.352  11.178  17.741  0.00  0.00    +0.000 A 
ATOM     25  C   UNL     1      -2.865  10.767  16.509  0.00  0.00    +0.000 A 
ATOM     26  C   UNL     1      -4.229  10.879  16.285  0.00  0.00    +0.000 A 
ATOM     27  N   UNL     1      -5.102  11.355  17.196  0.00  0.00    +0.000 NA
ATOM     28  C   UNL     1      -4.590  11.729  18.387  0.00  0.00    +0.000 A 
ATOM     29  C   UNL     1      -3.243  11.656  18.704  0.00  0.00    +0.000 A 
ENDBRANCH  23  24
ENDBRANCH  19  22
ENDBRANCH   4  19
TORSDOF 4
ENDMDL
MODEL 3
REMARK VINA RESULT:      -8.0      2.501      2.832
REMARK  Name = 
REMARK  4 active torsions:
REMARK  status: ('A' for Active; 'I' for Inactive)
REMARK    1  A    between atoms: N_3  and  C_4
REMARK    2  A    between atoms: N_16  and  S_17
REMARK    3  A    between atoms: S_17  and  C_20
REMARK    4  A    between atoms: C_21  and  C_22
REMARK                            x       y       z     vdW  Elec       q    Type
REMARK                         _______ _______ _______ _____ _____    ______ ____
ROOT
ATOM      1  O   UNL     1       2.417   6.610  20.291  0.00  0.00    +0.000 OA
ATOM      2  C   UNL     1       2.320   7.332  19.318  0.00  0.00    +0.000 C 
ATOM      3  N   UNL     1       2.823   7.063  18.066  0.00  0.00    +0.000 N 
ATOM      4  N   UNL     1       1.696   8.561  19.503  0.00  0.00    +0.000 N 
ATOM      5  H   UNL     1       3.110   7.883  17.543  0.00  0.00    +0.000 HD
ATOM      6  H   UNL     1       1.414   8.765  20.457  0.00  0.00    +0.000 HD
ENDROOT
BRANCH   3   7
ATOM      7  C   UNL     1       3.489   5.854  17.780  0.00  0.00    +0.000 A 
ATOM      8  C   UNL     1       2.843   4.617  17.825  0.00  0.00    +0.000 A 
ATOM      9  C   UNL     1       3.516   3.430  17.465  0.00  0.00    +0.000 A 
ATOM     10  C   UNL     1       4.853   3.431  17.103  0.00  0.00    +0.000 A 
ATOM     11  C   UNL     1       5.504   4.652  17.094  0.00  0.00    +0.000 A 
ATOM     12  C   UNL     1       4.833   5.856  17.400  0.00  0.00    +0.000 A 
ATOM     13  C   UNL     1       5.815   6.990  17.432  0.00  0.00    +0.000 C 
ATOM     14  C   UNL     1       7.049   6.392  16.738  0.00  0.00    +0.000 C 
ATOM     15  C   UNL     1       6.969   4.869  16.884  0.00  0.00    +0.000 C 
ATOM     16  C   UNL     1       2.594   2.255  17.474  0.00  0.00    +0.000 C 
ATOM     17  C   UNL     1       1.419   2.783  18.291  0.00  0.00    +0.000 C 
ATOM     18  C   UNL     1       1.403   4.309  18.120  0.00  0.00    +0.000 C 
ENDBRANCH   3   7
BRANCH   4  19
ATOM     19  S   UNL     1       1.319   9.729  18.410  0.00  0.00    +0.000 S 
ATOM     20  O   UNL     1       2.486   9.862  17.565  0.00  0.00    +0.000 OA
ATOM     21  O   UNL     1       0.031   9.362  17.853  0.00  0.00    +0.000 OA
BRANCH  19  22
ATOM     22  C   UNL     1       1.099  11.192  19.308  0.00  0.00    +0.000 C 
ATOM     23  C   UNL     1       0.481  11.165  20.499  0.00  0.00    +0.000 C 
BRANCH  23  24
ATOM     24  C   UNL     1       0.252  12.363  21.320  0.00  0.00    +0.000 A 
ATOM     25  C   UNL     1       0.936  13.563  21.114  0.00  0.00    +0.000 A 
ATOM     26  C   UNL     1       0.640  14.647  21.925  0.00  0.00    +0.000 A 
ATOM     27  N   UNL     1      -0.285  14.619  22.906  0.00  0.00    +0.000 NA
ATOM     28  C   UNL     1      -0.949  13.457  23.079  0.00  0.00    +0.000 A 
ATOM     29  C   UNL     1      -0.724  12.320  22.319  0.00  0.00    +0.000 A 
ENDBRANCH  23  24
ENDBRANCH  19  22
ENDBRANCH   4  19
TORSDOF 4
ENDMDL
MODEL 4
REMARK VINA RESULT:      -8.0      1.680      2.150
REMARK  Name = 
REMARK  4 active torsions:
REMARK  status: ('A' for Active; 'I' for Inactive)
REMARK    1  A    between atoms: N_3  and  C_4
REMARK    2  A    between atoms: N_16  and  S_17
REMARK    3  A    between atoms: S_17  and  C_20
REMARK    4  A    between atoms: C_21  and  C_22
REMARK                            x       y       z     vdW  Elec       q    Type
REMARK                         _______ _______ _______ _____ _____    ______ ____
ROOT
ATOM      1  O   UNL     1       2.549   6.716  20.283  0.00  0.00    +0.000 OA
ATOM      2  C   UNL     1       2.359   7.363  19.270  0.00  0.00    +0.000 C 
ATOM      3  N   UNL     1       2.774   7.013  18.006  0.00  0.00    +0.000 N 
ATOM      4  N   UNL     1       1.716   8.588  19.414  0.00  0.00    +0.000 N 
ATOM      5  H   UNL     1       2.998   7.798  17.405  0.00  0.00    +0.000 HD
ATOM      6  H   UNL     1       1.501   8.855  20.370  0.00  0.00    +0.000 HD
ENDROOT
BRANCH   3   7
ATOM      7  C   UNL     1       3.450   5.802  17.757  0.00  0.00    +0.000 A 
ATOM      8  C   UNL     1       2.813   4.562  17.831  0.00  0.00    +0.000 A 
ATOM      9  C   UNL     1       3.496   3.371  17.508  0.00  0.00    +0.000 A 
ATOM     10  C   UNL     1       4.836   3.371  17.156  0.00  0.00    +0.000 A 
ATOM     11  C   UNL     1       5.478   4.596  17.119  0.00  0.00    +0.000 A 
ATOM     12  C   UNL     1       4.797   5.802  17.387  0.00  0.00    +0.000 A 
ATOM     13  C   UNL     1       5.771   6.944  17.395  0.00  0.00    +0.000 C 
ATOM     14  C   UNL     1       7.015   6.336  16.726  0.00  0.00    +0.000 C 
ATOM     15  C   UNL     1       6.943   4.817  16.912  0.00  0.00    +0.000 C 
ATOM     16  C   UNL     1       2.582   2.189  17.542  0.00  0.00    +0.000 C 
ATOM     17  C   UNL     1       1.397   2.732  18.337  0.00  0.00    +0.000 C 
ATOM     18  C   UNL     1       1.372   4.252  18.124  0.00  0.00    +0.000 C 
ENDBRANCH   3   7
BRANCH   4  19
ATOM     19  S   UNL     1       1.227   9.664  18.271  0.00  0.00    +0.000 S 
ATOM     20  O   UNL     1       2.437  10.123  17.625  0.00  0.00    +0.000 OA
ATOM     21  O   UNL     1       0.181   9.002  17.515  0.00  0.00    +0.000 OA
BRANCH  19  22
ATOM     22  C   UNL     1       0.499  10.985  19.119  0.00  0.00    +0.000 C 
ATOM     23  C   UNL     1      -0.370  10.750  20.114  0.00  0.00    +0.000 C 
BRANCH  23  24
ATOM     24  C   UNL     1      -1.033  11.817  20.879  0.00  0.00    +0.000 A 
ATOM     25  C   UNL     1      -2.087  12.574  20.363  0.00  0.00    +0.000 A 
ATOM     26  C   UNL     1      -2.666  13.546  21.165  0.00  0.00    +0.000 A 
ATOM     27  N   UNL     1      -2.276  13.802  22.431  0.00  0.00    +0.000 NA
ATOM     28  C   UNL     1      -1.269  13.048  22.919  0.00  0.00    +0.000 A 
ATOM     29  C   UNL     1      -0.629  12.055  22.195  0.00  0.00    +0.000 A 
ENDBRANCH  23  24
ENDBRANCH  19  22
ENDBRANCH   4  19
TORSDOF 4
ENDMDL
MODEL 5
REMARK VINA RESULT:      -8.0      0.738      3.089
REMARK  Name = 
REMARK  4 active torsions:
REMARK  status: ('A' for Active; 'I' for Inactive)
REMARK    1  A    between atoms: N_3  and  C_4
REMARK    2  A    between atoms: N_16  and  S_17
REMARK    3  A    between atoms: S_17  and  C_20
REMARK    4  A    between atoms: C_21  and  C_22
REMARK                            x       y       z     vdW  Elec       q    Type
REMARK                         _______ _______ _______ _____ _____    ______ ____
ROOT
ATOM      1  O   UNL     1       2.156   6.598  20.292  0.00  0.00    +0.000 OA
ATOM      2  C   UNL     1       2.201   7.374  19.356  0.00  0.00    +0.000 C 
ATOM      3  N   UNL     1       2.843   7.150  18.160  0.00  0.00    +0.000 N 
ATOM      4  N   UNL     1       1.599   8.615  19.535  0.00  0.00    +0.000 N 
ATOM      5  H   UNL     1       3.218   7.985  17.722  0.00  0.00    +0.000 HD
ATOM      6  H   UNL     1       1.210   8.779  20.458  0.00  0.00    +0.000 HD
ENDROOT
BRANCH   3   7
ATOM      7  C   UNL     1       3.499   5.933  17.888  0.00  0.00    +0.000 A 
ATOM      8  C   UNL     1       4.860   5.870  17.584  0.00  0.00    +0.000 A 
ATOM      9  C   UNL     1       5.506   4.631  17.386  0.00  0.00    +0.000 A 
ATOM     10  C   UNL     1       4.814   3.432  17.432  0.00  0.00    +0.000 A 
ATOM     11  C   UNL     1       3.457   3.497  17.696  0.00  0.00    +0.000 A 
ATOM     12  C   UNL     1       2.805   4.723  17.949  0.00  0.00    +0.000 A 
ATOM     13  C   UNL     1       1.327   4.494  18.077  0.00  0.00    +0.000 C 
ATOM     14  C   UNL     1       1.232   2.970  18.256  0.00  0.00    +0.000 C 
ATOM     15  C   UNL     1       2.494   2.353  17.646  0.00  0.00    +0.000 C 
ATOM     16  C   UNL     1       6.978   4.806  17.195  0.00  0.00    +0.000 C 
ATOM     17  C   UNL     1       7.077   6.293  16.866  0.00  0.00    +0.000 C 
ATOM     18  C   UNL     1       5.871   6.980  17.523  0.00  0.00    +0.000 C 
ENDBRANCH   3   7
BRANCH   4  19
ATOM     19  S   UNL     1       1.397   9.852  18.472  0.00  0.00    +0.000 S 
ATOM     20  O   UNL     1       1.751  11.052  19.199  0.00  0.00    +0.000 OA
ATOM     21  O   UNL     1       2.109   9.470  17.267  0.00  0.00    +0.000 OA
BRANCH  19  22
ATOM     22  C   UNL     1      -0.289   9.899  18.086  0.00  0.00    +0.000 C 
ATOM     23  C   UNL     1      -0.941  11.073  18.053  0.00  0.00    +0.000 C 
BRANCH  23  24
ATOM     24  C   UNL     1      -2.372  11.196  17.738  0.00  0.00    +0.000 A 
ATOM     25  C   UNL     1      -2.912  10.807  16.510  0.00  0.00    +0.000 A 
ATOM     26  C   UNL     1      -4.277  10.942  16.310  0.00  0.00    +0.000 A 
ATOM     27  N   UNL     1      -5.128  11.421  17.241  0.00  0.00    +0.000 NA
ATOM     28  C   UNL     1      -4.591  11.774  18.427  0.00  0.00    +0.000 A 
ATOM     29  C   UNL     1      -3.240  11.676  18.721  0.00  0.00    +0.000 A 
ENDBRANCH  23  24
ENDBRANCH  19  22
ENDBRANCH   4  19
TORSDOF 4
ENDMDL
MODEL 6
REMARK VINA RESULT:      -8.0      0.439      2.912
REMARK  Name = 
REMARK  4 active torsions:
REMARK  status: ('A' for Active; 'I' for Inactive)
REMARK    1  A    between atoms: N_3  and  C_4
REMARK    2  A    between atoms: N_16  and  S_17
REMARK    3  A    between atoms: S_17  and  C_20
REMARK    4  A    between atoms: C_21  and  C_22
REMARK                            x       y       z     vdW  Elec       q    Type
REMARK                         _______ _______ _______ _____ _____    ______ ____
ROOT
ATOM      1  O   UNL     1       2.575   6.749  20.320  0.00  0.00    +0.000 OA
ATOM      2  C   UNL     1       2.366   7.383  19.304  0.00  0.00    +0.000 C 
ATOM      3  N   UNL     1       2.773   7.027  18.039  0.00  0.00    +0.000 N 
ATOM      4  N   UNL     1       1.708   8.600  19.443  0.00  0.00    +0.000 N 
ATOM      5  H   UNL     1       2.981   7.810  17.428  0.00  0.00    +0.000 HD
ATOM      6  H   UNL     1       1.499   8.874  20.398  0.00  0.00    +0.000 HD
ENDROOT
BRANCH   3   7
ATOM      7  C   UNL     1       3.464   5.823  17.795  0.00  0.00    +0.000 A 
ATOM      8  C   UNL     1       4.821   5.793  17.470  0.00  0.00    +0.000 A 
ATOM      9  C   UNL     1       5.503   4.570  17.301  0.00  0.00    +0.000 A 
ATOM     10  C   UNL     1       4.850   3.351  17.397  0.00  0.00    +0.000 A 
ATOM     11  C   UNL     1       3.497   3.382  17.681  0.00  0.00    +0.000 A 
ATOM     12  C   UNL     1       2.810   4.594  17.906  0.00  0.00    +0.000 A 
ATOM     13  C   UNL     1       1.342   4.323  18.065  0.00  0.00    +0.000 C 
ATOM     14  C   UNL     1       1.299   2.804  18.295  0.00  0.00    +0.000 C 
ATOM     15  C   UNL     1       2.570   2.208  17.683  0.00  0.00    +0.000 C 
ATOM     16  C   UNL     1       6.965   4.785  17.080  0.00  0.00    +0.000 C 
ATOM     17  C   UNL     1       7.012   6.262  16.702  0.00  0.00    +0.000 C 
ATOM     18  C   UNL     1       5.795   6.932  17.357  0.00  0.00    +0.000 C 
ENDBRANCH   3   7
BRANCH   4  19
ATOM     19  S   UNL     1       1.192   9.659  18.295  0.00  0.00    +0.000 S 
ATOM     20  O   UNL     1       2.282  10.593  18.109  0.00  0.00    +0.000 OA
ATOM     21  O   UNL     1       0.703   8.852  17.193  0.00  0.00    +0.000 OA
BRANCH  19  22
ATOM     22  C   UNL     1      -0.164  10.495  18.970  0.00  0.00    +0.000 C 
ATOM     23  C   UNL     1      -1.278  10.669  18.243  0.00  0.00    +0.000 C 
BRANCH  23  24
ATOM     24  C   UNL     1      -2.470  11.371  18.742  0.00  0.00    +0.000 A 
ATOM     25  C   UNL     1      -2.435  12.231  19.842  0.00  0.00    +0.000 A 
ATOM     26  C   UNL     1      -3.606  12.866  20.229  0.00  0.00    +0.000 A 
ATOM     27  N   UNL     1      -4.787  12.710  19.597  0.00  0.00    +0.000 NA
ATOM     28  C   UNL     1      -4.797  11.890  18.526  0.00  0.00    +0.000 A 
ATOM     29  C   UNL     1      -3.680  11.213  18.063  0.00  0.00    +0.000 A 
ENDBRANCH  23  24
ENDBRANCH  19  22
ENDBRANCH   4  19
TORSDOF 4
ENDMDL
MODEL 7
REMARK VINA RESULT:      -8.0      0.497      1.023
REMARK  Name = 
REMARK  4 active torsions:
REMARK  status: ('A' for Active; 'I' for Inactive)
REMARK    1  A    between atoms: N_3  and  C_4
REMARK    2  A    between atoms: N_16  and  S_17
REMARK    3  A    between atoms: S_17  and  C_20
REMARK    4  A    between atoms: C_21  and  C_22
REMARK                            x       y       z     vdW  Elec       q    Type
REMARK                         _______ _______ _______ _____ _____    ______ ____
ROOT
ATOM      1  O   UNL     1       2.625   6.750  20.367  0.00  0.00    +0.000 OA
ATOM      2  C   UNL     1       2.353   7.371  19.357  0.00  0.00    +0.000 C 
ATOM      3  N   UNL     1       2.695   7.007  18.076  0.00  0.00    +0.000 N 
ATOM      4  N   UNL     1       1.688   8.582  19.520  0.00  0.00    +0.000 N 
ATOM      5  H   UNL     1       2.859   7.785  17.447  0.00  0.00    +0.000 HD
ATOM      6  H   UNL     1       1.528   8.862  20.483  0.00  0.00    +0.000 HD
ENDROOT
BRANCH   3   7
ATOM      7  C   UNL     1       3.386   5.808  17.806  0.00  0.00    +0.000 A 
ATOM      8  C   UNL     1       2.769   4.559  17.875  0.00  0.00    +0.000 A 
ATOM      9  C   UNL     1       3.466   3.381  17.531  0.00  0.00    +0.000 A 
ATOM     10  C   UNL     1       4.801   3.405  17.162  0.00  0.00    +0.000 A 
ATOM     11  C   UNL     1       5.424   4.640  17.130  0.00  0.00    +0.000 A 
ATOM     12  C   UNL     1       4.728   5.833  17.419  0.00  0.00    +0.000 A 
ATOM     13  C   UNL     1       5.685   6.990  17.427  0.00  0.00    +0.000 C 
ATOM     14  C   UNL     1       6.929   6.407  16.737  0.00  0.00    +0.000 C 
ATOM     15  C   UNL     1       6.883   4.886  16.908  0.00  0.00    +0.000 C 
ATOM     16  C   UNL     1       2.570   2.185  17.565  0.00  0.00    +0.000 C 
ATOM     17  C   UNL     1       1.388   2.702  18.380  0.00  0.00    +0.000 C 
ATOM     18  C   UNL     1       1.337   4.223  18.183  0.00  0.00    +0.000 C 
ENDBRANCH   3   7
BRANCH   4  19
ATOM     19  S   UNL     1       1.097   9.621  18.392  0.00  0.00    +0.000 S 
ATOM     20  O   UNL     1       2.072  10.686  18.294  0.00  0.00    +0.000 OA
ATOM     21  O   UNL     1       0.756   8.812  17.237  0.00  0.00    +0.000 OA
BRANCH  19  22
ATOM     22  C   UNL     1      -0.377  10.259  19.034  0.00  0.00    +0.000 C 
ATOM     23  C   UNL     1      -1.182  11.006  18.262  0.00  0.00    +0.000 C 
BRANCH  23  24
ATOM     24  C   UNL     1      -2.448  11.587  18.733  0.00  0.00    +0.000 A 
ATOM     25  C   UNL     1      -3.671  11.345  18.104  0.00  0.00    +0.000 A 
ATOM     26  C   UNL     1      -4.817  11.920  18.632  0.00  0.00    +0.000 A 
ATOM     27  N   UNL     1      -4.827  12.697  19.734  0.00  0.00    +0.000 NA
ATOM     28  C   UNL     1      -3.639  12.904  20.339  0.00  0.00    +0.000 A 
ATOM     29  C   UNL     1      -2.441  12.373  19.887  0.00  0.00    +0.000 A 
ENDBRANCH  23  24
ENDBRANCH  19  22
ENDBRANCH   4  19
TORSDOF 4
ENDMDL
MODEL 8
REMARK VINA RESULT:      -7.9      2.446      4.039
REMARK  Name = 
REMARK  4 active torsions:
REMARK  status: ('A' for Active; 'I' for Inactive)
REMARK    1  A    between atoms: N_3  and  C_4
REMARK    2  A    between atoms: N_16  and  S_17
REMARK    3  A    between atoms: S_17  and  C_20
REMARK    4  A    between atoms: C_21  and  C_22
REMARK                            x       y       z     vdW  Elec       q    Type
REMARK                         _______ _______ _______ _____ _____    ______ ____
ROOT
ATOM      1  O   UNL     1       2.359   6.657  20.282  0.00  0.00    +0.000 OA
ATOM      2  C   UNL     1       2.272   7.371  19.301  0.00  0.00    +0.000 C 
ATOM      3  N   UNL     1       2.800   7.098  18.061  0.00  0.00    +0.000 N 
ATOM      4  N   UNL     1       1.631   8.594  19.465  0.00  0.00    +0.000 N 
ATOM      5  H   UNL     1       3.088   7.917  17.536  0.00  0.00    +0.000 HD
ATOM      6  H   UNL     1       1.329   8.802  20.412  0.00  0.00    +0.000 HD
ENDROOT
BRANCH   3   7
ATOM      7  C   UNL     1       3.485   5.894  17.797  0.00  0.00    +0.000 A 
ATOM      8  C   UNL     1       4.845   5.862  17.486  0.00  0.00    +0.000 A 
ATOM      9  C   UNL     1       5.520   4.637  17.297  0.00  0.00    +0.000 A 
ATOM     10  C   UNL     1       4.858   3.422  17.357  0.00  0.00    +0.000 A 
ATOM     11  C   UNL     1       3.502   3.456  17.628  0.00  0.00    +0.000 A 
ATOM     12  C   UNL     1       2.821   4.668  17.873  0.00  0.00    +0.000 A 
ATOM     13  C   UNL     1       1.349   4.404  18.010  0.00  0.00    +0.000 C 
ATOM     14  C   UNL     1       1.293   2.881  18.204  0.00  0.00    +0.000 C 
ATOM     15  C   UNL     1       2.566   2.289  17.593  0.00  0.00    +0.000 C 
ATOM     16  C   UNL     1       6.986   4.846  17.096  0.00  0.00    +0.000 C 
ATOM     17  C   UNL     1       7.048   6.332  16.753  0.00  0.00    +0.000 C 
ATOM     18  C   UNL     1       5.828   6.995  17.409  0.00  0.00    +0.000 C 
ENDBRANCH   3   7
BRANCH   4  19
ATOM     19  S   UNL     1       1.262   9.750  18.355  0.00  0.00    +0.000 S 
ATOM     20  O   UNL     1       2.482   9.980  17.612  0.00  0.00    +0.000 OA
ATOM     21  O   UNL     1       0.054   9.300  17.690  0.00  0.00    +0.000 OA
BRANCH  19  22
ATOM     22  C   UNL     1       0.863  11.179  19.247  0.00  0.00    +0.000 C 
ATOM     23  C   UNL     1       0.532  11.093  20.545  0.00  0.00    +0.000 C 
BRANCH  23  24
ATOM     24  C   UNL     1       0.177  12.258  21.369  0.00  0.00    +0.000 A 
ATOM     25  C   UNL     1      -0.800  12.209  22.365  0.00  0.00    +0.000 A 
ATOM     26  C   UNL     1      -1.054  13.353  23.107  0.00  0.00    +0.000 A 
ATOM     27  N   UNL     1      -0.401  14.520  22.932  0.00  0.00    +0.000 NA
ATOM     28  C   UNL     1       0.552  14.543  21.977  0.00  0.00    +0.000 A 
ATOM     29  C   UNL     1       0.877  13.452  21.186  0.00  0.00    +0.000 A 
ENDBRANCH  23  24
ENDBRANCH  19  22
ENDBRANCH   4  19
TORSDOF 4
ENDMDL
MODEL 9
REMARK VINA RESULT:      -7.9      2.857      3.703
REMARK  Name = 
REMARK  4 active torsions:
REMARK  status: ('A' for Active; 'I' for Inactive)
REMARK    1  A    between atoms: N_3  and  C_4
REMARK    2  A    between atoms: N_16  and  S_17
REMARK    3  A    between atoms: S_17  and  C_20
REMARK    4  A    between atoms: C_21  and  C_22
REMARK                            x       y       z     vdW  Elec       q    Type
REMARK                         _______ _______ _______ _____ _____    ______ ____
ROOT
ATOM      1  O   UNL     1       2.392   6.734  20.255  0.00  0.00    +0.000 OA
ATOM      2  C   UNL     1       2.303   7.399  19.241  0.00  0.00    +0.000 C 
ATOM      3  N   UNL     1       2.804   7.052  18.008  0.00  0.00    +0.000 N 
ATOM      4  N   UNL     1       1.691   8.643  19.353  0.00  0.00    +0.000 N 
ATOM      5  H   UNL     1       3.100   7.837  17.438  0.00  0.00    +0.000 HD
ATOM      6  H   UNL     1       1.410   8.905  20.293  0.00  0.00    +0.000 HD
ENDROOT
BRANCH   3   7
ATOM      7  C   UNL     1       3.458   5.822  17.794  0.00  0.00    +0.000 A 
ATOM      8  C   UNL     1       2.790   4.599  17.868  0.00  0.00    +0.000 A 
ATOM      9  C   UNL     1       3.454   3.387  17.580  0.00  0.00    +0.000 A 
ATOM     10  C   UNL     1       4.802   3.352  17.262  0.00  0.00    +0.000 A 
ATOM     11  C   UNL     1       5.473   4.561  17.225  0.00  0.00    +0.000 A 
ATOM     12  C   UNL     1       4.813   5.787  17.459  0.00  0.00    +0.000 A 
ATOM     13  C   UNL     1       5.814   6.906  17.476  0.00  0.00    +0.000 C 
ATOM     14  C   UNL     1       7.059   6.260  16.849  0.00  0.00    +0.000 C 
ATOM     15  C   UNL     1       6.948   4.747  17.054  0.00  0.00    +0.000 C 
ATOM     16  C   UNL     1       2.512   2.228  17.607  0.00  0.00    +0.000 C 
ATOM     17  C   UNL     1       1.320   2.808  18.363  0.00  0.00    +0.000 C 
ATOM     18  C   UNL     1       1.336   4.326  18.128  0.00  0.00    +0.000 C 
ENDBRANCH   3   7
BRANCH   4  19
ATOM     19  S   UNL     1       1.327   9.749  18.193  0.00  0.00    +0.000 S 
ATOM     20  O   UNL     1       2.351   9.604  17.181  0.00  0.00    +0.000 OA
ATOM     21  O   UNL     1      -0.074   9.552  17.872  0.00  0.00    +0.000 OA
BRANCH  19  22
ATOM     22  C   UNL     1       1.476  11.306  18.932  0.00  0.00    +0.000 C 
ATOM     23  C   UNL     1       2.230  12.256  18.356  0.00  0.00    +0.000 C 
BRANCH  23  24
ATOM     24  C   UNL     1       2.410  13.601  18.923  0.00  0.00    +0.000 A 
ATOM     25  C   UNL     1       2.170  13.893  20.268  0.00  0.00    +0.000 A 
ATOM     26  C   UNL     1       2.387  15.187  20.718  0.00  0.00    +0.000 A 
ATOM     27  N   UNL     1       2.831  16.189  19.932  0.00  0.00    +0.000 NA
ATOM     28  C   UNL     1       3.075  15.884  18.641  0.00  0.00    +0.000 A 
ATOM     29  C   UNL     1       2.888  14.622  18.099  0.00  0.00    +0.000 A 
ENDBRANCH  23  24
ENDBRANCH  19  22
ENDBRANCH   4  19
TORSDOF 4
ENDMDL
