MODEL 1
REMARK VINA RESULT:      -7.3      0.000      0.000
REMARK  Name = 
REMARK  4 active torsions:
REMARK  status: ('A' for Active; 'I' for Inactive)
REMARK    1  A    between atoms: C_2  and  C_3
REMARK    2  A    between atoms: C_4  and  N_5
REMARK    3  A    between atoms: N_21  and  C_22
REMARK    4  A    between atoms: C_22  and  C_23
REMARK                            x       y       z     vdW  Elec       q    Type
REMARK                         _______ _______ _______ _____ _____    ______ ____
ROOT
ATOM      1  C   UNL     1       1.041  12.272  19.089  0.00  0.00    +0.000 C 
ATOM      2  C   UNL     1       1.925  11.712  18.218  0.00  0.00    +0.000 C 
ATOM      3  O   UNL     1       1.807  10.351  17.876  0.00  0.00    +0.000 OA
ATOM      4  C   UNL     1       1.146   9.507  18.765  0.00  0.00    +0.000 A 
ATOM      5  C   UNL     1       0.242   9.984  19.633  0.00  0.00    +0.000 A 
ATOM      6  C   UNL     1       0.704   9.437  20.941  0.00  0.00    +0.000 A 
ATOM      7  O   UNL     1       1.448  10.066  21.683  0.00  0.00    +0.000 OA
ATOM      8  O   UNL     1       0.429   8.109  21.046  0.00  0.00    +0.000 OA
ATOM      9  C   UNL     1       1.407   7.555  20.227  0.00  0.00    +0.000 A 
ATOM     10  C   UNL     1       1.985   6.361  20.659  0.00  0.00    +0.000 A 
ATOM     11  C   UNL     1       3.000   5.799  19.903  0.00  0.00    +0.000 A 
ATOM     12  C   UNL     1       3.393   6.417  18.705  0.00  0.00    +0.000 A 
ATOM     13  C   UNL     1       2.798   7.614  18.261  0.00  0.00    +0.000 A 
ATOM     14  C   UNL     1       1.794   8.193  19.032  0.00  0.00    +0.000 A 
ATOM     15  C   UNL     1      -0.255  11.415  19.579  0.00  0.00    +0.000 C 
ATOM     16  C   UNL     1      -0.906  11.703  21.063  0.00  0.00    +0.000 C 
ATOM     17  O   UNL     1      -0.777  11.081  22.114  0.00  0.00    +0.000 OA
ATOM     18  N   UNL     1      -2.072  12.468  20.930  0.00  0.00    +0.000 N 
ATOM     19  C   UNL     1      -2.641  12.081  19.721  0.00  0.00    +0.000 A 
ATOM     20  C   UNL     1      -4.014  12.093  19.524  0.00  0.00    +0.000 A 
ATOM     21  C   UNL     1      -4.484  11.775  18.270  0.00  0.00    +0.000 A 
ATOM     22  C   UNL     1      -3.546  11.518  17.255  0.00  0.00    +0.000 A 
ATOM     23  C   UNL     1      -2.136  11.438  17.517  0.00  0.00    +0.000 A 
ATOM     24  C   UNL     1      -1.656  11.632  18.803  0.00  0.00    +0.000 A 
ENDROOT
BRANCH   2  25
ATOM     25  N   UNL     1       2.897  12.366  17.516  0.00  0.00    +0.000 N 
ATOM     26  H   UNL     1       3.804  11.910  17.471  0.00  0.00    +0.000 HD
ATOM     27  H   UNL     1       2.944  13.366  17.694  0.00  0.00    +0.000 HD
ENDBRANCH   2  25
BRANCH   1  29
ATOM     28  N   UNL     1       0.696  15.026  19.258  0.00  0.00    +0.000 NA
ATOM     29  C   UNL     1       0.852  13.777  19.181  0.00  0.00    +0.000 C 
ENDBRANCH   1  29
BRANCH  18  30
ATOM     30  C   UNL     1      -1.854  13.912  21.050  0.00  0.00    +0.000 C 
BRANCH  30  31
ATOM     31  C   UNL     1      -2.178  14.477  22.412  0.00  0.00    +0.000 C 
ATOM     32 BR   UNL     1      -3.546  13.361  23.242  0.00  0.00    +0.000 Br
ENDBRANCH  30  31
ENDBRANCH  18  30
TORSDOF 4
ENDMDL
MODEL 2
REMARK VINA RESULT:      -7.1      1.360      1.661
REMARK  Name = 
REMARK  4 active torsions:
REMARK  status: ('A' for Active; 'I' for Inactive)
REMARK    1  A    between atoms: C_2  and  C_3
REMARK    2  A    between atoms: C_4  and  N_5
REMARK    3  A    between atoms: N_21  and  C_22
REMARK    4  A    between atoms: C_22  and  C_23
REMARK                            x       y       z     vdW  Elec       q    Type
REMARK                         _______ _______ _______ _____ _____    ______ ____
ROOT
ATOM      1  C   UNL     1       0.934  12.740  20.575  0.00  0.00    +0.000 C 
ATOM      2  C   UNL     1       1.623  12.427  19.442  0.00  0.00    +0.000 C 
ATOM      3  O   UNL     1       1.372  11.207  18.785  0.00  0.00    +0.000 OA
ATOM      4  C   UNL     1       0.830  10.162  19.526  0.00  0.00    +0.000 A 
ATOM      5  C   UNL     1       0.116  10.396  20.637  0.00  0.00    +0.000 A 
ATOM      6  C   UNL     1       0.766   9.517  21.651  0.00  0.00    +0.000 A 
ATOM      7  O   UNL     1       1.660   9.919  22.385  0.00  0.00    +0.000 OA
ATOM      8  O   UNL     1       0.440   8.211  21.454  0.00  0.00    +0.000 OA
ATOM      9  C   UNL     1       1.231   7.889  20.356  0.00  0.00    +0.000 A 
ATOM     10  C   UNL     1       1.808   6.618  20.349  0.00  0.00    +0.000 A 
ATOM     11  C   UNL     1       2.644   6.271  19.302  0.00  0.00    +0.000 A 
ATOM     12  C   UNL     1       2.858   7.183  18.256  0.00  0.00    +0.000 A 
ATOM     13  C   UNL     1       2.262   8.460  18.255  0.00  0.00    +0.000 A 
ATOM     14  C   UNL     1       1.440   8.820  19.320  0.00  0.00    +0.000 A 
ATOM     15  C   UNL     1      -0.302  11.794  21.050  0.00  0.00    +0.000 C 
ATOM     16  C   UNL     1      -0.671  11.679  22.650  0.00  0.00    +0.000 C 
ATOM     17  O   UNL     1      -0.397  10.799  23.461  0.00  0.00    +0.000 OA
ATOM     18  N   UNL     1      -1.798  12.461  22.935  0.00  0.00    +0.000 N 
ATOM     19  C   UNL     1      -2.588  12.414  21.791  0.00  0.00    +0.000 A 
ATOM     20  C   UNL     1      -3.972  12.489  21.855  0.00  0.00    +0.000 A 
ATOM     21  C   UNL     1      -4.668  12.521  20.669  0.00  0.00    +0.000 A 
ATOM     22  C   UNL     1      -3.935  12.536  19.469  0.00  0.00    +0.000 A 
ATOM     23  C   UNL     1      -2.507  12.379  19.442  0.00  0.00    +0.000 A 
ATOM     24  C   UNL     1      -1.802  12.220  20.625  0.00  0.00    +0.000 A 
ENDROOT
BRANCH   2  25
ATOM     25  N   UNL     1       2.494  13.237  18.771  0.00  0.00    +0.000 N 
ATOM     26  H   UNL     1       3.068  13.851  19.342  0.00  0.00    +0.000 HD
ATOM     27  H   UNL     1       2.101  13.684  17.947  0.00  0.00    +0.000 HD
ENDBRANCH   2  25
BRANCH   1  29
ATOM     28  N   UNL     1       0.777  15.352  21.516  0.00  0.00    +0.000 NA
ATOM     29  C   UNL     1       0.848  14.168  21.089  0.00  0.00    +0.000 C 
ENDBRANCH   1  29
BRANCH  18  30
ATOM     30  C   UNL     1      -1.484  13.819  23.386  0.00  0.00    +0.000 C 
BRANCH  30  31
ATOM     31  C   UNL     1      -2.470  14.387  24.379  0.00  0.00    +0.000 C 
ATOM     32 BR   UNL     1      -3.436  15.853  23.529  0.00  0.00    +0.000 Br
ENDBRANCH  30  31
ENDBRANCH  18  30
TORSDOF 4
ENDMDL
MODEL 3
REMARK VINA RESULT:      -6.9      3.003      6.803
REMARK  Name = 
REMARK  4 active torsions:
REMARK  status: ('A' for Active; 'I' for Inactive)
REMARK    1  A    between atoms: C_2  and  C_3
REMARK    2  A    between atoms: C_4  and  N_5
REMARK    3  A    between atoms: N_21  and  C_22
REMARK    4  A    between atoms: C_22  and  C_23
REMARK                            x       y       z     vdW  Elec       q    Type
REMARK                         _______ _______ _______ _____ _____    ______ ____
ROOT
ATOM      1  C   UNL     1      -0.979  13.263  19.431  0.00  0.00    +0.000 C 
ATOM      2  C   UNL     1      -1.774  14.284  19.858  0.00  0.00    +0.000 C 
ATOM      3  O   UNL     1      -3.056  14.007  20.368  0.00  0.00    +0.000 OA
ATOM      4  C   UNL     1      -3.673  12.820  19.983  0.00  0.00    +0.000 A 
ATOM      5  C   UNL     1      -2.953  11.764  19.578  0.00  0.00    +0.000 A 
ATOM      6  C   UNL     1      -3.583  11.403  18.275  0.00  0.00    +0.000 A 
ATOM      7  O   UNL     1      -3.168  11.838  17.208  0.00  0.00    +0.000 OA
ATOM      8  O   UNL     1      -4.784  10.791  18.460  0.00  0.00    +0.000 OA
ATOM      9  C   UNL     1      -5.597  11.868  18.797  0.00  0.00    +0.000 A 
ATOM     10  C   UNL     1      -6.896  11.857  18.287  0.00  0.00    +0.000 A 
ATOM     11  C   UNL     1      -7.726  12.933  18.554  0.00  0.00    +0.000 A 
ATOM     12  C   UNL     1      -7.258  13.984  19.360  0.00  0.00    +0.000 A 
ATOM     13  C   UNL     1      -5.953  13.986  19.888  0.00  0.00    +0.000 A 
ATOM     14  C   UNL     1      -5.109  12.916  19.601  0.00  0.00    +0.000 A 
ATOM     15  C   UNL     1      -1.442  11.724  19.689  0.00  0.00    +0.000 C 
ATOM     16  C   UNL     1      -0.963  10.544  18.646  0.00  0.00    +0.000 C 
ATOM     17  O   UNL     1      -1.578  10.004  17.731  0.00  0.00    +0.000 OA
ATOM     18  N   UNL     1       0.089   9.810  19.209  0.00  0.00    +0.000 N 
ATOM     19  C   UNL     1      -0.149   9.802  20.580  0.00  0.00    +0.000 A 
ATOM     20  C   UNL     1       0.233   8.736  21.381  0.00  0.00    +0.000 A 
ATOM     21  C   UNL     1       0.035   8.850  22.737  0.00  0.00    +0.000 A 
ATOM     22  C   UNL     1      -0.486  10.059  23.233  0.00  0.00    +0.000 A 
ATOM     23  C   UNL     1      -0.943  11.109  22.365  0.00  0.00    +0.000 A 
ATOM     24  C   UNL     1      -0.865  10.957  20.989  0.00  0.00    +0.000 A 
ENDROOT
BRANCH   2  25
ATOM     25  N   UNL     1      -1.421  15.600  19.958  0.00  0.00    +0.000 N 
ATOM     26  H   UNL     1      -1.483  16.014  20.883  0.00  0.00    +0.000 HD
ATOM     27  H   UNL     1      -1.785  16.190  19.214  0.00  0.00    +0.000 HD
ENDBRANCH   2  25
BRANCH   1  29
ATOM     28  N   UNL     1       1.767  13.576  19.126  0.00  0.00    +0.000 NA
ATOM     29  C   UNL     1       0.522  13.434  19.264  0.00  0.00    +0.000 C 
ENDBRANCH   1  29
BRANCH  18  30
ATOM     30  C   UNL     1       1.421  10.296  18.839  0.00  0.00    +0.000 C 
BRANCH  30  31
ATOM     31  C   UNL     1       2.078   9.516  17.726  0.00  0.00    +0.000 C 
ATOM     32 BR   UNL     1       2.420   7.700  18.353  0.00  0.00    +0.000 Br
ENDBRANCH  30  31
ENDBRANCH  18  30
TORSDOF 4
ENDMDL
MODEL 4
REMARK VINA RESULT:      -6.9      3.285      7.221
REMARK  Name = 
REMARK  4 active torsions:
REMARK  status: ('A' for Active; 'I' for Inactive)
REMARK    1  A    between atoms: C_2  and  C_3
REMARK    2  A    between atoms: C_4  and  N_5
REMARK    3  A    between atoms: N_21  and  C_22
REMARK    4  A    between atoms: C_22  and  C_23
REMARK                            x       y       z     vdW  Elec       q    Type
REMARK                         _______ _______ _______ _____ _____    ______ ____
ROOT
ATOM      1  C   UNL     1      -1.130  13.827  22.564  0.00  0.00    +0.000 C 
ATOM      2  C   UNL     1      -1.795  14.148  23.708  0.00  0.00    +0.000 C 
ATOM      3  O   UNL     1      -2.949  13.428  24.074  0.00  0.00    +0.000 OA
ATOM      4  C   UNL     1      -3.658  12.774  23.071  0.00  0.00    +0.000 A 
ATOM      5  C   UNL     1      -3.062  12.402  21.928  0.00  0.00    +0.000 A 
ATOM      6  C   UNL     1      -3.957  12.967  20.878  0.00  0.00    +0.000 A 
ATOM      7  O   UNL     1      -3.764  14.070  20.382  0.00  0.00    +0.000 OA
ATOM      8  O   UNL     1      -5.106  12.247  20.769  0.00  0.00    +0.000 OA
ATOM      9  C   UNL     1      -5.808  12.668  21.893  0.00  0.00    +0.000 A 
ATOM     10  C   UNL     1      -7.184  12.842  21.746  0.00  0.00    +0.000 A 
ATOM     11  C   UNL     1      -7.917  13.309  22.824  0.00  0.00    +0.000 A 
ATOM     12  C   UNL     1      -7.269  13.556  24.045  0.00  0.00    +0.000 A 
ATOM     13  C   UNL     1      -5.882  13.364  24.199  0.00  0.00    +0.000 A 
ATOM     14  C   UNL     1      -5.140  12.917  23.108  0.00  0.00    +0.000 A 
ATOM     15  C   UNL     1      -1.562  12.497  21.731  0.00  0.00    +0.000 C 
ATOM     16  C   UNL     1      -1.336  12.448  20.101  0.00  0.00    +0.000 C 
ATOM     17  O   UNL     1      -2.140  12.619  19.190  0.00  0.00    +0.000 OA
ATOM     18  N   UNL     1      -0.207  11.676  19.800  0.00  0.00    +0.000 N 
ATOM     19  C   UNL     1      -0.154  10.688  20.779  0.00  0.00    +0.000 A 
ATOM     20  C   UNL     1       0.364   9.428  20.516  0.00  0.00    +0.000 A 
ATOM     21  C   UNL     1       0.455   8.542  21.565  0.00  0.00    +0.000 A 
ATOM     22  C   UNL     1       0.075   8.986  22.844  0.00  0.00    +0.000 A 
ATOM     23  C   UNL     1      -0.529  10.270  23.061  0.00  0.00    +0.000 A 
ATOM     24  C   UNL     1      -0.743  11.128  21.993  0.00  0.00    +0.000 A 
ENDROOT
BRANCH   2  25
ATOM     25  N   UNL     1      -1.401  15.057  24.649  0.00  0.00    +0.000 N 
ATOM     26  H   UNL     1      -1.105  14.679  25.544  0.00  0.00    +0.000 HD
ATOM     27  H   UNL     1      -2.003  15.874  24.722  0.00  0.00    +0.000 HD
ENDBRANCH   2  25
BRANCH   1  29
ATOM     28  N   UNL     1       1.499  14.622  22.128  0.00  0.00    +0.000 NA
ATOM     29  C   UNL     1       0.307  14.262  22.326  0.00  0.00    +0.000 C 
ENDBRANCH   1  29
BRANCH  18  30
ATOM     30  C   UNL     1       1.029  12.453  19.672  0.00  0.00    +0.000 C 
BRANCH  30  31
ATOM     31  C   UNL     1       1.050  13.394  18.491  0.00  0.00    +0.000 C 
ATOM     32 BR   UNL     1       2.847  14.134  18.314  0.00  0.00    +0.000 Br
ENDBRANCH  30  31
ENDBRANCH  18  30
TORSDOF 4
ENDMDL
MODEL 5
REMARK VINA RESULT:      -6.7      1.809      2.691
REMARK  Name = 
REMARK  4 active torsions:
REMARK  status: ('A' for Active; 'I' for Inactive)
REMARK    1  A    between atoms: C_2  and  C_3
REMARK    2  A    between atoms: C_4  and  N_5
REMARK    3  A    between atoms: N_21  and  C_22
REMARK    4  A    between atoms: C_22  and  C_23
REMARK                            x       y       z     vdW  Elec       q    Type
REMARK                         _______ _______ _______ _____ _____    ______ ____
ROOT
ATOM      1  C   UNL     1      -0.999  13.819  20.427  0.00  0.00    +0.000 C 
ATOM      2  C   UNL     1      -0.308  13.644  19.267  0.00  0.00    +0.000 C 
ATOM      3  O   UNL     1      -0.285  12.379  18.648  0.00  0.00    +0.000 OA
ATOM      4  C   UNL     1      -0.522  11.259  19.438  0.00  0.00    +0.000 A 
ATOM      5  C   UNL     1      -1.219  11.350  20.580  0.00  0.00    +0.000 A 
ATOM      6  C   UNL     1      -0.329  10.687  21.576  0.00  0.00    +0.000 A 
ATOM      7  O   UNL     1       0.474  11.317  22.253  0.00  0.00    +0.000 OA
ATOM      8  O   UNL     1      -0.336   9.335  21.423  0.00  0.00    +0.000 OA
ATOM      9  C   UNL     1       0.457   9.178  20.291  0.00  0.00    +0.000 A 
ATOM     10  C   UNL     1       1.324   8.085  20.280  0.00  0.00    +0.000 A 
ATOM     11  C   UNL     1       2.170   7.916  19.197  0.00  0.00    +0.000 A 
ATOM     12  C   UNL     1       2.108   8.819  18.123  0.00  0.00    +0.000 A 
ATOM     13  C   UNL     1       1.220   9.913  18.128  0.00  0.00    +0.000 A 
ATOM     14  C   UNL     1       0.385  10.098  19.227  0.00  0.00    +0.000 A 
ATOM     15  C   UNL     1      -1.945  12.618  20.986  0.00  0.00    +0.000 C 
ATOM     16  C   UNL     1      -2.200  12.469  22.606  0.00  0.00    +0.000 C 
ATOM     17  O   UNL     1      -1.684  11.708  23.418  0.00  0.00    +0.000 OA
ATOM     18  N   UNL     1      -3.469  12.964  22.934  0.00  0.00    +0.000 N 
ATOM     19  C   UNL     1      -4.276  12.691  21.834  0.00  0.00    +0.000 A 
ATOM     20  C   UNL     1      -5.632  12.431  21.970  0.00  0.00    +0.000 A 
ATOM     21  C   UNL     1      -6.369  12.256  20.821  0.00  0.00    +0.000 A 
ATOM     22  C   UNL     1      -5.718  12.409  19.585  0.00  0.00    +0.000 A 
ATOM     23  C   UNL     1      -4.298  12.601  19.485  0.00  0.00    +0.000 A 
ATOM     24  C   UNL     1      -3.521  12.655  20.632  0.00  0.00    +0.000 A 
ENDROOT
BRANCH   2  25
ATOM     25  N   UNL     1       0.308  14.619  18.534  0.00  0.00    +0.000 N 
ATOM     26  H   UNL     1       0.605  15.446  19.045  0.00  0.00    +0.000 HD
ATOM     27  H   UNL     1      -0.137  14.819  17.642  0.00  0.00    +0.000 HD
ENDBRANCH   2  25
BRANCH   1  29
ATOM     28  N   UNL     1      -1.742  16.345  21.323  0.00  0.00    +0.000 NA
ATOM     29  C   UNL     1      -1.405  15.199  20.917  0.00  0.00    +0.000 C 
ENDBRANCH   1  29
BRANCH  18  30
ATOM     30  C   UNL     1      -3.473  14.372  23.340  0.00  0.00    +0.000 C 
BRANCH  30  31
ATOM     31  C   UNL     1      -3.178  14.596  24.804  0.00  0.00    +0.000 C 
ATOM     32 BR   UNL     1      -1.402  15.386  24.969  0.00  0.00    +0.000 Br
ENDBRANCH  30  31
ENDBRANCH  18  30
TORSDOF 4
ENDMDL
MODEL 6
REMARK VINA RESULT:      -6.5      2.772      5.211
REMARK  Name = 
REMARK  4 active torsions:
REMARK  status: ('A' for Active; 'I' for Inactive)
REMARK    1  A    between atoms: C_2  and  C_3
REMARK    2  A    between atoms: C_4  and  N_5
REMARK    3  A    between atoms: N_21  and  C_22
REMARK    4  A    between atoms: C_22  and  C_23
REMARK                            x       y       z     vdW  Elec       q    Type
REMARK                         _______ _______ _______ _____ _____    ______ ____
ROOT
ATOM      1  C   UNL     1      -0.864  13.001  19.569  0.00  0.00    +0.000 C 
ATOM      2  C   UNL     1      -0.222  13.103  18.373  0.00  0.00    +0.000 C 
ATOM      3  O   UNL     1       1.177  12.953  18.313  0.00  0.00    +0.000 OA
ATOM      4  C   UNL     1       1.912  13.198  19.469  0.00  0.00    +0.000 A 
ATOM      5  C   UNL     1       1.353  13.089  20.683  0.00  0.00    +0.000 A 
ATOM      6  C   UNL     1       1.694  14.388  21.332  0.00  0.00    +0.000 A 
ATOM      7  O   UNL     1       0.940  15.352  21.296  0.00  0.00    +0.000 OA
ATOM      8  O   UNL     1       3.004  14.429  21.697  0.00  0.00    +0.000 OA
ATOM      9  C   UNL     1       3.629  14.634  20.472  0.00  0.00    +0.000 A 
ATOM     10  C   UNL     1       4.728  15.493  20.465  0.00  0.00    +0.000 A 
ATOM     11  C   UNL     1       5.352  15.769  19.260  0.00  0.00    +0.000 A 
ATOM     12  C   UNL     1       4.893  15.148  18.086  0.00  0.00    +0.000 A 
ATOM     13  C   UNL     1       3.793  14.268  18.097  0.00  0.00    +0.000 A 
ATOM     14  C   UNL     1       3.150  14.009  19.305  0.00  0.00    +0.000 A 
ATOM     15  C   UNL     1      -0.037  12.519  20.886  0.00  0.00    +0.000 C 
ATOM     16  C   UNL     1      -0.504  13.038  22.376  0.00  0.00    +0.000 C 
ATOM     17  O   UNL     1      -0.040  13.931  23.080  0.00  0.00    +0.000 OA
ATOM     18  N   UNL     1      -1.198  12.018  23.039  0.00  0.00    +0.000 N 
ATOM     19  C   UNL     1      -0.624  10.828  22.604  0.00  0.00    +0.000 A 
ATOM     20  C   UNL     1      -0.556   9.709  23.422  0.00  0.00    +0.000 A 
ATOM     21  C   UNL     1      -0.049   8.550  22.881  0.00  0.00    +0.000 A 
ATOM     22  C   UNL     1       0.312   8.554  21.522  0.00  0.00    +0.000 A 
ATOM     23  C   UNL     1       0.301   9.753  20.730  0.00  0.00    +0.000 A 
ATOM     24  C   UNL     1      -0.089  10.957  21.296  0.00  0.00    +0.000 A 
ENDROOT
BRANCH   2  25
ATOM     25  N   UNL     1      -0.808  13.234  17.146  0.00  0.00    +0.000 N 
ATOM     26  H   UNL     1      -0.928  12.378  16.611  0.00  0.00    +0.000 HD
ATOM     27  H   UNL     1      -0.467  14.020  16.599  0.00  0.00    +0.000 HD
ENDBRANCH   2  25
BRANCH   1  29
ATOM     28  N   UNL     1      -3.600  12.527  19.726  0.00  0.00    +0.000 NA
ATOM     29  C   UNL     1      -2.360  12.742  19.655  0.00  0.00    +0.000 C 
ENDBRANCH   1  29
BRANCH  18  30
ATOM     30  C   UNL     1      -2.652  12.076  22.866  0.00  0.00    +0.000 C 
BRANCH  30  31
ATOM     31  C   UNL     1      -3.325  13.184  23.640  0.00  0.00    +0.000 C 
ATOM     32 BR   UNL     1      -4.737  12.408  24.740  0.00  0.00    +0.000 Br
ENDBRANCH  30  31
ENDBRANCH  18  30
TORSDOF 4
ENDMDL
MODEL 7
REMARK VINA RESULT:      -6.4      3.128      6.635
REMARK  Name = 
REMARK  4 active torsions:
REMARK  status: ('A' for Active; 'I' for Inactive)
REMARK    1  A    between atoms: C_2  and  C_3
REMARK    2  A    between atoms: C_4  and  N_5
REMARK    3  A    between atoms: N_21  and  C_22
REMARK    4  A    between atoms: C_22  and  C_23
REMARK                            x       y       z     vdW  Elec       q    Type
REMARK                         _______ _______ _______ _____ _____    ______ ____
ROOT
ATOM      1  C   UNL     1      -0.517  12.386  21.670  0.00  0.00    +0.000 C 
ATOM      2  C   UNL     1      -1.142  13.475  22.199  0.00  0.00    +0.000 C 
ATOM      3  O   UNL     1      -1.433  14.583  21.380  0.00  0.00    +0.000 OA
ATOM      4  C   UNL     1      -0.672  14.764  20.228  0.00  0.00    +0.000 A 
ATOM      5  C   UNL     1      -0.052  13.733  19.636  0.00  0.00    +0.000 A 
ATOM      6  C   UNL     1       1.352  14.217  19.495  0.00  0.00    +0.000 A 
ATOM      7  O   UNL     1       2.209  13.984  20.338  0.00  0.00    +0.000 OA
ATOM      8  O   UNL     1       1.459  15.137  18.499  0.00  0.00    +0.000 OA
ATOM      9  C   UNL     1       0.907  16.263  19.099  0.00  0.00    +0.000 A 
ATOM     10  C   UNL     1       1.515  17.487  18.816  0.00  0.00    +0.000 A 
ATOM     11  C   UNL     1       1.033  18.629  19.431  0.00  0.00    +0.000 A 
ATOM     12  C   UNL     1      -0.077  18.538  20.286  0.00  0.00    +0.000 A 
ATOM     13  C   UNL     1      -0.702  17.305  20.558  0.00  0.00    +0.000 A 
ATOM     14  C   UNL     1      -0.203  16.151  19.959  0.00  0.00    +0.000 A 
ATOM     15  C   UNL     1      -0.285  12.297  20.061  0.00  0.00    +0.000 C 
ATOM     16  C   UNL     1       1.001  11.457  19.470  0.00  0.00    +0.000 C 
ATOM     17  O   UNL     1       2.083  11.862  19.057  0.00  0.00    +0.000 OA
ATOM     18  N   UNL     1       0.574  10.213  18.987  0.00  0.00    +0.000 N 
ATOM     19  C   UNL     1      -0.710  10.420  18.494  0.00  0.00    +0.000 A 
ATOM     20  C   UNL     1      -1.208   9.690  17.424  0.00  0.00    +0.000 A 
ATOM     21  C   UNL     1      -2.517   9.902  17.058  0.00  0.00    +0.000 A 
ATOM     22  C   UNL     1      -3.284  10.797  17.825  0.00  0.00    +0.000 A 
ATOM     23  C   UNL     1      -2.712  11.592  18.876  0.00  0.00    +0.000 A 
ATOM     24  C   UNL     1      -1.363  11.481  19.175  0.00  0.00    +0.000 A 
ENDROOT
BRANCH   2  25
ATOM     25  N   UNL     1      -1.642  13.589  23.465  0.00  0.00    +0.000 N 
ATOM     26  H   UNL     1      -1.278  12.936  24.153  0.00  0.00    +0.000 HD
ATOM     27  H   UNL     1      -2.650  13.719  23.509  0.00  0.00    +0.000 HD
ENDBRANCH   2  25
BRANCH   1  29
ATOM     28  N   UNL     1      -0.567   9.911  22.938  0.00  0.00    +0.000 NA
ATOM     29  C   UNL     1      -0.545  11.034  22.363  0.00  0.00    +0.000 C 
ENDBRANCH   1  29
BRANCH  18  30
ATOM     30  C   UNL     1       0.667   9.128  19.968  0.00  0.00    +0.000 C 
BRANCH  30  31
ATOM     31  C   UNL     1       1.749   8.117  19.673  0.00  0.00    +0.000 C 
ATOM     32 BR   UNL     1       2.329   8.344  17.824  0.00  0.00    +0.000 Br
ENDBRANCH  30  31
ENDBRANCH  18  30
TORSDOF 4
ENDMDL
MODEL 8
REMARK VINA RESULT:      -6.4      2.756      4.223
REMARK  Name = 
REMARK  4 active torsions:
REMARK  status: ('A' for Active; 'I' for Inactive)
REMARK    1  A    between atoms: C_2  and  C_3
REMARK    2  A    between atoms: C_4  and  N_5
REMARK    3  A    between atoms: N_21  and  C_22
REMARK    4  A    between atoms: C_22  and  C_23
REMARK                            x       y       z     vdW  Elec       q    Type
REMARK                         _______ _______ _______ _____ _____    ______ ____
ROOT
ATOM      1  C   UNL     1      -2.142  14.568  20.822  0.00  0.00    +0.000 C 
ATOM      2  C   UNL     1      -1.403  14.025  19.815  0.00  0.00    +0.000 C 
ATOM      3  O   UNL     1      -1.317  12.626  19.685  0.00  0.00    +0.000 OA
ATOM      4  C   UNL     1      -1.548  11.847  20.814  0.00  0.00    +0.000 A 
ATOM      5  C   UNL     1      -2.290  12.305  21.834  0.00  0.00    +0.000 A 
ATOM      6  C   UNL     1      -1.416  12.074  23.020  0.00  0.00    +0.000 A 
ATOM      7  O   UNL     1      -0.660  12.937  23.450  0.00  0.00    +0.000 OA
ATOM      8  O   UNL     1      -1.375  10.756  23.355  0.00  0.00    +0.000 OA
ATOM      9  C   UNL     1      -0.536  10.244  22.372  0.00  0.00    +0.000 A 
ATOM     10  C   UNL     1       0.365   9.256  22.768  0.00  0.00    +0.000 A 
ATOM     11  C   UNL     1       1.256   8.753  21.836  0.00  0.00    +0.000 A 
ATOM     12  C   UNL     1       1.205   9.215  20.511  0.00  0.00    +0.000 A 
ATOM     13  C   UNL     1       0.284  10.201  20.107  0.00  0.00    +0.000 A 
ATOM     14  C   UNL     1      -0.597  10.726  21.049  0.00  0.00    +0.000 A 
ATOM     15  C   UNL     1      -3.070  13.602  21.748  0.00  0.00    +0.000 C 
ATOM     16  C   UNL     1      -3.381  14.023  23.308  0.00  0.00    +0.000 C 
ATOM     17  O   UNL     1      -2.871  13.620  24.349  0.00  0.00    +0.000 OA
ATOM     18  N   UNL     1      -4.676  14.547  23.410  0.00  0.00    +0.000 N 
ATOM     19  C   UNL     1      -5.433  13.870  22.459  0.00  0.00    +0.000 A 
ATOM     20  C   UNL     1      -6.784  13.616  22.646  0.00  0.00    +0.000 A 
ATOM     21  C   UNL     1      -7.471  13.016  21.617  0.00  0.00    +0.000 A 
ATOM     22  C   UNL     1      -6.780  12.751  20.422  0.00  0.00    +0.000 A 
ATOM     23  C   UNL     1      -5.364  12.955  20.294  0.00  0.00    +0.000 A 
ATOM     24  C   UNL     1      -4.632  13.444  21.366  0.00  0.00    +0.000 A 
ENDROOT
BRANCH   2  25
ATOM     25  N   UNL     1      -0.792  14.705  18.800  0.00  0.00    +0.000 N 
ATOM     26  H   UNL     1       0.132  14.378  18.533  0.00  0.00    +0.000 HD
ATOM     27  H   UNL     1      -0.872  15.716  18.863  0.00  0.00    +0.000 HD
ENDBRANCH   2  25
BRANCH   1  29
ATOM     28  N   UNL     1      -2.998  17.213  20.748  0.00  0.00    +0.000 NA
ATOM     29  C   UNL     1      -2.610  16.014  20.782  0.00  0.00    +0.000 C 
ENDBRANCH   1  29
BRANCH  18  30
ATOM     30  C   UNL     1      -4.740  16.007  23.292  0.00  0.00    +0.000 C 
BRANCH  30  31
ATOM     31  C   UNL     1      -4.767  16.735  24.614  0.00  0.00    +0.000 C 
ATOM     32 BR   UNL     1      -2.998  17.485  24.950  0.00  0.00    +0.000 Br
ENDBRANCH  30  31
ENDBRANCH  18  30
TORSDOF 4
ENDMDL
MODEL 9
REMARK VINA RESULT:      -5.9      3.849      6.798
REMARK  Name = 
REMARK  4 active torsions:
REMARK  status: ('A' for Active; 'I' for Inactive)
REMARK    1  A    between atoms: C_2  and  C_3
REMARK    2  A    between atoms: C_4  and  N_5
REMARK    3  A    between atoms: N_21  and  C_22
REMARK    4  A    between atoms: C_22  and  C_23
REMARK                            x       y       z     vdW  Elec       q    Type
REMARK                         _______ _______ _______ _____ _____    ______ ____
ROOT
ATOM      1  C   UNL     1      -4.133  13.906  23.516  0.00  0.00    +0.000 C 
ATOM      2  C   UNL     1      -4.040  12.642  24.013  0.00  0.00    +0.000 C 
ATOM      3  O   UNL     1      -2.779  12.026  24.133  0.00  0.00    +0.000 OA
ATOM      4  C   UNL     1      -1.748  12.481  23.317  0.00  0.00    +0.000 A 
ATOM      5  C   UNL     1      -1.758  13.724  22.814  0.00  0.00    +0.000 A 
ATOM      6  C   UNL     1      -1.535  13.502  21.356  0.00  0.00    +0.000 A 
ATOM      7  O   UNL     1      -2.463  13.393  20.564  0.00  0.00    +0.000 OA
ATOM      8  O   UNL     1      -0.240  13.173  21.099  0.00  0.00    +0.000 OA
ATOM      9  C   UNL     1      -0.199  11.849  21.523  0.00  0.00    +0.000 A 
ATOM     10  C   UNL     1       0.561  10.967  20.754  0.00  0.00    +0.000 A 
ATOM     11  C   UNL     1       0.590   9.629  21.108  0.00  0.00    +0.000 A 
ATOM     12  C   UNL     1      -0.108   9.200  22.249  0.00  0.00    +0.000 A 
ATOM     13  C   UNL     1      -0.861  10.094  23.034  0.00  0.00    +0.000 A 
ATOM     14  C   UNL     1      -0.911  11.436  22.666  0.00  0.00    +0.000 A 
ATOM     15  C   UNL     1      -2.776  14.763  23.243  0.00  0.00    +0.000 C 
ATOM     16  C   UNL     1      -2.757  15.902  22.055  0.00  0.00    +0.000 C 
ATOM     17  O   UNL     1      -2.302  15.845  20.917  0.00  0.00    +0.000 OA
ATOM     18  N   UNL     1      -2.868  17.179  22.620  0.00  0.00    +0.000 N 
ATOM     19  C   UNL     1      -2.222  17.104  23.850  0.00  0.00    +0.000 A 
ATOM     20  C   UNL     1      -1.571  18.199  24.400  0.00  0.00    +0.000 A 
ATOM     21  C   UNL     1      -1.033  18.058  25.659  0.00  0.00    +0.000 A 
ATOM     22  C   UNL     1      -1.227  16.838  26.331  0.00  0.00    +0.000 A 
ATOM     23  C   UNL     1      -1.839  15.703  25.698  0.00  0.00    +0.000 A 
ATOM     24  C   UNL     1      -2.274  15.790  24.385  0.00  0.00    +0.000 A 
ENDROOT
BRANCH   2  25
ATOM     25  N   UNL     1      -5.060  11.899  24.537  0.00  0.00    +0.000 N 
ATOM     26  H   UNL     1      -5.894  12.409  24.810  0.00  0.00    +0.000 HD
ATOM     27  H   UNL     1      -4.765  11.196  25.210  0.00  0.00    +0.000 HD
ENDBRANCH   2  25
BRANCH   1  29
ATOM     28  N   UNL     1      -6.391  15.478  23.923  0.00  0.00    +0.000 NA
ATOM     29  C   UNL     1      -5.367  14.765  23.738  0.00  0.00    +0.000 C 
ENDBRANCH   1  29
BRANCH  18  30
ATOM     30  C   UNL     1      -4.243  17.679  22.699  0.00  0.00    +0.000 C 
BRANCH  30  31
ATOM     31  C   UNL     1      -4.733  18.348  21.437  0.00  0.00    +0.000 C 
ATOM     32 BR   UNL     1      -6.002  17.160  20.553  0.00  0.00    +0.000 Br
ENDBRANCH  30  31
ENDBRANCH  18  30
TORSDOF 4
ENDMDL
