MODEL 1
REMARK VINA RESULT:      -7.5      0.000      0.000
REMARK  Name = 
REMARK  6 active torsions:
REMARK  status: ('A' for Active; 'I' for Inactive)
REMARK    1  A    between atoms: C_1  and  C_2
REMARK    2  A    between atoms: C_5  and  C_6
REMARK    3  A    between atoms: N_8  and  C_9
REMARK    4  A    between atoms: C_9  and  C_10
REMARK    5  A    between atoms: C_13  and  C_14
REMARK    6  A    between atoms: C_14  and  O_15
REMARK                            x       y       z     vdW  Elec       q    Type
REMARK                         _______ _______ _______ _____ _____    ______ ____
ROOT
ATOM      1  C   UNL     1       7.006   4.717  16.575  0.00  0.00    +0.000 C 
ATOM      2  O   UNL     1       7.996   4.355  17.209  0.00  0.00    +0.000 OA
ATOM      3  N   UNL     1       5.903   5.284  17.189  0.00  0.00    +0.000 N 
ATOM      4  H   UNL     1       5.171   5.635  16.579  0.00  0.00    +0.000 HD
ENDROOT
BRANCH   1   9
ATOM      5  C   UNL     1       5.826   3.162  12.058  0.00  0.00    +0.000 C 
ATOM      6  C   UNL     1       6.469   3.958  13.129  0.00  0.00    +0.000 A 
ATOM      7  C   UNL     1       7.421   4.945  13.000  0.00  0.00    +0.000 A 
ATOM      8  N   UNL     1       7.703   5.335  14.276  0.00  0.00    +0.000 N 
ATOM      9  C   UNL     1       6.930   4.586  15.133  0.00  0.00    +0.000 A 
ATOM     10  N   UNL     1       6.156   3.754  14.456  0.00  0.00    +0.000 NA
ATOM     11  H   UNL     1       8.364   6.040  14.579  0.00  0.00    +0.000 HD
ENDBRANCH   1   9
BRANCH   3  12
ATOM     12  C   UNL     1       5.928   5.529  18.613  0.00  0.00    +0.000 C 
BRANCH  12  13
ATOM     13  C   UNL     1       4.820   4.883  19.456  0.00  0.00    +0.000 C 
ATOM     14  C   UNL     1       3.511   5.677  19.400  0.00  0.00    +0.000 C 
ATOM     15  C   UNL     1       2.471   5.095  20.354  0.00  0.00    +0.000 C 
ATOM     16  C   UNL     1       2.204   3.610  20.062  0.00  0.00    +0.000 C 
ATOM     17  C   UNL     1       3.515   2.807  20.083  0.00  0.00    +0.000 C 
ATOM     18  C   UNL     1       4.571   3.402  19.139  0.00  0.00    +0.000 C 
BRANCH  16  19
ATOM     19  C   UNL     1       1.189   3.031  21.057  0.00  0.00    +0.000 C 
BRANCH  19  20
ATOM     20  O   UNL     1       1.853   2.500  22.199  0.00  0.00    +0.000 OA
ATOM     21  H   UNL     1       1.702   3.113  22.938  0.00  0.00    +0.000 HD
ENDBRANCH  19  20
ENDBRANCH  16  19
ENDBRANCH  12  13
ENDBRANCH   3  12
TORSDOF 5
ENDMDL
MODEL 2
REMARK VINA RESULT:      -7.1      0.392      1.141
REMARK  Name = 
REMARK  6 active torsions:
REMARK  status: ('A' for Active; 'I' for Inactive)
REMARK    1  A    between atoms: C_1  and  C_2
REMARK    2  A    between atoms: C_5  and  C_6
REMARK    3  A    between atoms: N_8  and  C_9
REMARK    4  A    between atoms: C_9  and  C_10
REMARK    5  A    between atoms: C_13  and  C_14
REMARK    6  A    between atoms: C_14  and  O_15
REMARK                            x       y       z     vdW  Elec       q    Type
REMARK                         _______ _______ _______ _____ _____    ______ ____
ROOT
ATOM      1  C   UNL     1       7.079   4.653  16.733  0.00  0.00    +0.000 C 
ATOM      2  O   UNL     1       8.059   4.274  17.374  0.00  0.00    +0.000 OA
ATOM      3  N   UNL     1       5.970   5.211  17.343  0.00  0.00    +0.000 N 
ATOM      4  H   UNL     1       5.248   5.577  16.729  0.00  0.00    +0.000 HD
ENDROOT
BRANCH   1   9
ATOM      5  C   UNL     1       7.757   5.530  11.939  0.00  0.00    +0.000 C 
ATOM      6  C   UNL     1       7.269   4.877  13.176  0.00  0.00    +0.000 A 
ATOM      7  C   UNL     1       6.392   3.822  13.292  0.00  0.00    +0.000 A 
ATOM      8  N   UNL     1       6.248   3.626  14.634  0.00  0.00    +0.000 N 
ATOM      9  C   UNL     1       7.026   4.553  15.288  0.00  0.00    +0.000 A 
ATOM     10  N   UNL     1       7.672   5.314  14.420  0.00  0.00    +0.000 NA
ATOM     11  H   UNL     1       5.672   2.937  15.103  0.00  0.00    +0.000 HD
ENDBRANCH   1   9
BRANCH   3  12
ATOM     12  C   UNL     1       5.973   5.424  18.772  0.00  0.00    +0.000 C 
BRANCH  12  13
ATOM     13  C   UNL     1       4.828   4.799  19.579  0.00  0.00    +0.000 C 
ATOM     14  C   UNL     1       3.525   5.595  19.450  0.00  0.00    +0.000 C 
ATOM     15  C   UNL     1       2.443   5.034  20.370  0.00  0.00    +0.000 C 
ATOM     16  C   UNL     1       2.184   3.544  20.096  0.00  0.00    +0.000 C 
ATOM     17  C   UNL     1       3.490   2.739  20.190  0.00  0.00    +0.000 C 
ATOM     18  C   UNL     1       4.588   3.312  19.281  0.00  0.00    +0.000 C 
BRANCH  16  19
ATOM     19  C   UNL     1       1.125   2.989  21.058  0.00  0.00    +0.000 C 
BRANCH  19  20
ATOM     20  O   UNL     1       1.743   2.385  22.190  0.00  0.00    +0.000 OA
ATOM     21  H   UNL     1       1.067   2.302  22.884  0.00  0.00    +0.000 HD
ENDBRANCH  19  20
ENDBRANCH  16  19
ENDBRANCH  12  13
ENDBRANCH   3  12
TORSDOF 5
ENDMDL
MODEL 3
REMARK VINA RESULT:      -6.9      1.139      1.141
REMARK  Name = 
REMARK  6 active torsions:
REMARK  status: ('A' for Active; 'I' for Inactive)
REMARK    1  A    between atoms: C_1  and  C_2
REMARK    2  A    between atoms: C_5  and  C_6
REMARK    3  A    between atoms: N_8  and  C_9
REMARK    4  A    between atoms: C_9  and  C_10
REMARK    5  A    between atoms: C_13  and  C_14
REMARK    6  A    between atoms: C_14  and  O_15
REMARK                            x       y       z     vdW  Elec       q    Type
REMARK                         _______ _______ _______ _____ _____    ______ ____
ROOT
ATOM      1  C   UNL     1       6.452   5.204  15.931  0.00  0.00    +0.000 C 
ATOM      2  O   UNL     1       6.366   6.397  16.219  0.00  0.00    +0.000 OA
ATOM      3  N   UNL     1       6.419   4.209  16.893  0.00  0.00    +0.000 N 
ATOM      4  H   UNL     1       6.405   3.251  16.557  0.00  0.00    +0.000 HD
ENDROOT
BRANCH   1   9
ATOM      5  C   UNL     1       5.867   2.693  11.740  0.00  0.00    +0.000 C 
ATOM      6  C   UNL     1       6.384   3.701  12.695  0.00  0.00    +0.000 A 
ATOM      7  C   UNL     1       7.388   4.623  12.498  0.00  0.00    +0.000 A 
ATOM      8  N   UNL     1       7.500   5.285  13.685  0.00  0.00    +0.000 N 
ATOM      9  C   UNL     1       6.579   4.755  14.559  0.00  0.00    +0.000 A 
ATOM     10  N   UNL     1       5.874   3.802  13.971  0.00  0.00    +0.000 NA
ATOM     11  H   UNL     1       8.142   6.032  13.922  0.00  0.00    +0.000 HD
ENDBRANCH   1   9
BRANCH   3  12
ATOM     12  C   UNL     1       6.210   4.564  18.278  0.00  0.00    +0.000 C 
BRANCH  12  13
ATOM     13  C   UNL     1       4.865   4.178  18.907  0.00  0.00    +0.000 C 
ATOM     14  C   UNL     1       4.098   5.396  19.431  0.00  0.00    +0.000 C 
ATOM     15  C   UNL     1       2.833   4.973  20.174  0.00  0.00    +0.000 C 
ATOM     16  C   UNL     1       1.918   4.110  19.291  0.00  0.00    +0.000 C 
ATOM     17  C   UNL     1       2.686   2.901  18.731  0.00  0.00    +0.000 C 
ATOM     18  C   UNL     1       3.970   3.321  18.000  0.00  0.00    +0.000 C 
BRANCH  16  19
ATOM     19  C   UNL     1       0.675   3.660  20.068  0.00  0.00    +0.000 C 
BRANCH  19  20
ATOM     20  O   UNL     1       1.048   2.988  21.267  0.00  0.00    +0.000 OA
ATOM     21  H   UNL     1       0.517   2.176  21.326  0.00  0.00    +0.000 HD
ENDBRANCH  19  20
ENDBRANCH  16  19
ENDBRANCH  12  13
ENDBRANCH   3  12
TORSDOF 5
ENDMDL
MODEL 4
REMARK VINA RESULT:      -6.7      1.111      1.621
REMARK  Name = 
REMARK  6 active torsions:
REMARK  status: ('A' for Active; 'I' for Inactive)
REMARK    1  A    between atoms: C_1  and  C_2
REMARK    2  A    between atoms: C_5  and  C_6
REMARK    3  A    between atoms: N_8  and  C_9
REMARK    4  A    between atoms: C_9  and  C_10
REMARK    5  A    between atoms: C_13  and  C_14
REMARK    6  A    between atoms: C_14  and  O_15
REMARK                            x       y       z     vdW  Elec       q    Type
REMARK                         _______ _______ _______ _____ _____    ______ ____
ROOT
ATOM      1  C   UNL     1       6.573   5.190  15.867  0.00  0.00    +0.000 C 
ATOM      2  O   UNL     1       6.730   6.365  16.195  0.00  0.00    +0.000 OA
ATOM      3  N   UNL     1       6.256   4.203  16.784  0.00  0.00    +0.000 N 
ATOM      4  H   UNL     1       6.057   3.280  16.410  0.00  0.00    +0.000 HD
ENDROOT
BRANCH   1   9
ATOM      5  C   UNL     1       6.012   2.700  11.660  0.00  0.00    +0.000 C 
ATOM      6  C   UNL     1       6.510   3.715  12.617  0.00  0.00    +0.000 A 
ATOM      7  C   UNL     1       7.483   4.669  12.416  0.00  0.00    +0.000 A 
ATOM      8  N   UNL     1       7.590   5.323  13.608  0.00  0.00    +0.000 N 
ATOM      9  C   UNL     1       6.697   4.757  14.489  0.00  0.00    +0.000 A 
ATOM     10  N   UNL     1       6.014   3.788  13.901  0.00  0.00    +0.000 NA
ATOM     11  H   UNL     1       8.211   6.088  13.844  0.00  0.00    +0.000 HD
ENDBRANCH   1   9
BRANCH   3  12
ATOM     12  C   UNL     1       6.032   4.561  18.166  0.00  0.00    +0.000 C 
BRANCH  12  13
ATOM     13  C   UNL     1       4.655   4.238  18.760  0.00  0.00    +0.000 C 
ATOM     14  C   UNL     1       4.641   2.896  19.499  0.00  0.00    +0.000 C 
ATOM     15  C   UNL     1       3.231   2.532  19.958  0.00  0.00    +0.000 C 
ATOM     16  C   UNL     1       2.623   3.631  20.844  0.00  0.00    +0.000 C 
ATOM     17  C   UNL     1       2.661   4.991  20.126  0.00  0.00    +0.000 C 
ATOM     18  C   UNL     1       4.075   5.351  19.645  0.00  0.00    +0.000 C 
BRANCH  16  19
ATOM     19  C   UNL     1       1.191   3.268  21.259  0.00  0.00    +0.000 C 
BRANCH  19  20
ATOM     20  O   UNL     1       0.393   2.985  20.115  0.00  0.00    +0.000 OA
ATOM     21  H   UNL     1      -0.458   2.635  20.429  0.00  0.00    +0.000 HD
ENDBRANCH  19  20
ENDBRANCH  16  19
ENDBRANCH  12  13
ENDBRANCH   3  12
TORSDOF 5
ENDMDL
MODEL 5
REMARK VINA RESULT:      -6.7      2.123      3.051
REMARK  Name = 
REMARK  6 active torsions:
REMARK  status: ('A' for Active; 'I' for Inactive)
REMARK    1  A    between atoms: C_1  and  C_2
REMARK    2  A    between atoms: C_5  and  C_6
REMARK    3  A    between atoms: N_8  and  C_9
REMARK    4  A    between atoms: C_9  and  C_10
REMARK    5  A    between atoms: C_13  and  C_14
REMARK    6  A    between atoms: C_14  and  O_15
REMARK                            x       y       z     vdW  Elec       q    Type
REMARK                         _______ _______ _______ _____ _____    ______ ____
ROOT
ATOM      1  C   UNL     1       6.625   4.344  13.963  0.00  0.00    +0.000 C 
ATOM      2  O   UNL     1       7.440   5.244  13.764  0.00  0.00    +0.000 OA
ATOM      3  N   UNL     1       6.281   3.930  15.238  0.00  0.00    +0.000 N 
ATOM      4  H   UNL     1       5.535   3.244  15.308  0.00  0.00    +0.000 HD
ENDROOT
BRANCH   1   9
ATOM      5  C   UNL     1       3.284   3.000  10.610  0.00  0.00    +0.000 C 
ATOM      6  C   UNL     1       4.546   3.012  11.387  0.00  0.00    +0.000 A 
ATOM      7  C   UNL     1       5.608   2.140  11.296  0.00  0.00    +0.000 A 
ATOM      8  N   UNL     1       6.496   2.563  12.241  0.00  0.00    +0.000 N 
ATOM      9  C   UNL     1       5.958   3.661  12.873  0.00  0.00    +0.000 A 
ATOM     10  N   UNL     1       4.778   3.964  12.356  0.00  0.00    +0.000 NA
ATOM     11  H   UNL     1       7.397   2.161  12.472  0.00  0.00    +0.000 HD
ENDBRANCH   1   9
BRANCH   3  12
ATOM     12  C   UNL     1       6.836   4.613  16.384  0.00  0.00    +0.000 C 
BRANCH  12  13
ATOM     13  C   UNL     1       5.848   5.269  17.357  0.00  0.00    +0.000 C 
ATOM     14  C   UNL     1       4.897   6.242  16.652  0.00  0.00    +0.000 C 
ATOM     15  C   UNL     1       4.021   6.984  17.658  0.00  0.00    +0.000 C 
ATOM     16  C   UNL     1       3.224   6.011  18.541  0.00  0.00    +0.000 C 
ATOM     17  C   UNL     1       4.165   5.007  19.229  0.00  0.00    +0.000 C 
ATOM     18  C   UNL     1       5.063   4.273  18.222  0.00  0.00    +0.000 C 
BRANCH  16  19
ATOM     19  C   UNL     1       2.384   6.773  19.574  0.00  0.00    +0.000 C 
BRANCH  19  20
ATOM     20  O   UNL     1       2.379   6.089  20.822  0.00  0.00    +0.000 OA
ATOM     21  H   UNL     1       3.234   6.258  21.253  0.00  0.00    +0.000 HD
ENDBRANCH  19  20
ENDBRANCH  16  19
ENDBRANCH  12  13
ENDBRANCH   3  12
TORSDOF 5
ENDMDL
MODEL 6
REMARK VINA RESULT:      -6.7      1.587      2.089
REMARK  Name = 
REMARK  6 active torsions:
REMARK  status: ('A' for Active; 'I' for Inactive)
REMARK    1  A    between atoms: C_1  and  C_2
REMARK    2  A    between atoms: C_5  and  C_6
REMARK    3  A    between atoms: N_8  and  C_9
REMARK    4  A    between atoms: C_9  and  C_10
REMARK    5  A    between atoms: C_13  and  C_14
REMARK    6  A    between atoms: C_14  and  O_15
REMARK                            x       y       z     vdW  Elec       q    Type
REMARK                         _______ _______ _______ _____ _____    ______ ____
ROOT
ATOM      1  C   UNL     1       6.460   4.335  14.624  0.00  0.00    +0.000 C 
ATOM      2  O   UNL     1       7.376   5.155  14.665  0.00  0.00    +0.000 OA
ATOM      3  N   UNL     1       5.804   3.903  15.763  0.00  0.00    +0.000 N 
ATOM      4  H   UNL     1       5.003   3.295  15.624  0.00  0.00    +0.000 HD
ENDROOT
BRANCH   1   9
ATOM      5  C   UNL     1       3.624   3.125  10.789  0.00  0.00    +0.000 C 
ATOM      6  C   UNL     1       4.814   3.196  11.669  0.00  0.00    +0.000 A 
ATOM      7  C   UNL     1       6.019   2.545  11.524  0.00  0.00    +0.000 A 
ATOM      8  N   UNL     1       6.757   2.920  12.608  0.00  0.00    +0.000 N 
ATOM      9  C   UNL     1       5.993   3.772  13.372  0.00  0.00    +0.000 A 
ATOM     10  N   UNL     1       4.812   3.970  12.809  0.00  0.00    +0.000 NA
ATOM     11  H   UNL     1       7.700   2.636  12.847  0.00  0.00    +0.000 HD
ENDBRANCH   1   9
BRANCH   3  12
ATOM     12  C   UNL     1       6.149   4.475  17.044  0.00  0.00    +0.000 C 
BRANCH  12  13
ATOM     13  C   UNL     1       5.075   4.443  18.140  0.00  0.00    +0.000 C 
ATOM     14  C   UNL     1       4.356   5.788  18.287  0.00  0.00    +0.000 C 
ATOM     15  C   UNL     1       3.394   5.773  19.472  0.00  0.00    +0.000 C 
ATOM     16  C   UNL     1       2.370   4.633  19.356  0.00  0.00    +0.000 C 
ATOM     17  C   UNL     1       3.079   3.281  19.174  0.00  0.00    +0.000 C 
ATOM     18  C   UNL     1       4.063   3.298  17.995  0.00  0.00    +0.000 C 
BRANCH  16  19
ATOM     19  C   UNL     1       1.441   4.607  20.576  0.00  0.00    +0.000 C 
BRANCH  19  20
ATOM     20  O   UNL     1       0.563   3.488  20.515  0.00  0.00    +0.000 OA
ATOM     21  H   UNL     1      -0.026   3.534  21.288  0.00  0.00    +0.000 HD
ENDBRANCH  19  20
ENDBRANCH  16  19
ENDBRANCH  12  13
ENDBRANCH   3  12
TORSDOF 5
ENDMDL
MODEL 7
REMARK VINA RESULT:      -6.7      1.174      1.483
REMARK  Name = 
REMARK  6 active torsions:
REMARK  status: ('A' for Active; 'I' for Inactive)
REMARK    1  A    between atoms: C_1  and  C_2
REMARK    2  A    between atoms: C_5  and  C_6
REMARK    3  A    between atoms: N_8  and  C_9
REMARK    4  A    between atoms: C_9  and  C_10
REMARK    5  A    between atoms: C_13  and  C_14
REMARK    6  A    between atoms: C_14  and  O_15
REMARK                            x       y       z     vdW  Elec       q    Type
REMARK                         _______ _______ _______ _____ _____    ______ ____
ROOT
ATOM      1  C   UNL     1       5.869   5.560  16.333  0.00  0.00    +0.000 C 
ATOM      2  O   UNL     1       6.558   5.414  17.342  0.00  0.00    +0.000 OA
ATOM      3  N   UNL     1       4.643   6.202  16.363  0.00  0.00    +0.000 N 
ATOM      4  H   UNL     1       4.187   6.355  15.468  0.00  0.00    +0.000 HD
ENDROOT
BRANCH   1   9
ATOM      5  C   UNL     1       6.118   3.081  12.089  0.00  0.00    +0.000 C 
ATOM      6  C   UNL     1       6.482   4.031  13.167  0.00  0.00    +0.000 A 
ATOM      7  C   UNL     1       7.607   4.820  13.261  0.00  0.00    +0.000 A 
ATOM      8  N   UNL     1       7.479   5.480  14.448  0.00  0.00    +0.000 N 
ATOM      9  C   UNL     1       6.301   5.080  15.035  0.00  0.00    +0.000 A 
ATOM     10  N   UNL     1       5.667   4.212  14.264  0.00  0.00    +0.000 NA
ATOM     11  H   UNL     1       8.121   6.146  14.861  0.00  0.00    +0.000 HD
ENDBRANCH   1   9
BRANCH   3  12
ATOM     12  C   UNL     1       4.174   6.785  17.599  0.00  0.00    +0.000 C 
BRANCH  12  13
ATOM     13  C   UNL     1       3.230   5.937  18.461  0.00  0.00    +0.000 C 
ATOM     14  C   UNL     1       2.591   4.792  17.670  0.00  0.00    +0.000 C 
ATOM     15  C   UNL     1       1.553   4.052  18.510  0.00  0.00    +0.000 C 
ATOM     16  C   UNL     1       2.159   3.520  19.818  0.00  0.00    +0.000 C 
ATOM     17  C   UNL     1       2.833   4.654  20.607  0.00  0.00    +0.000 C 
ATOM     18  C   UNL     1       3.863   5.414  19.759  0.00  0.00    +0.000 C 
BRANCH  16  19
ATOM     19  C   UNL     1       1.091   2.818  20.668  0.00  0.00    +0.000 C 
BRANCH  19  20
ATOM     20  O   UNL     1       1.565   2.605  21.993  0.00  0.00    +0.000 OA
ATOM     21  H   UNL     1       2.026   3.413  22.274  0.00  0.00    +0.000 HD
ENDBRANCH  19  20
ENDBRANCH  16  19
ENDBRANCH  12  13
ENDBRANCH   3  12
TORSDOF 5
ENDMDL
MODEL 8
REMARK VINA RESULT:      -6.6      0.683      1.373
REMARK  Name = 
REMARK  6 active torsions:
REMARK  status: ('A' for Active; 'I' for Inactive)
REMARK    1  A    between atoms: C_1  and  C_2
REMARK    2  A    between atoms: C_5  and  C_6
REMARK    3  A    between atoms: N_8  and  C_9
REMARK    4  A    between atoms: C_9  and  C_10
REMARK    5  A    between atoms: C_13  and  C_14
REMARK    6  A    between atoms: C_14  and  O_15
REMARK                            x       y       z     vdW  Elec       q    Type
REMARK                         _______ _______ _______ _____ _____    ______ ____
ROOT
ATOM      1  C   UNL     1       6.498   4.905  16.194  0.00  0.00    +0.000 C 
ATOM      2  O   UNL     1       7.223   4.443  17.074  0.00  0.00    +0.000 OA
ATOM      3  N   UNL     1       5.373   5.656  16.483  0.00  0.00    +0.000 N 
ATOM      4  H   UNL     1       4.886   6.070  15.694  0.00  0.00    +0.000 HD
ENDROOT
BRANCH   1   9
ATOM      5  C   UNL     1       6.565   3.051  11.636  0.00  0.00    +0.000 C 
ATOM      6  C   UNL     1       6.867   3.950  12.775  0.00  0.00    +0.000 A 
ATOM      7  C   UNL     1       7.740   5.014  12.810  0.00  0.00    +0.000 A 
ATOM      8  N   UNL     1       7.676   5.484  14.089  0.00  0.00    +0.000 N 
ATOM      9  C   UNL     1       6.782   4.704  14.786  0.00  0.00    +0.000 A 
ATOM     10  N   UNL     1       6.262   3.775  14.001  0.00  0.00    +0.000 NA
ATOM     11  H   UNL     1       8.187   6.260  14.492  0.00  0.00    +0.000 HD
ENDBRANCH   1   9
BRANCH   3  12
ATOM     12  C   UNL     1       5.062   5.974  17.858  0.00  0.00    +0.000 C 
BRANCH  12  13
ATOM     13  C   UNL     1       3.919   5.193  18.519  0.00  0.00    +0.000 C 
ATOM     14  C   UNL     1       4.375   3.827  19.041  0.00  0.00    +0.000 C 
ATOM     15  C   UNL     1       3.193   3.014  19.566  0.00  0.00    +0.000 C 
ATOM     16  C   UNL     1       2.427   3.772  20.661  0.00  0.00    +0.000 C 
ATOM     17  C   UNL     1       1.992   5.159  20.160  0.00  0.00    +0.000 C 
ATOM     18  C   UNL     1       3.175   5.972  19.613  0.00  0.00    +0.000 C 
BRANCH  16  19
ATOM     19  C   UNL     1       1.219   2.959  21.144  0.00  0.00    +0.000 C 
BRANCH  19  20
ATOM     20  O   UNL     1       1.477   2.388  22.423  0.00  0.00    +0.000 OA
ATOM     21  H   UNL     1       1.859   3.084  22.984  0.00  0.00    +0.000 HD
ENDBRANCH  19  20
ENDBRANCH  16  19
ENDBRANCH  12  13
ENDBRANCH   3  12
TORSDOF 5
ENDMDL
MODEL 9
REMARK VINA RESULT:      -6.5      1.221      1.245
REMARK  Name = 
REMARK  6 active torsions:
REMARK  status: ('A' for Active; 'I' for Inactive)
REMARK    1  A    between atoms: C_1  and  C_2
REMARK    2  A    between atoms: C_5  and  C_6
REMARK    3  A    between atoms: N_8  and  C_9
REMARK    4  A    between atoms: C_9  and  C_10
REMARK    5  A    between atoms: C_13  and  C_14
REMARK    6  A    between atoms: C_14  and  O_15
REMARK                            x       y       z     vdW  Elec       q    Type
REMARK                         _______ _______ _______ _____ _____    ______ ____
ROOT
ATOM      1  C   UNL     1       6.704   4.977  16.028  0.00  0.00    +0.000 C 
ATOM      2  O   UNL     1       7.539   4.646  16.868  0.00  0.00    +0.000 OA
ATOM      3  N   UNL     1       5.526   5.617  16.371  0.00  0.00    +0.000 N 
ATOM      4  H   UNL     1       4.939   5.933  15.604  0.00  0.00    +0.000 HD
ENDROOT
BRANCH   1   9
ATOM      5  C   UNL     1       6.528   2.955  11.545  0.00  0.00    +0.000 C 
ATOM      6  C   UNL     1       6.878   3.902  12.629  0.00  0.00    +0.000 A 
ATOM      7  C   UNL     1       7.725   4.987  12.569  0.00  0.00    +0.000 A 
ATOM      8  N   UNL     1       7.730   5.503  13.832  0.00  0.00    +0.000 N 
ATOM      9  C   UNL     1       6.902   4.730  14.613  0.00  0.00    +0.000 A 
ATOM     10  N   UNL     1       6.357   3.760  13.897  0.00  0.00    +0.000 NA
ATOM     11  H   UNL     1       8.246   6.305  14.174  0.00  0.00    +0.000 HD
ENDBRANCH   1   9
BRANCH   3  12
ATOM     12  C   UNL     1       5.285   5.977  17.750  0.00  0.00    +0.000 C 
BRANCH  12  13
ATOM     13  C   UNL     1       4.252   5.146  18.522  0.00  0.00    +0.000 C 
ATOM     14  C   UNL     1       3.427   5.999  19.491  0.00  0.00    +0.000 C 
ATOM     15  C   UNL     1       2.507   5.130  20.345  0.00  0.00    +0.000 C 
ATOM     16  C   UNL     1       1.579   4.265  19.478  0.00  0.00    +0.000 C 
ATOM     17  C   UNL     1       2.394   3.428  18.478  0.00  0.00    +0.000 C 
ATOM     18  C   UNL     1       3.336   4.296  17.630  0.00  0.00    +0.000 C 
BRANCH  16  19
ATOM     19  C   UNL     1       0.694   3.368  20.353  0.00  0.00    +0.000 C 
BRANCH  19  20
ATOM     20  O   UNL     1       0.060   2.366  19.565  0.00  0.00    +0.000 OA
ATOM     21  H   UNL     1       0.089   2.659  18.639  0.00  0.00    +0.000 HD
ENDBRANCH  19  20
ENDBRANCH  16  19
ENDBRANCH  12  13
ENDBRANCH   3  12
TORSDOF 5
ENDMDL
