MODEL 1
REMARK VINA RESULT:      -9.0      0.000      0.000
REMARK  Name = 
REMARK  11 active torsions:
REMARK  status: ('A' for Active; 'I' for Inactive)
REMARK    1  A    between atoms: C_1  and  C_2
REMARK    2  A    between atoms: N_4  and  C_5
REMARK    3  A    between atoms: C_8  and  N_9
REMARK    4  A    between atoms: C_10  and  C_12
REMARK    5  A    between atoms: C_12  and  C_13
REMARK    6  A    between atoms: C_12  and  O_14
REMARK    7  A    between atoms: O_14  and  C_15
REMARK    8  A    between atoms: C_15  and  C_17
REMARK    9  A    between atoms: C_18  and  C_19
REMARK   10  A    between atoms: N_21  and  C_22
REMARK   11  A    between atoms: C_29  and  C_30
REMARK                            x       y       z     vdW  Elec       q    Type
REMARK                         _______ _______ _______ _____ _____    ______ ____
ROOT
ATOM      1  C   UNL     1       5.554   5.495  17.754  0.00  0.00    +0.000 C 
ATOM      2  O   UNL     1       5.773   4.405  17.253  0.00  0.00    +0.000 OA
ENDROOT
BRANCH   1   3
ATOM      3  C   UNL     1       4.557   5.754  18.809  0.00  0.00    +0.000 C 
ATOM      4  C   UNL     1       3.467   6.477  18.512  0.00  0.00    +0.000 C 
BRANCH   4   5
ATOM      5  C   UNL     1       2.477   6.855  19.459  0.00  0.00    +0.000 A 
ATOM      6  C   UNL     1       2.069   8.149  19.666  0.00  0.00    +0.000 A 
ATOM      7  N   UNL     1       1.128   8.113  20.670  0.00  0.00    +0.000 N 
ATOM      8  N   UNL     1       0.922   6.846  21.108  0.00  0.00    +0.000 NA
ATOM      9  C   UNL     1       1.739   6.064  20.382  0.00  0.00    +0.000 A 
BRANCH   7  10
ATOM     10  C   UNL     1       0.418   9.212  21.234  0.00  0.00    +0.000 A 
ATOM     11  C   UNL     1       0.006   9.191  22.575  0.00  0.00    +0.000 A 
ATOM     12  C   UNL     1      -0.690  10.277  23.113  0.00  0.00    +0.000 A 
ATOM     13  C   UNL     1      -0.987  11.382  22.318  0.00  0.00    +0.000 A 
ATOM     14  C   UNL     1      -0.582  11.411  20.985  0.00  0.00    +0.000 A 
ATOM     15  C   UNL     1       0.123  10.333  20.442  0.00  0.00    +0.000 A 
ENDBRANCH   7  10
BRANCH   9  16
ATOM     16  C   UNL     1       1.771   4.617  20.601  0.00  0.00    +0.000 A 
ATOM     17  C   UNL     1       1.178   3.739  19.687  0.00  0.00    +0.000 A 
ATOM     18  C   UNL     1       1.208   2.364  19.914  0.00  0.00    +0.000 A 
ATOM     19  C   UNL     1       1.841   1.905  21.058  0.00  0.00    +0.000 A 
ATOM     20  N   UNL     1       2.436   2.711  21.966  0.00  0.00    +0.000 NA
ATOM     21  C   UNL     1       2.373   4.044  21.718  0.00  0.00    +0.000 A 
ENDBRANCH   9  16
ENDBRANCH   4   5
ENDBRANCH   1   3
BRANCH   1  22
ATOM     22  O   UNL     1       6.134   6.667  17.417  0.00  0.00    +0.000 OA
BRANCH  22  23
ATOM     23  C   UNL     1       7.525   6.806  17.751  0.00  0.00    +0.000 C 
ATOM     24  C   UNL     1       7.748   6.124  19.101  0.00  0.00    +0.000 C 
BRANCH  23  26
ATOM     25  N   UNL     1       8.786   8.609  18.854  0.00  0.00    +0.000 N 
ATOM     26  C   UNL     1       7.873   8.297  17.849  0.00  0.00    +0.000 C 
ATOM     27  O   UNL     1       7.339   9.105  17.087  0.00  0.00    +0.000 OA
ATOM     28  H   UNL     1       9.120   7.849  19.437  0.00  0.00    +0.000 HD
BRANCH  25  32
ATOM     29  C   UNL     1      10.356  12.500  19.580  0.00  0.00    +0.000 A 
ATOM     30  C   UNL     1       9.806  11.751  20.613  0.00  0.00    +0.000 A 
ATOM     31  C   UNL     1       9.298  10.471  20.385  0.00  0.00    +0.000 A 
ATOM     32  C   UNL     1       9.317   9.896  19.117  0.00  0.00    +0.000 A 
ATOM     33  C   UNL     1       9.869  10.644  18.067  0.00  0.00    +0.000 A 
ATOM     34  C   UNL     1      10.372  11.943  18.296  0.00  0.00    +0.000 A 
BRANCH  29  38
ATOM     35  C   UNL     1      11.888  15.942  19.321  0.00  0.00    +0.000 C 
ATOM     36  C   UNL     1      11.293  14.666  18.789  0.00  0.00    +0.000 C 
ATOM     37  O   UNL     1      11.222  14.485  17.578  0.00  0.00    +0.000 OA
ATOM     38  N   UNL     1      10.867  13.802  19.788  0.00  0.00    +0.000 N 
ATOM     39  H   UNL     1      10.844  14.155  20.735  0.00  0.00    +0.000 HD
ENDBRANCH  29  38
ENDBRANCH  25  32
ENDBRANCH  23  26
ENDBRANCH  22  23
ENDBRANCH   1  22
TORSDOF 9
ENDMDL
MODEL 2
REMARK VINA RESULT:      -8.9      0.800      1.010
REMARK  Name = 
REMARK  11 active torsions:
REMARK  status: ('A' for Active; 'I' for Inactive)
REMARK    1  A    between atoms: C_1  and  C_2
REMARK    2  A    between atoms: N_4  and  C_5
REMARK    3  A    between atoms: C_8  and  N_9
REMARK    4  A    between atoms: C_10  and  C_12
REMARK    5  A    between atoms: C_12  and  C_13
REMARK    6  A    between atoms: C_12  and  O_14
REMARK    7  A    between atoms: O_14  and  C_15
REMARK    8  A    between atoms: C_15  and  C_17
REMARK    9  A    between atoms: C_18  and  C_19
REMARK   10  A    between atoms: N_21  and  C_22
REMARK   11  A    between atoms: C_29  and  C_30
REMARK                            x       y       z     vdW  Elec       q    Type
REMARK                         _______ _______ _______ _____ _____    ______ ____
ROOT
ATOM      1  C   UNL     1       5.417   5.764  17.523  0.00  0.00    +0.000 C 
ATOM      2  O   UNL     1       5.696   4.738  16.926  0.00  0.00    +0.000 OA
ENDROOT
BRANCH   1   3
ATOM      3  C   UNL     1       4.342   5.891  18.524  0.00  0.00    +0.000 C 
ATOM      4  C   UNL     1       3.484   6.918  18.433  0.00  0.00    +0.000 C 
BRANCH   4   5
ATOM      5  C   UNL     1       2.457   7.188  19.378  0.00  0.00    +0.000 A 
ATOM      6  C   UNL     1       2.006   8.447  19.681  0.00  0.00    +0.000 A 
ATOM      7  N   UNL     1       1.040   8.302  20.649  0.00  0.00    +0.000 N 
ATOM      8  N   UNL     1       0.858   6.997  20.973  0.00  0.00    +0.000 NA
ATOM      9  C   UNL     1       1.717   6.302  20.209  0.00  0.00    +0.000 A 
BRANCH   7  10
ATOM     10  C   UNL     1       0.282   9.330  21.281  0.00  0.00    +0.000 A 
ATOM     11  C   UNL     1      -0.077   9.231  22.635  0.00  0.00    +0.000 A 
ATOM     12  C   UNL     1      -0.820  10.248  23.240  0.00  0.00    +0.000 A 
ATOM     13  C   UNL     1      -1.217  11.361  22.501  0.00  0.00    +0.000 A 
ATOM     14  C   UNL     1      -0.865  11.467  21.158  0.00  0.00    +0.000 A 
ATOM     15  C   UNL     1      -0.113  10.459  20.546  0.00  0.00    +0.000 A 
ENDBRANCH   7  10
BRANCH   9  16
ATOM     16  C   UNL     1       1.785   4.843  20.306  0.00  0.00    +0.000 A 
ATOM     17  C   UNL     1       2.363   4.223  21.420  0.00  0.00    +0.000 A 
ATOM     18  C   UNL     1       2.428   2.832  21.493  0.00  0.00    +0.000 A 
ATOM     19  C   UNL     1       1.903   2.097  20.443  0.00  0.00    +0.000 A 
ATOM     20  N   UNL     1       1.327   2.648  19.351  0.00  0.00    +0.000 NA
ATOM     21  C   UNL     1       1.295   4.004  19.308  0.00  0.00    +0.000 A 
ENDBRANCH   9  16
ENDBRANCH   4   5
ENDBRANCH   1   3
BRANCH   1  22
ATOM     22  O   UNL     1       5.991   6.974  17.356  0.00  0.00    +0.000 OA
BRANCH  22  23
ATOM     23  C   UNL     1       7.406   7.044  17.595  0.00  0.00    +0.000 C 
ATOM     24  C   UNL     1       7.708   6.208  18.839  0.00  0.00    +0.000 C 
BRANCH  23  26
ATOM     25  N   UNL     1       8.778   8.684  18.814  0.00  0.00    +0.000 N 
ATOM     26  C   UNL     1       7.806   8.506  17.832  0.00  0.00    +0.000 C 
ATOM     27  O   UNL     1       7.260   9.406  17.190  0.00  0.00    +0.000 OA
ATOM     28  H   UNL     1       9.117   7.857  19.295  0.00  0.00    +0.000 HD
BRANCH  25  32
ATOM     29  C   UNL     1      10.523  12.426  19.857  0.00  0.00    +0.000 A 
ATOM     30  C   UNL     1       9.702  11.750  20.751  0.00  0.00    +0.000 A 
ATOM     31  C   UNL     1       9.133  10.520  20.421  0.00  0.00    +0.000 A 
ATOM     32  C   UNL     1       9.362   9.921  19.184  0.00  0.00    +0.000 A 
ATOM     33  C   UNL     1      10.189  10.595  18.273  0.00  0.00    +0.000 A 
ATOM     34  C   UNL     1      10.754  11.845  18.604  0.00  0.00    +0.000 A 
BRANCH  29  38
ATOM     35  C   UNL     1      11.414  16.071  20.273  0.00  0.00    +0.000 C 
ATOM     36  C   UNL     1      10.515  14.914  19.934  0.00  0.00    +0.000 C 
ATOM     37  O   UNL     1       9.386  15.123  19.502  0.00  0.00    +0.000 OA
ATOM     38  N   UNL     1      11.101  13.678  20.169  0.00  0.00    +0.000 N 
ATOM     39  H   UNL     1      11.976  13.663  20.676  0.00  0.00    +0.000 HD
ENDBRANCH  29  38
ENDBRANCH  25  32
ENDBRANCH  23  26
ENDBRANCH  22  23
ENDBRANCH   1  22
TORSDOF 9
ENDMDL
MODEL 3
REMARK VINA RESULT:      -8.9      5.592      8.214
REMARK  Name = 
REMARK  11 active torsions:
REMARK  status: ('A' for Active; 'I' for Inactive)
REMARK    1  A    between atoms: C_1  and  C_2
REMARK    2  A    between atoms: N_4  and  C_5
REMARK    3  A    between atoms: C_8  and  N_9
REMARK    4  A    between atoms: C_10  and  C_12
REMARK    5  A    between atoms: C_12  and  C_13
REMARK    6  A    between atoms: C_12  and  O_14
REMARK    7  A    between atoms: O_14  and  C_15
REMARK    8  A    between atoms: C_15  and  C_17
REMARK    9  A    between atoms: C_18  and  C_19
REMARK   10  A    between atoms: N_21  and  C_22
REMARK   11  A    between atoms: C_29  and  C_30
REMARK                            x       y       z     vdW  Elec       q    Type
REMARK                         _______ _______ _______ _____ _____    ______ ____
ROOT
ATOM      1  C   UNL     1       2.029   8.497  18.845  0.00  0.00    +0.000 C 
ATOM      2  O   UNL     1       2.456   8.782  17.739  0.00  0.00    +0.000 OA
ENDROOT
BRANCH   1   3
ATOM      3  C   UNL     1       0.896   9.166  19.511  0.00  0.00    +0.000 C 
ATOM      4  C   UNL     1       0.322  10.222  18.917  0.00  0.00    +0.000 C 
BRANCH   4   5
ATOM      5  C   UNL     1      -0.723  10.993  19.493  0.00  0.00    +0.000 A 
ATOM      6  C   UNL     1      -0.660  11.558  20.741  0.00  0.00    +0.000 A 
ATOM      7  N   UNL     1      -1.862  12.194  20.952  0.00  0.00    +0.000 N 
ATOM      8  N   UNL     1      -2.687  12.057  19.884  0.00  0.00    +0.000 NA
ATOM      9  C   UNL     1      -2.009  11.323  18.983  0.00  0.00    +0.000 A 
BRANCH   7  10
ATOM     10  C   UNL     1      -2.268  12.923  22.107  0.00  0.00    +0.000 A 
ATOM     11  C   UNL     1      -2.908  12.279  23.177  0.00  0.00    +0.000 A 
ATOM     12  C   UNL     1      -3.301  13.007  24.302  0.00  0.00    +0.000 A 
ATOM     13  C   UNL     1      -3.068  14.379  24.364  0.00  0.00    +0.000 A 
ATOM     14  C   UNL     1      -2.433  15.027  23.307  0.00  0.00    +0.000 A 
ATOM     15  C   UNL     1      -2.029  14.304  22.181  0.00  0.00    +0.000 A 
ENDBRANCH   7  10
BRANCH   9  16
ATOM     16  C   UNL     1      -2.616  10.983  17.695  0.00  0.00    +0.000 A 
ATOM     17  C   UNL     1      -2.028  10.031  16.854  0.00  0.00    +0.000 A 
ATOM     18  C   UNL     1      -2.613   9.725  15.626  0.00  0.00    +0.000 A 
ATOM     19  C   UNL     1      -3.782  10.381  15.277  0.00  0.00    +0.000 A 
ATOM     20  N   UNL     1      -4.393  11.300  16.058  0.00  0.00    +0.000 NA
ATOM     21  C   UNL     1      -3.786  11.584  17.239  0.00  0.00    +0.000 A 
ENDBRANCH   9  16
ENDBRANCH   4   5
ENDBRANCH   1   3
BRANCH   1  22
ATOM     22  O   UNL     1       2.527   7.563  19.684  0.00  0.00    +0.000 OA
BRANCH  22  23
ATOM     23  C   UNL     1       1.930   6.259  19.607  0.00  0.00    +0.000 C 
ATOM     24  C   UNL     1       2.373   5.472  20.840  0.00  0.00    +0.000 C 
BRANCH  23  26
ATOM     25  N   UNL     1       3.745   5.811  18.005  0.00  0.00    +0.000 N 
ATOM     26  C   UNL     1       2.415   5.557  18.331  0.00  0.00    +0.000 C 
ATOM     27  O   UNL     1       1.637   4.856  17.680  0.00  0.00    +0.000 OA
ATOM     28  H   UNL     1       4.264   6.440  18.609  0.00  0.00    +0.000 HD
BRANCH  25  32
ATOM     29  C   UNL     1       5.911   4.163  14.730  0.00  0.00    +0.000 A 
ATOM     30  C   UNL     1       5.435   3.348  15.750  0.00  0.00    +0.000 A 
ATOM     31  C   UNL     1       4.717   3.879  16.822  0.00  0.00    +0.000 A 
ATOM     32  C   UNL     1       4.451   5.243  16.916  0.00  0.00    +0.000 A 
ATOM     33  C   UNL     1       4.927   6.075  15.892  0.00  0.00    +0.000 A 
ATOM     34  C   UNL     1       5.664   5.538  14.814  0.00  0.00    +0.000 A 
BRANCH  29  38
ATOM     35  C   UNL     1       7.127   2.665  11.485  0.00  0.00    +0.000 C 
ATOM     36  C   UNL     1       6.116   3.283  12.411  0.00  0.00    +0.000 C 
ATOM     37  O   UNL     1       4.955   3.424  12.040  0.00  0.00    +0.000 OA
ATOM     38  N   UNL     1       6.648   3.646  13.640  0.00  0.00    +0.000 N 
ATOM     39  H   UNL     1       7.653   3.616  13.743  0.00  0.00    +0.000 HD
ENDBRANCH  29  38
ENDBRANCH  25  32
ENDBRANCH  23  26
ENDBRANCH  22  23
ENDBRANCH   1  22
TORSDOF 9
ENDMDL
MODEL 4
REMARK VINA RESULT:      -8.9      1.510      1.872
REMARK  Name = 
REMARK  11 active torsions:
REMARK  status: ('A' for Active; 'I' for Inactive)
REMARK    1  A    between atoms: C_1  and  C_2
REMARK    2  A    between atoms: N_4  and  C_5
REMARK    3  A    between atoms: C_8  and  N_9
REMARK    4  A    between atoms: C_10  and  C_12
REMARK    5  A    between atoms: C_12  and  C_13
REMARK    6  A    between atoms: C_12  and  O_14
REMARK    7  A    between atoms: O_14  and  C_15
REMARK    8  A    between atoms: C_15  and  C_17
REMARK    9  A    between atoms: C_18  and  C_19
REMARK   10  A    between atoms: N_21  and  C_22
REMARK   11  A    between atoms: C_29  and  C_30
REMARK                            x       y       z     vdW  Elec       q    Type
REMARK                         _______ _______ _______ _____ _____    ______ ____
ROOT
ATOM      1  C   UNL     1       4.758   6.419  16.624  0.00  0.00    +0.000 C 
ATOM      2  O   UNL     1       4.929   6.643  15.438  0.00  0.00    +0.000 OA
ENDROOT
BRANCH   1   3
ATOM      3  C   UNL     1       3.534   6.749  17.378  0.00  0.00    +0.000 C 
ATOM      4  C   UNL     1       3.634   7.070  18.675  0.00  0.00    +0.000 C 
BRANCH   4   5
ATOM      5  C   UNL     1       2.522   7.332  19.522  0.00  0.00    +0.000 A 
ATOM      6  C   UNL     1       2.037   8.589  19.783  0.00  0.00    +0.000 A 
ATOM      7  N   UNL     1       0.986   8.436  20.657  0.00  0.00    +0.000 N 
ATOM      8  N   UNL     1       0.783   7.129  20.961  0.00  0.00    +0.000 NA
ATOM      9  C   UNL     1       1.714   6.440  20.279  0.00  0.00    +0.000 A 
BRANCH   7  10
ATOM     10  C   UNL     1       0.167   9.458  21.218  0.00  0.00    +0.000 A 
ATOM     11  C   UNL     1      -0.359  10.481  20.414  0.00  0.00    +0.000 A 
ATOM     12  C   UNL     1      -1.161  11.476  20.979  0.00  0.00    +0.000 A 
ATOM     13  C   UNL     1      -1.434  11.463  22.346  0.00  0.00    +0.000 A 
ATOM     14  C   UNL     1      -0.916  10.452  23.151  0.00  0.00    +0.000 A 
ATOM     15  C   UNL     1      -0.121   9.447  22.592  0.00  0.00    +0.000 A 
ENDBRANCH   7  10
BRANCH   9  16
ATOM     16  C   UNL     1       1.781   4.981  20.380  0.00  0.00    +0.000 A 
ATOM     17  C   UNL     1       1.422   4.169  19.299  0.00  0.00    +0.000 A 
ATOM     18  C   UNL     1       1.483   2.780  19.414  0.00  0.00    +0.000 A 
ATOM     19  C   UNL     1       1.909   2.243  20.617  0.00  0.00    +0.000 A 
ATOM     20  N   UNL     1       2.275   2.985  21.687  0.00  0.00    +0.000 NA
ATOM     21  C   UNL     1       2.189   4.332  21.542  0.00  0.00    +0.000 A 
ENDBRANCH   9  16
ENDBRANCH   4   5
ENDBRANCH   1   3
BRANCH   1  22
ATOM     22  O   UNL     1       5.654   5.879  17.478  0.00  0.00    +0.000 OA
BRANCH  22  23
ATOM     23  C   UNL     1       7.030   5.927  17.068  0.00  0.00    +0.000 C 
ATOM     24  C   UNL     1       7.634   4.544  17.310  0.00  0.00    +0.000 C 
BRANCH  23  26
ATOM     25  N   UNL     1       7.734   8.266  17.371  0.00  0.00    +0.000 N 
ATOM     26  C   UNL     1       7.769   6.980  17.905  0.00  0.00    +0.000 C 
ATOM     27  O   UNL     1       8.345   6.648  18.943  0.00  0.00    +0.000 OA
ATOM     28  H   UNL     1       7.254   8.394  16.486  0.00  0.00    +0.000 HD
BRANCH  25  32
ATOM     29  C   UNL     1       9.332  11.786  19.159  0.00  0.00    +0.000 A 
ATOM     30  C   UNL     1       9.539  10.538  19.735  0.00  0.00    +0.000 A 
ATOM     31  C   UNL     1       9.027   9.379  19.151  0.00  0.00    +0.000 A 
ATOM     32  C   UNL     1       8.285   9.425  17.972  0.00  0.00    +0.000 A 
ATOM     33  C   UNL     1       8.069  10.679  17.383  0.00  0.00    +0.000 A 
ATOM     34  C   UNL     1       8.578  11.852  17.982  0.00  0.00    +0.000 A 
BRANCH  29  38
ATOM     35  C   UNL     1      10.257  14.694  21.382  0.00  0.00    +0.000 C 
ATOM     36  C   UNL     1       9.719  13.322  21.078  0.00  0.00    +0.000 C 
ATOM     37  O   UNL     1       9.245  12.639  21.980  0.00  0.00    +0.000 OA
ATOM     38  N   UNL     1       9.834  12.972  19.740  0.00  0.00    +0.000 N 
ATOM     39  H   UNL     1      10.390  13.571  19.145  0.00  0.00    +0.000 HD
ENDBRANCH  29  38
ENDBRANCH  25  32
ENDBRANCH  23  26
ENDBRANCH  22  23
ENDBRANCH   1  22
TORSDOF 9
ENDMDL
MODEL 5
REMARK VINA RESULT:      -8.9      5.029      8.428
REMARK  Name = 
REMARK  11 active torsions:
REMARK  status: ('A' for Active; 'I' for Inactive)
REMARK    1  A    between atoms: C_1  and  C_2
REMARK    2  A    between atoms: N_4  and  C_5
REMARK    3  A    between atoms: C_8  and  N_9
REMARK    4  A    between atoms: C_10  and  C_12
REMARK    5  A    between atoms: C_12  and  C_13
REMARK    6  A    between atoms: C_12  and  O_14
REMARK    7  A    between atoms: O_14  and  C_15
REMARK    8  A    between atoms: C_15  and  C_17
REMARK    9  A    between atoms: C_18  and  C_19
REMARK   10  A    between atoms: N_21  and  C_22
REMARK   11  A    between atoms: C_29  and  C_30
REMARK                            x       y       z     vdW  Elec       q    Type
REMARK                         _______ _______ _______ _____ _____    ______ ____
ROOT
ATOM      1  C   UNL     1       1.057   7.775  20.859  0.00  0.00    +0.000 C 
ATOM      2  O   UNL     1       0.103   7.545  21.582  0.00  0.00    +0.000 OA
ENDROOT
BRANCH   1   3
ATOM      3  C   UNL     1       1.271   9.032  20.118  0.00  0.00    +0.000 C 
ATOM      4  C   UNL     1       0.406  10.043  20.286  0.00  0.00    +0.000 C 
BRANCH   4   5
ATOM      5  C   UNL     1       0.464  11.271  19.573  0.00  0.00    +0.000 A 
ATOM      6  C   UNL     1       1.540  12.122  19.599  0.00  0.00    +0.000 A 
ATOM      7  N   UNL     1       1.210  13.204  18.816  0.00  0.00    +0.000 N 
ATOM      8  N   UNL     1      -0.035  13.073  18.291  0.00  0.00    +0.000 NA
ATOM      9  C   UNL     1      -0.507  11.899  18.745  0.00  0.00    +0.000 A 
BRANCH   7  10
ATOM     10  C   UNL     1       2.008  14.351  18.539  0.00  0.00    +0.000 A 
ATOM     11  C   UNL     1       1.502  15.646  18.737  0.00  0.00    +0.000 A 
ATOM     12  C   UNL     1       2.297  16.760  18.461  0.00  0.00    +0.000 A 
ATOM     13  C   UNL     1       3.593  16.594  17.977  0.00  0.00    +0.000 A 
ATOM     14  C   UNL     1       4.103  15.313  17.777  0.00  0.00    +0.000 A 
ATOM     15  C   UNL     1       3.317  14.192  18.060  0.00  0.00    +0.000 A 
ENDBRANCH   7  10
BRANCH   9  16
ATOM     16  C   UNL     1      -1.845  11.440  18.367  0.00  0.00    +0.000 A 
ATOM     17  C   UNL     1      -2.987  11.994  18.956  0.00  0.00    +0.000 A 
ATOM     18  C   UNL     1      -4.254  11.539  18.592  0.00  0.00    +0.000 A 
ATOM     19  C   UNL     1      -4.340  10.539  17.637  0.00  0.00    +0.000 A 
ATOM     20  N   UNL     1      -3.267   9.979  17.033  0.00  0.00    +0.000 NA
ATOM     21  C   UNL     1      -2.051  10.437  17.424  0.00  0.00    +0.000 A 
ENDBRANCH   9  16
ENDBRANCH   4   5
ENDBRANCH   1   3
BRANCH   1  22
ATOM     22  O   UNL     1       2.063   6.926  20.560  0.00  0.00    +0.000 OA
BRANCH  22  23
ATOM     23  C   UNL     1       1.678   5.597  20.172  0.00  0.00    +0.000 C 
ATOM     24  C   UNL     1       2.276   4.625  21.189  0.00  0.00    +0.000 C 
BRANCH  23  26
ATOM     25  N   UNL     1       3.605   5.483  18.645  0.00  0.00    +0.000 N 
ATOM     26  C   UNL     1       2.230   5.301  18.771  0.00  0.00    +0.000 C 
ATOM     27  O   UNL     1       1.465   4.954  17.869  0.00  0.00    +0.000 OA
ATOM     28  H   UNL     1       4.112   5.810  19.461  0.00  0.00    +0.000 HD
BRANCH  25  32
ATOM     29  C   UNL     1       5.865   4.641  15.135  0.00  0.00    +0.000 A 
ATOM     30  C   UNL     1       5.462   5.938  15.427  0.00  0.00    +0.000 A 
ATOM     31  C   UNL     1       4.729   6.224  16.580  0.00  0.00    +0.000 A 
ATOM     32  C   UNL     1       4.369   5.224  17.480  0.00  0.00    +0.000 A 
ATOM     33  C   UNL     1       4.770   3.911  17.194  0.00  0.00    +0.000 A 
ATOM     34  C   UNL     1       5.501   3.621  16.022  0.00  0.00    +0.000 A 
BRANCH  29  38
ATOM     35  C   UNL     1       7.116   3.453  11.777  0.00  0.00    +0.000 C 
ATOM     36  C   UNL     1       6.073   3.771  12.812  0.00  0.00    +0.000 C 
ATOM     37  O   UNL     1       4.891   3.536  12.580  0.00  0.00    +0.000 OA
ATOM     38  N   UNL     1       6.600   4.329  13.969  0.00  0.00    +0.000 N 
ATOM     39  H   UNL     1       7.571   4.611  13.952  0.00  0.00    +0.000 HD
ENDBRANCH  29  38
ENDBRANCH  25  32
ENDBRANCH  23  26
ENDBRANCH  22  23
ENDBRANCH   1  22
TORSDOF 9
ENDMDL
MODEL 6
REMARK VINA RESULT:      -8.8      5.495      9.829
REMARK  Name = 
REMARK  11 active torsions:
REMARK  status: ('A' for Active; 'I' for Inactive)
REMARK    1  A    between atoms: C_1  and  C_2
REMARK    2  A    between atoms: N_4  and  C_5
REMARK    3  A    between atoms: C_8  and  N_9
REMARK    4  A    between atoms: C_10  and  C_12
REMARK    5  A    between atoms: C_12  and  C_13
REMARK    6  A    between atoms: C_12  and  O_14
REMARK    7  A    between atoms: O_14  and  C_15
REMARK    8  A    between atoms: C_15  and  C_17
REMARK    9  A    between atoms: C_18  and  C_19
REMARK   10  A    between atoms: N_21  and  C_22
REMARK   11  A    between atoms: C_29  and  C_30
REMARK                            x       y       z     vdW  Elec       q    Type
REMARK                         _______ _______ _______ _____ _____    ______ ____
ROOT
ATOM      1  C   UNL     1       1.616   9.462  18.537  0.00  0.00    +0.000 C 
ATOM      2  O   UNL     1       1.794  10.635  18.253  0.00  0.00    +0.000 OA
ENDROOT
BRANCH   1   3
ATOM      3  C   UNL     1       2.113   8.319  17.749  0.00  0.00    +0.000 C 
ATOM      4  C   UNL     1       3.011   7.489  18.300  0.00  0.00    +0.000 C 
BRANCH   4   5
ATOM      5  C   UNL     1       3.617   6.401  17.617  0.00  0.00    +0.000 A 
ATOM      6  C   UNL     1       4.394   6.538  16.494  0.00  0.00    +0.000 A 
ATOM      7  N   UNL     1       4.772   5.270  16.115  0.00  0.00    +0.000 N 
ATOM      8  N   UNL     1       4.266   4.332  16.954  0.00  0.00    +0.000 NA
ATOM      9  C   UNL     1       3.555   5.004  17.876  0.00  0.00    +0.000 A 
BRANCH   7  10
ATOM     10  C   UNL     1       5.584   4.902  15.003  0.00  0.00    +0.000 A 
ATOM     11  C   UNL     1       5.120   3.990  14.043  0.00  0.00    +0.000 A 
ATOM     12  C   UNL     1       5.928   3.639  12.959  0.00  0.00    +0.000 A 
ATOM     13  C   UNL     1       7.203   4.186  12.830  0.00  0.00    +0.000 A 
ATOM     14  C   UNL     1       7.672   5.093  13.778  0.00  0.00    +0.000 A 
ATOM     15  C   UNL     1       6.866   5.456  14.861  0.00  0.00    +0.000 A 
ENDBRANCH   7  10
BRANCH   9  16
ATOM     16  C   UNL     1       2.864   4.286  18.949  0.00  0.00    +0.000 A 
ATOM     17  C   UNL     1       1.467   4.266  19.016  0.00  0.00    +0.000 A 
ATOM     18  C   UNL     1       0.823   3.586  20.049  0.00  0.00    +0.000 A 
ATOM     19  C   UNL     1       1.606   2.937  20.990  0.00  0.00    +0.000 A 
ATOM     20  N   UNL     1       2.958   2.919  20.963  0.00  0.00    +0.000 NA
ATOM     21  C   UNL     1       3.548   3.604  19.952  0.00  0.00    +0.000 A 
ENDBRANCH   9  16
ENDBRANCH   4   5
ENDBRANCH   1   3
BRANCH   1  22
ATOM     22  O   UNL     1       0.904   8.986  19.580  0.00  0.00    +0.000 OA
BRANCH  22  23
ATOM     23  C   UNL     1       1.334   9.404  20.886  0.00  0.00    +0.000 C 
ATOM     24  C   UNL     1       1.013   8.274  21.864  0.00  0.00    +0.000 C 
BRANCH  23  26
ATOM     25  N   UNL     1      -0.799  10.508  21.424  0.00  0.00    +0.000 N 
ATOM     26  C   UNL     1       0.576  10.678  21.283  0.00  0.00    +0.000 C 
ATOM     27  O   UNL     1       1.188  11.738  21.430  0.00  0.00    +0.000 OA
ATOM     28  H   UNL     1      -1.180   9.586  21.235  0.00  0.00    +0.000 HD
BRANCH  25  32
ATOM     29  C   UNL     1      -3.593  13.496  22.606  0.00  0.00    +0.000 A 
ATOM     30  C   UNL     1      -3.035  12.633  23.542  0.00  0.00    +0.000 A 
ATOM     31  C   UNL     1      -2.112  11.658  23.164  0.00  0.00    +0.000 A 
ATOM     32  C   UNL     1      -1.716  11.505  21.837  0.00  0.00    +0.000 A 
ATOM     33  C   UNL     1      -2.273  12.370  20.885  0.00  0.00    +0.000 A 
ATOM     34  C   UNL     1      -3.216  13.349  21.266  0.00  0.00    +0.000 A 
BRANCH  29  38
ATOM     35  C   UNL     1      -5.473  16.464  23.990  0.00  0.00    +0.000 C 
ATOM     36  C   UNL     1      -4.249  15.657  23.653  0.00  0.00    +0.000 C 
ATOM     37  O   UNL     1      -3.139  16.064  23.984  0.00  0.00    +0.000 OA
ATOM     38  N   UNL     1      -4.536  14.485  22.967  0.00  0.00    +0.000 N 
ATOM     39  H   UNL     1      -5.480  14.362  22.626  0.00  0.00    +0.000 HD
ENDBRANCH  29  38
ENDBRANCH  25  32
ENDBRANCH  23  26
ENDBRANCH  22  23
ENDBRANCH   1  22
TORSDOF 9
ENDMDL
MODEL 7
REMARK VINA RESULT:      -8.6      5.596      8.331
REMARK  Name = 
REMARK  11 active torsions:
REMARK  status: ('A' for Active; 'I' for Inactive)
REMARK    1  A    between atoms: C_1  and  C_2
REMARK    2  A    between atoms: N_4  and  C_5
REMARK    3  A    between atoms: C_8  and  N_9
REMARK    4  A    between atoms: C_10  and  C_12
REMARK    5  A    between atoms: C_12  and  C_13
REMARK    6  A    between atoms: C_12  and  O_14
REMARK    7  A    between atoms: O_14  and  C_15
REMARK    8  A    between atoms: C_15  and  C_17
REMARK    9  A    between atoms: C_18  and  C_19
REMARK   10  A    between atoms: N_21  and  C_22
REMARK   11  A    between atoms: C_29  and  C_30
REMARK                            x       y       z     vdW  Elec       q    Type
REMARK                         _______ _______ _______ _____ _____    ______ ____
ROOT
ATOM      1  C   UNL     1       1.884   8.243  18.958  0.00  0.00    +0.000 C 
ATOM      2  O   UNL     1       2.076   8.248  17.754  0.00  0.00    +0.000 OA
ENDROOT
BRANCH   1   3
ATOM      3  C   UNL     1       1.128   9.271  19.697  0.00  0.00    +0.000 C 
ATOM      4  C   UNL     1       0.414  10.175  19.010  0.00  0.00    +0.000 C 
BRANCH   4   5
ATOM      5  C   UNL     1      -0.292  11.255  19.605  0.00  0.00    +0.000 A 
ATOM      6  C   UNL     1       0.137  11.930  20.720  0.00  0.00    +0.000 A 
ATOM      7  N   UNL     1      -0.819  12.878  21.003  0.00  0.00    +0.000 N 
ATOM      8  N   UNL     1      -1.840  12.833  20.110  0.00  0.00    +0.000 NA
ATOM      9  C   UNL     1      -1.537  11.846  19.250  0.00  0.00    +0.000 A 
BRANCH   7  10
ATOM     10  C   UNL     1      -0.817  13.821  22.072  0.00  0.00    +0.000 A 
ATOM     11  C   UNL     1      -0.001  14.962  22.024  0.00  0.00    +0.000 A 
ATOM     12  C   UNL     1      -0.010  15.876  23.079  0.00  0.00    +0.000 A 
ATOM     13  C   UNL     1      -0.822  15.657  24.190  0.00  0.00    +0.000 A 
ATOM     14  C   UNL     1      -1.636  14.527  24.246  0.00  0.00    +0.000 A 
ATOM     15  C   UNL     1      -1.640  13.611  23.189  0.00  0.00    +0.000 A 
ENDBRANCH   7  10
BRANCH   9  16
ATOM     16  C   UNL     1      -2.438  11.522  18.143  0.00  0.00    +0.000 A 
ATOM     17  C   UNL     1      -3.823  11.470  18.336  0.00  0.00    +0.000 A 
ATOM     18  C   UNL     1      -4.668  11.151  17.274  0.00  0.00    +0.000 A 
ATOM     19  C   UNL     1      -4.096  10.898  16.038  0.00  0.00    +0.000 A 
ATOM     20  N   UNL     1      -2.766  10.946  15.798  0.00  0.00    +0.000 NA
ATOM     21  C   UNL     1      -1.975  11.244  16.860  0.00  0.00    +0.000 A 
ENDBRANCH   9  16
ENDBRANCH   4   5
ENDBRANCH   1   3
BRANCH   1  22
ATOM     22  O   UNL     1       2.356   7.340  19.844  0.00  0.00    +0.000 OA
BRANCH  22  23
ATOM     23  C   UNL     1       1.868   5.996  19.701  0.00  0.00    +0.000 C 
ATOM     24  C   UNL     1       2.392   5.183  20.884  0.00  0.00    +0.000 C 
BRANCH  23  26
ATOM     25  N   UNL     1       3.732   5.684  18.124  0.00  0.00    +0.000 N 
ATOM     26  C   UNL     1       2.392   5.408  18.384  0.00  0.00    +0.000 C 
ATOM     27  O   UNL     1       1.633   4.771  17.649  0.00  0.00    +0.000 OA
ATOM     28  H   UNL     1       4.233   6.254  18.797  0.00  0.00    +0.000 HD
BRANCH  25  32
ATOM     29  C   UNL     1       5.910   4.207  14.775  0.00  0.00    +0.000 A 
ATOM     30  C   UNL     1       5.721   5.573  14.955  0.00  0.00    +0.000 A 
ATOM     31  C   UNL     1       5.016   6.065  16.054  0.00  0.00    +0.000 A 
ATOM     32  C   UNL     1       4.472   5.211  17.011  0.00  0.00    +0.000 A 
ATOM     33  C   UNL     1       4.657   3.832  16.839  0.00  0.00    +0.000 A 
ATOM     34  C   UNL     1       5.359   3.335  15.721  0.00  0.00    +0.000 A 
BRANCH  29  38
ATOM     35  C   UNL     1       7.024   2.698  11.499  0.00  0.00    +0.000 C 
ATOM     36  C   UNL     1       6.042   3.317  12.455  0.00  0.00    +0.000 C 
ATOM     37  O   UNL     1       4.868   3.451  12.122  0.00  0.00    +0.000 OA
ATOM     38  N   UNL     1       6.613   3.688  13.664  0.00  0.00    +0.000 N 
ATOM     39  H   UNL     1       7.621   3.663  13.733  0.00  0.00    +0.000 HD
ENDBRANCH  29  38
ENDBRANCH  25  32
ENDBRANCH  23  26
ENDBRANCH  22  23
ENDBRANCH   1  22
TORSDOF 9
ENDMDL
MODEL 8
REMARK VINA RESULT:      -8.5      5.458      9.731
REMARK  Name = 
REMARK  11 active torsions:
REMARK  status: ('A' for Active; 'I' for Inactive)
REMARK    1  A    between atoms: C_1  and  C_2
REMARK    2  A    between atoms: N_4  and  C_5
REMARK    3  A    between atoms: C_8  and  N_9
REMARK    4  A    between atoms: C_10  and  C_12
REMARK    5  A    between atoms: C_12  and  C_13
REMARK    6  A    between atoms: C_12  and  O_14
REMARK    7  A    between atoms: O_14  and  C_15
REMARK    8  A    between atoms: C_15  and  C_17
REMARK    9  A    between atoms: C_18  and  C_19
REMARK   10  A    between atoms: N_21  and  C_22
REMARK   11  A    between atoms: C_29  and  C_30
REMARK                            x       y       z     vdW  Elec       q    Type
REMARK                         _______ _______ _______ _____ _____    ______ ____
ROOT
ATOM      1  C   UNL     1       1.848   9.648  18.371  0.00  0.00    +0.000 C 
ATOM      2  O   UNL     1       2.086  10.823  18.149  0.00  0.00    +0.000 OA
ENDROOT
BRANCH   1   3
ATOM      3  C   UNL     1       2.355   8.518  17.570  0.00  0.00    +0.000 C 
ATOM      4  C   UNL     1       3.032   7.536  18.183  0.00  0.00    +0.000 C 
BRANCH   4   5
ATOM      5  C   UNL     1       3.632   6.438  17.510  0.00  0.00    +0.000 A 
ATOM      6  C   UNL     1       4.447   6.564  16.414  0.00  0.00    +0.000 A 
ATOM      7  N   UNL     1       4.804   5.290  16.035  0.00  0.00    +0.000 N 
ATOM      8  N   UNL     1       4.248   4.358  16.850  0.00  0.00    +0.000 NA
ATOM      9  C   UNL     1       3.526   5.041  17.755  0.00  0.00    +0.000 A 
BRANCH   7  10
ATOM     10  C   UNL     1       5.641   4.910  14.947  0.00  0.00    +0.000 A 
ATOM     11  C   UNL     1       6.932   5.444  14.810  0.00  0.00    +0.000 A 
ATOM     12  C   UNL     1       7.741   5.061  13.737  0.00  0.00    +0.000 A 
ATOM     13  C   UNL     1       7.266   4.154  12.791  0.00  0.00    +0.000 A 
ATOM     14  C   UNL     1       5.986   3.620  12.919  0.00  0.00    +0.000 A 
ATOM     15  C   UNL     1       5.174   3.990  13.995  0.00  0.00    +0.000 A 
ENDBRANCH   7  10
BRANCH   9  16
ATOM     16  C   UNL     1       2.782   4.333  18.799  0.00  0.00    +0.000 A 
ATOM     17  C   UNL     1       3.404   3.960  19.996  0.00  0.00    +0.000 A 
ATOM     18  C   UNL     1       2.685   3.277  20.977  0.00  0.00    +0.000 A 
ATOM     19  C   UNL     1       1.353   2.992  20.729  0.00  0.00    +0.000 A 
ATOM     20  N   UNL     1       0.705   3.339  19.594  0.00  0.00    +0.000 NA
ATOM     21  C   UNL     1       1.441   3.988  18.657  0.00  0.00    +0.000 A 
ENDBRANCH   9  16
ENDBRANCH   4   5
ENDBRANCH   1   3
BRANCH   1  22
ATOM     22  O   UNL     1       1.052   9.159  19.345  0.00  0.00    +0.000 OA
BRANCH  22  23
ATOM     23  C   UNL     1       1.427   9.483  20.694  0.00  0.00    +0.000 C 
ATOM     24  C   UNL     1       0.990   8.324  21.589  0.00  0.00    +0.000 C 
BRANCH  23  26
ATOM     25  N   UNL     1      -0.672  10.674  21.177  0.00  0.00    +0.000 N 
ATOM     26  C   UNL     1       0.716  10.775  21.118  0.00  0.00    +0.000 C 
ATOM     27  O   UNL     1       1.373  11.791  21.354  0.00  0.00    +0.000 OA
ATOM     28  H   UNL     1      -1.090   9.785  20.920  0.00  0.00    +0.000 HD
BRANCH  25  32
ATOM     29  C   UNL     1      -3.289  13.767  22.488  0.00  0.00    +0.000 A 
ATOM     30  C   UNL     1      -3.094  13.527  21.133  0.00  0.00    +0.000 A 
ATOM     31  C   UNL     1      -2.245  12.510  20.696  0.00  0.00    +0.000 A 
ATOM     32  C   UNL     1      -1.558  11.698  21.595  0.00  0.00    +0.000 A 
ATOM     33  C   UNL     1      -1.748  11.931  22.965  0.00  0.00    +0.000 A 
ATOM     34  C   UNL     1      -2.597  12.969  23.406  0.00  0.00    +0.000 A 
BRANCH  29  38
ATOM     35  C   UNL     1      -4.841  16.936  23.831  0.00  0.00    +0.000 C 
ATOM     36  C   UNL     1      -3.736  16.091  23.258  0.00  0.00    +0.000 C 
ATOM     37  O   UNL     1      -2.618  16.572  23.104  0.00  0.00    +0.000 OA
ATOM     38  N   UNL     1      -4.137  14.798  22.952  0.00  0.00    +0.000 N 
ATOM     39  H   UNL     1      -5.127  14.595  22.985  0.00  0.00    +0.000 HD
ENDBRANCH  29  38
ENDBRANCH  25  32
ENDBRANCH  23  26
ENDBRANCH  22  23
ENDBRANCH   1  22
TORSDOF 9
ENDMDL
MODEL 9
REMARK VINA RESULT:      -8.4      5.084      8.346
REMARK  Name = 
REMARK  11 active torsions:
REMARK  status: ('A' for Active; 'I' for Inactive)
REMARK    1  A    between atoms: C_1  and  C_2
REMARK    2  A    between atoms: N_4  and  C_5
REMARK    3  A    between atoms: C_8  and  N_9
REMARK    4  A    between atoms: C_10  and  C_12
REMARK    5  A    between atoms: C_12  and  C_13
REMARK    6  A    between atoms: C_12  and  O_14
REMARK    7  A    between atoms: O_14  and  C_15
REMARK    8  A    between atoms: C_15  and  C_17
REMARK    9  A    between atoms: C_18  and  C_19
REMARK   10  A    between atoms: N_21  and  C_22
REMARK   11  A    between atoms: C_29  and  C_30
REMARK                            x       y       z     vdW  Elec       q    Type
REMARK                         _______ _______ _______ _____ _____    ______ ____
ROOT
ATOM      1  C   UNL     1       1.018   7.558  20.937  0.00  0.00    +0.000 C 
ATOM      2  O   UNL     1       0.020   7.273  21.576  0.00  0.00    +0.000 OA
ENDROOT
BRANCH   1   3
ATOM      3  C   UNL     1       1.299   8.883  20.354  0.00  0.00    +0.000 C 
ATOM      4  C   UNL     1       0.390   9.860  20.490  0.00  0.00    +0.000 C 
BRANCH   4   5
ATOM      5  C   UNL     1       0.513  11.151  19.909  0.00  0.00    +0.000 A 
ATOM      6  C   UNL     1       1.560  12.004  20.152  0.00  0.00    +0.000 A 
ATOM      7  N   UNL     1       1.310  13.154  19.439  0.00  0.00    +0.000 N 
ATOM      8  N   UNL     1       0.144  13.064  18.750  0.00  0.00    +0.000 NA
ATOM      9  C   UNL     1      -0.358  11.849  19.028  0.00  0.00    +0.000 A 
BRANCH   7  10
ATOM     10  C   UNL     1       2.113  14.329  19.375  0.00  0.00    +0.000 A 
ATOM     11  C   UNL     1       1.929  15.273  18.353  0.00  0.00    +0.000 A 
ATOM     12  C   UNL     1       2.726  16.420  18.305  0.00  0.00    +0.000 A 
ATOM     13  C   UNL     1       3.714  16.628  19.265  0.00  0.00    +0.000 A 
ATOM     14  C   UNL     1       3.903  15.696  20.283  0.00  0.00    +0.000 A 
ATOM     15  C   UNL     1       3.104  14.550  20.344  0.00  0.00    +0.000 A 
ENDBRANCH   7  10
BRANCH   9  16
ATOM     16  C   UNL     1      -1.628  11.418  18.440  0.00  0.00    +0.000 A 
ATOM     17  C   UNL     1      -1.665  10.417  17.463  0.00  0.00    +0.000 A 
ATOM     18  C   UNL     1      -2.882  10.025  16.906  0.00  0.00    +0.000 A 
ATOM     19  C   UNL     1      -4.035  10.648  17.353  0.00  0.00    +0.000 A 
ATOM     20  N   UNL     1      -4.053  11.613  18.301  0.00  0.00    +0.000 NA
ATOM     21  C   UNL     1      -2.849  11.979  18.808  0.00  0.00    +0.000 A 
ENDBRANCH   9  16
ENDBRANCH   4   5
ENDBRANCH   1   3
BRANCH   1  22
ATOM     22  O   UNL     1       2.024   6.721  20.601  0.00  0.00    +0.000 OA
BRANCH  22  23
ATOM     23  C   UNL     1       1.648   5.369  20.293  0.00  0.00    +0.000 C 
ATOM     24  C   UNL     1       2.265   4.462  21.357  0.00  0.00    +0.000 C 
BRANCH  23  26
ATOM     25  N   UNL     1       3.504   5.400  18.676  0.00  0.00    +0.000 N 
ATOM     26  C   UNL     1       2.189   5.000  18.906  0.00  0.00    +0.000 C 
ATOM     27  O   UNL     1       1.465   4.416  18.097  0.00  0.00    +0.000 OA
ATOM     28  H   UNL     1       3.976   5.909  19.417  0.00  0.00    +0.000 HD
BRANCH  25  32
ATOM     29  C   UNL     1       5.801   4.658  15.168  0.00  0.00    +0.000 A 
ATOM     30  C   UNL     1       5.444   3.618  16.017  0.00  0.00    +0.000 A 
ATOM     31  C   UNL     1       4.684   3.851  17.164  0.00  0.00    +0.000 A 
ATOM     32  C   UNL     1       4.256   5.133  17.506  0.00  0.00    +0.000 A 
ATOM     33  C   UNL     1       4.611   6.189  16.655  0.00  0.00    +0.000 A 
ATOM     34  C   UNL     1       5.390   5.954  15.502  0.00  0.00    +0.000 A 
BRANCH  29  38
ATOM     35  C   UNL     1       7.217   3.642  11.819  0.00  0.00    +0.000 C 
ATOM     36  C   UNL     1       6.134   3.823  12.847  0.00  0.00    +0.000 C 
ATOM     37  O   UNL     1       4.995   3.436  12.608  0.00  0.00    +0.000 OA
ATOM     38  N   UNL     1       6.577   4.445  14.006  0.00  0.00    +0.000 N 
ATOM     39  H   UNL     1       7.503   4.850  13.996  0.00  0.00    +0.000 HD
ENDBRANCH  29  38
ENDBRANCH  25  32
ENDBRANCH  23  26
ENDBRANCH  22  23
ENDBRANCH   1  22
TORSDOF 9
ENDMDL
