MODEL 1
REMARK VINA RESULT:      -7.6      0.000      0.000
REMARK  Name = 
REMARK  10 active torsions:
REMARK  status: ('A' for Active; 'I' for Inactive)
REMARK    1  A    between atoms: C_1  and  C_2
REMARK    2  A    between atoms: C_2  and  O_3
REMARK    3  A    between atoms: O_3  and  C_4
REMARK    4  A    between atoms: N_8  and  C_9
REMARK    5  A    between atoms: C_11  and  C_12
REMARK    6  A    between atoms: C_14  and  N_15
REMARK    7  A    between atoms: N_15  and  C_16
REMARK    8  A    between atoms: C_16  and  C_17
REMARK    9  A    between atoms: C_26  and  O_27
REMARK   10  A    between atoms: O_27  and  C_28
REMARK                            x       y       z     vdW  Elec       q    Type
REMARK                         _______ _______ _______ _____ _____    ______ ____
ROOT
ATOM      1  C   UNL     1       0.106  10.696  19.767  0.00  0.00    +0.000 A 
ATOM      2  C   UNL     1       0.420   9.482  20.434  0.00  0.00    +0.000 A 
ATOM      3  C   UNL     1       1.401   8.589  19.970  0.00  0.00    +0.000 A 
ATOM      4  C   UNL     1       1.936   8.832  18.710  0.00  0.00    +0.000 A 
ATOM      5  C   UNL     1       1.609   9.984  18.005  0.00  0.00    +0.000 A 
ATOM      6  C   UNL     1       0.799  10.980  18.572  0.00  0.00    +0.000 A 
ENDROOT
BRANCH   1  14
ATOM      7  C   UNL     1      -2.297  11.761  19.815  0.00  0.00    +0.000 A 
ATOM      8  C   UNL     1      -3.106  12.717  20.317  0.00  0.00    +0.000 A 
ATOM      9  C   UNL     1      -2.684  13.551  21.474  0.00  0.00    +0.000 A 
ATOM     10  O   UNL     1      -3.429  14.445  21.881  0.00  0.00    +0.000 OA
ATOM     11  N   UNL     1      -1.429  13.256  21.999  0.00  0.00    +0.000 N 
ATOM     12  C   UNL     1      -0.905  14.071  23.092  0.00  0.00    +0.000 C 
ATOM     13  C   UNL     1      -0.613  12.262  21.464  0.00  0.00    +0.000 A 
ATOM     14  C   UNL     1      -0.979  11.519  20.395  0.00  0.00    +0.000 A 
BRANCH   7  15
ATOM     15  O   UNL     1      -2.575  10.948  18.733  0.00  0.00    +0.000 OA
BRANCH  15  17
ATOM     16  C   UNL     1      -2.453  10.506  16.389  0.00  0.00    +0.000 C 
ATOM     17  C   UNL     1      -2.708  11.562  17.454  0.00  0.00    +0.000 C 
ENDBRANCH  15  17
ENDBRANCH   7  15
ENDBRANCH   1  14
BRANCH   3  18
ATOM     18  N   UNL     1       1.711   7.430  20.703  0.00  0.00    +0.000 N 
ATOM     19  H   UNL     1       1.913   7.653  21.673  0.00  0.00    +0.000 HD
BRANCH  18  20
ATOM     20  C   UNL     1       2.740   6.541  20.149  0.00  0.00    +0.000 C 
BRANCH  20  21
ATOM     21  C   UNL     1       2.109   5.230  19.729  0.00  0.00    +0.000 A 
ATOM     22  C   UNL     1       2.118   4.851  18.375  0.00  0.00    +0.000 A 
ATOM     23  C   UNL     1       1.512   3.663  17.965  0.00  0.00    +0.000 A 
ATOM     24  C   UNL     1       0.908   2.842  18.907  0.00  0.00    +0.000 A 
ATOM     25  F   UNL     1       0.307   1.713  18.510  0.00  0.00    +0.000 F 
ATOM     26  C   UNL     1       0.913   3.178  20.256  0.00  0.00    +0.000 A 
ATOM     27  C   UNL     1       1.514   4.371  20.670  0.00  0.00    +0.000 A 
ENDBRANCH  20  21
ENDBRANCH  18  20
ENDBRANCH   3  18
BRANCH   6  28
ATOM     28  O   UNL     1       0.680  12.202  17.931  0.00  0.00    +0.000 OA
BRANCH  28  29
ATOM     29  C   UNL     1       1.338  13.311  18.465  0.00  0.00    +0.000 A 
ATOM     30  C   UNL     1       2.736  13.244  18.504  0.00  0.00    +0.000 A 
ATOM     31  C   UNL     1       3.489  14.355  18.914  0.00  0.00    +0.000 A 
ATOM     32  C   UNL     1       2.844  15.529  19.302  0.00  0.00    +0.000 A 
ATOM     33  F   UNL     1       3.566  16.610  19.618  0.00  0.00    +0.000 F 
ATOM     34  C   UNL     1       1.464  15.593  19.345  0.00  0.00    +0.000 A 
ATOM     35  C   UNL     1       0.719  14.500  18.907  0.00  0.00    +0.000 A 
ATOM     36  F   UNL     1      -0.615  14.627  18.944  0.00  0.00    +0.000 F 
ENDBRANCH  28  29
ENDBRANCH   6  28
TORSDOF 8
ENDMDL
MODEL 2
REMARK VINA RESULT:      -7.6      2.448      4.494
REMARK  Name = 
REMARK  10 active torsions:
REMARK  status: ('A' for Active; 'I' for Inactive)
REMARK    1  A    between atoms: C_1  and  C_2
REMARK    2  A    between atoms: C_2  and  O_3
REMARK    3  A    between atoms: O_3  and  C_4
REMARK    4  A    between atoms: N_8  and  C_9
REMARK    5  A    between atoms: C_11  and  C_12
REMARK    6  A    between atoms: C_14  and  N_15
REMARK    7  A    between atoms: N_15  and  C_16
REMARK    8  A    between atoms: C_16  and  C_17
REMARK    9  A    between atoms: C_26  and  O_27
REMARK   10  A    between atoms: O_27  and  C_28
REMARK                            x       y       z     vdW  Elec       q    Type
REMARK                         _______ _______ _______ _____ _____    ______ ____
ROOT
ATOM      1  C   UNL     1       0.183  11.291  19.525  0.00  0.00    +0.000 A 
ATOM      2  C   UNL     1       1.159  10.261  19.549  0.00  0.00    +0.000 A 
ATOM      3  C   UNL     1       1.192   9.221  18.604  0.00  0.00    +0.000 A 
ATOM      4  C   UNL     1       0.109   9.113  17.740  0.00  0.00    +0.000 A 
ATOM      5  C   UNL     1      -0.894  10.075  17.727  0.00  0.00    +0.000 A 
ATOM      6  C   UNL     1      -0.805  11.230  18.521  0.00  0.00    +0.000 A 
ENDROOT
BRANCH   1  14
ATOM      7  C   UNL     1      -0.536  12.346  21.824  0.00  0.00    +0.000 A 
ATOM      8  C   UNL     1      -0.550  13.436  22.619  0.00  0.00    +0.000 A 
ATOM      9  C   UNL     1       0.273  14.633  22.297  0.00  0.00    +0.000 A 
ATOM     10  O   UNL     1       0.205  15.628  23.020  0.00  0.00    +0.000 OA
ATOM     11  N   UNL     1       1.059  14.529  21.152  0.00  0.00    +0.000 N 
ATOM     12  C   UNL     1       1.846  15.682  20.722  0.00  0.00    +0.000 C 
ATOM     13  C   UNL     1       1.058  13.392  20.349  0.00  0.00    +0.000 A 
ATOM     14  C   UNL     1       0.290  12.311  20.620  0.00  0.00    +0.000 A 
BRANCH   7  15
ATOM     15  O   UNL     1      -1.276  11.195  22.012  0.00  0.00    +0.000 OA
BRANCH  15  17
ATOM     16  C   UNL     1      -0.249   9.146  22.684  0.00  0.00    +0.000 C 
ATOM     17  C   UNL     1      -0.983  10.393  23.152  0.00  0.00    +0.000 C 
ENDBRANCH  15  17
ENDBRANCH   7  15
ENDBRANCH   1  14
BRANCH   3  18
ATOM     18  N   UNL     1       2.217   8.259  18.641  0.00  0.00    +0.000 N 
ATOM     19  H   UNL     1       2.210   7.683  17.804  0.00  0.00    +0.000 HD
BRANCH  18  20
ATOM     20  C   UNL     1       2.313   7.426  19.846  0.00  0.00    +0.000 C 
BRANCH  20  21
ATOM     21  C   UNL     1       1.952   5.994  19.506  0.00  0.00    +0.000 A 
ATOM     22  C   UNL     1       2.110   5.528  18.189  0.00  0.00    +0.000 A 
ATOM     23  C   UNL     1       1.751   4.223  17.848  0.00  0.00    +0.000 A 
ATOM     24  C   UNL     1       1.249   3.375  18.826  0.00  0.00    +0.000 A 
ATOM     25  F   UNL     1       0.885   2.129  18.495  0.00  0.00    +0.000 F 
ATOM     26  C   UNL     1       1.114   3.802  20.142  0.00  0.00    +0.000 A 
ATOM     27  C   UNL     1       1.466   5.110  20.485  0.00  0.00    +0.000 A 
ENDBRANCH  20  21
ENDBRANCH  18  20
ENDBRANCH   3  18
BRANCH   6  28
ATOM     28  O   UNL     1      -1.705  12.262  18.316  0.00  0.00    +0.000 OA
BRANCH  28  29
ATOM     29  C   UNL     1      -3.072  11.996  18.417  0.00  0.00    +0.000 A 
ATOM     30  C   UNL     1      -3.665  12.261  19.658  0.00  0.00    +0.000 A 
ATOM     31  C   UNL     1      -5.054  12.137  19.821  0.00  0.00    +0.000 A 
ATOM     32  C   UNL     1      -5.848  11.732  18.748  0.00  0.00    +0.000 A 
ATOM     33  F   UNL     1      -7.178  11.690  18.886  0.00  0.00    +0.000 F 
ATOM     34  C   UNL     1      -5.275  11.392  17.537  0.00  0.00    +0.000 A 
ATOM     35  C   UNL     1      -3.901  11.547  17.368  0.00  0.00    +0.000 A 
ATOM     36  F   UNL     1      -3.404  11.228  16.165  0.00  0.00    +0.000 F 
ENDBRANCH  28  29
ENDBRANCH   6  28
TORSDOF 8
ENDMDL
MODEL 3
REMARK VINA RESULT:      -7.5      0.806      1.418
REMARK  Name = 
REMARK  10 active torsions:
REMARK  status: ('A' for Active; 'I' for Inactive)
REMARK    1  A    between atoms: C_1  and  C_2
REMARK    2  A    between atoms: C_2  and  O_3
REMARK    3  A    between atoms: O_3  and  C_4
REMARK    4  A    between atoms: N_8  and  C_9
REMARK    5  A    between atoms: C_11  and  C_12
REMARK    6  A    between atoms: C_14  and  N_15
REMARK    7  A    between atoms: N_15  and  C_16
REMARK    8  A    between atoms: C_16  and  C_17
REMARK    9  A    between atoms: C_26  and  O_27
REMARK   10  A    between atoms: O_27  and  C_28
REMARK                            x       y       z     vdW  Elec       q    Type
REMARK                         _______ _______ _______ _____ _____    ______ ____
ROOT
ATOM      1  C   UNL     1      -0.023  10.753  19.874  0.00  0.00    +0.000 A 
ATOM      2  C   UNL     1       0.330   9.534  20.511  0.00  0.00    +0.000 A 
ATOM      3  C   UNL     1       1.319   8.671  20.009  0.00  0.00    +0.000 A 
ATOM      4  C   UNL     1       1.822   8.948  18.744  0.00  0.00    +0.000 A 
ATOM      5  C   UNL     1       1.456  10.106  18.067  0.00  0.00    +0.000 A 
ATOM      6  C   UNL     1       0.638  11.074  18.671  0.00  0.00    +0.000 A 
ENDROOT
BRANCH   1  14
ATOM      7  C   UNL     1      -2.440  11.782  19.986  0.00  0.00    +0.000 A 
ATOM      8  C   UNL     1      -3.255  12.711  20.527  0.00  0.00    +0.000 A 
ATOM      9  C   UNL     1      -2.829  13.516  21.703  0.00  0.00    +0.000 A 
ATOM     10  O   UNL     1      -3.581  14.387  22.146  0.00  0.00    +0.000 OA
ATOM     11  N   UNL     1      -1.563  13.224  22.202  0.00  0.00    +0.000 N 
ATOM     12  C   UNL     1      -1.036  14.014  23.312  0.00  0.00    +0.000 C 
ATOM     13  C   UNL     1      -0.740  12.258  21.627  0.00  0.00    +0.000 A 
ATOM     14  C   UNL     1      -1.111  11.542  20.541  0.00  0.00    +0.000 A 
BRANCH   7  15
ATOM     15  O   UNL     1      -2.721  10.998  18.884  0.00  0.00    +0.000 OA
BRANCH  15  17
ATOM     16  C   UNL     1      -2.438  10.796  16.521  0.00  0.00    +0.000 C 
ATOM     17  C   UNL     1      -2.990  11.654  17.648  0.00  0.00    +0.000 C 
ENDBRANCH  15  17
ENDBRANCH   7  15
ENDBRANCH   1  14
BRANCH   3  18
ATOM     18  N   UNL     1       1.668   7.505  20.713  0.00  0.00    +0.000 N 
ATOM     19  H   UNL     1       1.900   7.715  21.679  0.00  0.00    +0.000 HD
BRANCH  18  20
ATOM     20  C   UNL     1       2.688   6.637  20.110  0.00  0.00    +0.000 C 
BRANCH  20  21
ATOM     21  C   UNL     1       2.054   5.334  19.671  0.00  0.00    +0.000 A 
ATOM     22  C   UNL     1       1.429   4.506  20.620  0.00  0.00    +0.000 A 
ATOM     23  C   UNL     1       0.868   3.285  20.240  0.00  0.00    +0.000 A 
ATOM     24  C   UNL     1       0.917   2.895  18.908  0.00  0.00    +0.000 A 
ATOM     25  F   UNL     1       0.399   1.715  18.547  0.00  0.00    +0.000 F 
ATOM     26  C   UNL     1       1.502   3.710  17.945  0.00  0.00    +0.000 A 
ATOM     27  C   UNL     1       2.069   4.931  18.324  0.00  0.00    +0.000 A 
ENDBRANCH  20  21
ENDBRANCH  18  20
ENDBRANCH   3  18
BRANCH   6  28
ATOM     28  O   UNL     1       0.481  12.305  18.056  0.00  0.00    +0.000 OA
BRANCH  28  29
ATOM     29  C   UNL     1       1.216  13.394  18.528  0.00  0.00    +0.000 A 
ATOM     30  C   UNL     1       0.481  14.427  19.124  0.00  0.00    +0.000 A 
ATOM     31  C   UNL     1       1.140  15.507  19.732  0.00  0.00    +0.000 A 
ATOM     32  C   UNL     1       2.534  15.564  19.729  0.00  0.00    +0.000 A 
ATOM     33  F   UNL     1       3.158  16.554  20.376  0.00  0.00    +0.000 F 
ATOM     34  C   UNL     1       3.277  14.596  19.081  0.00  0.00    +0.000 A 
ATOM     35  C   UNL     1       2.622  13.508  18.506  0.00  0.00    +0.000 A 
ATOM     36  F   UNL     1       3.394  12.586  17.914  0.00  0.00    +0.000 F 
ENDBRANCH  28  29
ENDBRANCH   6  28
TORSDOF 8
ENDMDL
MODEL 4
REMARK VINA RESULT:      -7.4      2.292      4.483
REMARK  Name = 
REMARK  10 active torsions:
REMARK  status: ('A' for Active; 'I' for Inactive)
REMARK    1  A    between atoms: C_1  and  C_2
REMARK    2  A    between atoms: C_2  and  O_3
REMARK    3  A    between atoms: O_3  and  C_4
REMARK    4  A    between atoms: N_8  and  C_9
REMARK    5  A    between atoms: C_11  and  C_12
REMARK    6  A    between atoms: C_14  and  N_15
REMARK    7  A    between atoms: N_15  and  C_16
REMARK    8  A    between atoms: C_16  and  C_17
REMARK    9  A    between atoms: C_26  and  O_27
REMARK   10  A    between atoms: O_27  and  C_28
REMARK                            x       y       z     vdW  Elec       q    Type
REMARK                         _______ _______ _______ _____ _____    ______ ____
ROOT
ATOM      1  C   UNL     1      -0.088  10.986  20.018  0.00  0.00    +0.000 A 
ATOM      2  C   UNL     1       0.755   9.977  20.553  0.00  0.00    +0.000 A 
ATOM      3  C   UNL     1       1.222   8.892  19.792  0.00  0.00    +0.000 A 
ATOM      4  C   UNL     1       0.672   8.720  18.527  0.00  0.00    +0.000 A 
ATOM      5  C   UNL     1      -0.200   9.661  17.993  0.00  0.00    +0.000 A 
ATOM      6  C   UNL     1      -0.487  10.855  18.673  0.00  0.00    +0.000 A 
ENDROOT
BRANCH   1  14
ATOM      7  C   UNL     1       0.271  13.259  21.290  0.00  0.00    +0.000 A 
ATOM      8  C   UNL     1      -0.050  14.032  22.349  0.00  0.00    +0.000 A 
ATOM      9  C   UNL     1      -1.199  13.690  23.230  0.00  0.00    +0.000 A 
ATOM     10  O   UNL     1      -1.439  14.392  24.214  0.00  0.00    +0.000 OA
ATOM     11  N   UNL     1      -1.913  12.550  22.867  0.00  0.00    +0.000 N 
ATOM     12  C   UNL     1      -3.014  12.101  23.716  0.00  0.00    +0.000 C 
ATOM     13  C   UNL     1      -1.564  11.771  21.768  0.00  0.00    +0.000 A 
ATOM     14  C   UNL     1      -0.503  12.061  20.979  0.00  0.00    +0.000 A 
BRANCH   7  15
ATOM     15  O   UNL     1       1.326  13.467  20.424  0.00  0.00    +0.000 OA
BRANCH  15  17
ATOM     16  C   UNL     1       3.505  14.056  21.206  0.00  0.00    +0.000 C 
ATOM     17  C   UNL     1       2.182  14.580  20.670  0.00  0.00    +0.000 C 
ENDBRANCH  15  17
ENDBRANCH   7  15
ENDBRANCH   1  14
BRANCH   3  18
ATOM     18  N   UNL     1       2.103   7.953  20.357  0.00  0.00    +0.000 N 
ATOM     19  H   UNL     1       2.712   8.388  21.044  0.00  0.00    +0.000 HD
BRANCH  18  20
ATOM     20  C   UNL     1       2.877   7.117  19.432  0.00  0.00    +0.000 C 
BRANCH  20  21
ATOM     21  C   UNL     1       2.209   5.765  19.284  0.00  0.00    +0.000 A 
ATOM     22  C   UNL     1       1.632   5.145  20.406  0.00  0.00    +0.000 A 
ATOM     23  C   UNL     1       1.041   3.885  20.297  0.00  0.00    +0.000 A 
ATOM     24  C   UNL     1       1.012   3.248  19.064  0.00  0.00    +0.000 A 
ATOM     25  F   UNL     1       0.465   2.030  18.963  0.00  0.00    +0.000 F 
ATOM     26  C   UNL     1       1.547   3.854  17.933  0.00  0.00    +0.000 A 
ATOM     27  C   UNL     1       2.145   5.114  18.040  0.00  0.00    +0.000 A 
ENDBRANCH  20  21
ENDBRANCH  18  20
ENDBRANCH   3  18
BRANCH   6  28
ATOM     28  O   UNL     1      -1.178  11.859  18.014  0.00  0.00    +0.000 OA
BRANCH  28  29
ATOM     29  C   UNL     1      -2.546  11.698  17.783  0.00  0.00    +0.000 A 
ATOM     30  C   UNL     1      -3.396  12.011  18.851  0.00  0.00    +0.000 A 
ATOM     31  C   UNL     1      -4.789  11.993  18.677  0.00  0.00    +0.000 A 
ATOM     32  C   UNL     1      -5.333  11.645  17.440  0.00  0.00    +0.000 A 
ATOM     33  F   UNL     1      -6.656  11.704  17.257  0.00  0.00    +0.000 F 
ATOM     34  C   UNL     1      -4.515  11.259  16.395  0.00  0.00    +0.000 A 
ATOM     35  C   UNL     1      -3.132  11.309  16.560  0.00  0.00    +0.000 A 
ATOM     36  F   UNL     1      -2.387  10.950  15.505  0.00  0.00    +0.000 F 
ENDBRANCH  28  29
ENDBRANCH   6  28
TORSDOF 8
ENDMDL
MODEL 5
REMARK VINA RESULT:      -7.4      2.663      5.009
REMARK  Name = 
REMARK  10 active torsions:
REMARK  status: ('A' for Active; 'I' for Inactive)
REMARK    1  A    between atoms: C_1  and  C_2
REMARK    2  A    between atoms: C_2  and  O_3
REMARK    3  A    between atoms: O_3  and  C_4
REMARK    4  A    between atoms: N_8  and  C_9
REMARK    5  A    between atoms: C_11  and  C_12
REMARK    6  A    between atoms: C_14  and  N_15
REMARK    7  A    between atoms: N_15  and  C_16
REMARK    8  A    between atoms: C_16  and  C_17
REMARK    9  A    between atoms: C_26  and  O_27
REMARK   10  A    between atoms: O_27  and  C_28
REMARK                            x       y       z     vdW  Elec       q    Type
REMARK                         _______ _______ _______ _____ _____    ______ ____
ROOT
ATOM      1  C   UNL     1       0.091  11.796  21.367  0.00  0.00    +0.000 A 
ATOM      2  C   UNL     1       0.649  10.532  21.041  0.00  0.00    +0.000 A 
ATOM      3  C   UNL     1       0.269   9.342  21.685  0.00  0.00    +0.000 A 
ATOM      4  C   UNL     1      -0.544   9.459  22.807  0.00  0.00    +0.000 A 
ATOM      5  C   UNL     1      -1.063  10.691  23.188  0.00  0.00    +0.000 A 
ATOM      6  C   UNL     1      -0.859  11.840  22.408  0.00  0.00    +0.000 A 
ENDROOT
BRANCH   1  14
ATOM      7  C   UNL     1       0.059  13.478  19.346  0.00  0.00    +0.000 A 
ATOM      8  C   UNL     1       0.749  14.351  18.584  0.00  0.00    +0.000 A 
ATOM      9  C   UNL     1       2.105  14.816  18.984  0.00  0.00    +0.000 A 
ATOM     10  O   UNL     1       2.727  15.581  18.243  0.00  0.00    +0.000 OA
ATOM     11  N   UNL     1       2.581  14.308  20.190  0.00  0.00    +0.000 N 
ATOM     12  C   UNL     1       3.931  14.657  20.625  0.00  0.00    +0.000 C 
ATOM     13  C   UNL     1       1.848  13.410  20.960  0.00  0.00    +0.000 A 
ATOM     14  C   UNL     1       0.626  12.962  20.589  0.00  0.00    +0.000 A 
BRANCH   7  15
ATOM     15  O   UNL     1      -1.190  12.963  19.061  0.00  0.00    +0.000 OA
BRANCH  15  17
ATOM     16  C   UNL     1      -1.951  10.799  18.394  0.00  0.00    +0.000 C 
ATOM     17  C   UNL     1      -1.315  12.101  17.933  0.00  0.00    +0.000 C 
ENDBRANCH  15  17
ENDBRANCH   7  15
ENDBRANCH   1  14
BRANCH   3  18
ATOM     18  N   UNL     1       0.812   8.110  21.281  0.00  0.00    +0.000 N 
ATOM     19  H   UNL     1       1.201   7.604  22.070  0.00  0.00    +0.000 HD
BRANCH  18  20
ATOM     20  C   UNL     1       1.758   8.130  20.158  0.00  0.00    +0.000 C 
BRANCH  20  21
ATOM     21  C   UNL     1       2.153   6.712  19.799  0.00  0.00    +0.000 A 
ATOM     22  C   UNL     1       2.914   6.471  18.642  0.00  0.00    +0.000 A 
ATOM     23  C   UNL     1       3.259   5.168  18.277  0.00  0.00    +0.000 A 
ATOM     24  C   UNL     1       2.857   4.106  19.074  0.00  0.00    +0.000 A 
ATOM     25  F   UNL     1       3.169   2.854  18.712  0.00  0.00    +0.000 F 
ATOM     26  C   UNL     1       2.130   4.320  20.240  0.00  0.00    +0.000 A 
ATOM     27  C   UNL     1       1.779   5.623  20.605  0.00  0.00    +0.000 A 
ENDBRANCH  20  21
ENDBRANCH  18  20
ENDBRANCH   3  18
BRANCH   6  28
ATOM     28  O   UNL     1      -1.573  12.990  22.699  0.00  0.00    +0.000 OA
BRANCH  28  29
ATOM     29  C   UNL     1      -2.962  12.978  22.553  0.00  0.00    +0.000 A 
ATOM     30  C   UNL     1      -3.446  12.801  21.251  0.00  0.00    +0.000 A 
ATOM     31  C   UNL     1      -4.824  12.657  21.020  0.00  0.00    +0.000 A 
ATOM     32  C   UNL     1      -5.718  12.708  22.089  0.00  0.00    +0.000 A 
ATOM     33  F   UNL     1      -7.021  12.494  21.874  0.00  0.00    +0.000 F 
ATOM     34  C   UNL     1      -5.269  12.959  23.372  0.00  0.00    +0.000 A 
ATOM     35  C   UNL     1      -3.899  13.069  23.603  0.00  0.00    +0.000 A 
ATOM     36  F   UNL     1      -3.519  13.284  24.870  0.00  0.00    +0.000 F 
ENDBRANCH  28  29
ENDBRANCH   6  28
TORSDOF 8
ENDMDL
MODEL 6
REMARK VINA RESULT:      -7.4      2.596      5.062
REMARK  Name = 
REMARK  10 active torsions:
REMARK  status: ('A' for Active; 'I' for Inactive)
REMARK    1  A    between atoms: C_1  and  C_2
REMARK    2  A    between atoms: C_2  and  O_3
REMARK    3  A    between atoms: O_3  and  C_4
REMARK    4  A    between atoms: N_8  and  C_9
REMARK    5  A    between atoms: C_11  and  C_12
REMARK    6  A    between atoms: C_14  and  N_15
REMARK    7  A    between atoms: N_15  and  C_16
REMARK    8  A    between atoms: C_16  and  C_17
REMARK    9  A    between atoms: C_26  and  O_27
REMARK   10  A    between atoms: O_27  and  C_28
REMARK                            x       y       z     vdW  Elec       q    Type
REMARK                         _______ _______ _______ _____ _____    ______ ____
ROOT
ATOM      1  C   UNL     1       0.090  11.739  21.337  0.00  0.00    +0.000 A 
ATOM      2  C   UNL     1       0.679  10.488  21.011  0.00  0.00    +0.000 A 
ATOM      3  C   UNL     1       0.326   9.290  21.656  0.00  0.00    +0.000 A 
ATOM      4  C   UNL     1      -0.491   9.387  22.776  0.00  0.00    +0.000 A 
ATOM      5  C   UNL     1      -1.040  10.606  23.156  0.00  0.00    +0.000 A 
ATOM      6  C   UNL     1      -0.862  11.760  22.376  0.00  0.00    +0.000 A 
ENDROOT
BRANCH   1  14
ATOM      7  C   UNL     1       0.007  13.433  19.328  0.00  0.00    +0.000 A 
ATOM      8  C   UNL     1       0.674  14.321  18.562  0.00  0.00    +0.000 A 
ATOM      9  C   UNL     1       2.029  14.801  18.945  0.00  0.00    +0.000 A 
ATOM     10  O   UNL     1       2.630  15.579  18.202  0.00  0.00    +0.000 OA
ATOM     11  N   UNL     1       2.528  14.292  20.142  0.00  0.00    +0.000 N 
ATOM     12  C   UNL     1       3.880  14.656  20.560  0.00  0.00    +0.000 C 
ATOM     13  C   UNL     1       1.819  13.378  20.916  0.00  0.00    +0.000 A 
ATOM     14  C   UNL     1       0.598  12.916  20.559  0.00  0.00    +0.000 A 
BRANCH   7  15
ATOM     15  O   UNL     1      -1.240  12.903  19.057  0.00  0.00    +0.000 OA
BRANCH  15  17
ATOM     16  C   UNL     1      -1.948  10.727  18.370  0.00  0.00    +0.000 C 
ATOM     17  C   UNL     1      -1.373  12.060  17.916  0.00  0.00    +0.000 C 
ENDBRANCH  15  17
ENDBRANCH   7  15
ENDBRANCH   1  14
BRANCH   3  18
ATOM     18  N   UNL     1       0.899   8.071  21.253  0.00  0.00    +0.000 N 
ATOM     19  H   UNL     1       1.365   7.610  22.028  0.00  0.00    +0.000 HD
BRANCH  18  20
ATOM     20  C   UNL     1       1.765   8.096  20.067  0.00  0.00    +0.000 C 
BRANCH  20  21
ATOM     21  C   UNL     1       2.226   6.690  19.743  0.00  0.00    +0.000 A 
ATOM     22  C   UNL     1       3.042   6.464  18.621  0.00  0.00    +0.000 A 
ATOM     23  C   UNL     1       3.450   5.171  18.287  0.00  0.00    +0.000 A 
ATOM     24  C   UNL     1       3.057   4.104  19.081  0.00  0.00    +0.000 A 
ATOM     25  F   UNL     1       3.430   2.861  18.749  0.00  0.00    +0.000 F 
ATOM     26  C   UNL     1       2.277   4.305  20.215  0.00  0.00    +0.000 A 
ATOM     27  C   UNL     1       1.862   5.597  20.548  0.00  0.00    +0.000 A 
ENDBRANCH  20  21
ENDBRANCH  18  20
ENDBRANCH   3  18
BRANCH   6  28
ATOM     28  O   UNL     1      -1.604  12.893  22.665  0.00  0.00    +0.000 OA
BRANCH  28  29
ATOM     29  C   UNL     1      -2.984  12.769  22.844  0.00  0.00    +0.000 A 
ATOM     30  C   UNL     1      -3.433  12.694  24.168  0.00  0.00    +0.000 A 
ATOM     31  C   UNL     1      -4.808  12.687  24.451  0.00  0.00    +0.000 A 
ATOM     32  C   UNL     1      -5.734  12.738  23.410  0.00  0.00    +0.000 A 
ATOM     33  F   UNL     1      -7.041  12.809  23.687  0.00  0.00    +0.000 F 
ATOM     34  C   UNL     1      -5.314  12.735  22.093  0.00  0.00    +0.000 A 
ATOM     35  C   UNL     1      -3.949  12.775  21.815  0.00  0.00    +0.000 A 
ATOM     36  F   UNL     1      -3.600  12.799  20.522  0.00  0.00    +0.000 F 
ENDBRANCH  28  29
ENDBRANCH   6  28
TORSDOF 8
ENDMDL
MODEL 7
REMARK VINA RESULT:      -7.3      3.111      7.416
REMARK  Name = 
REMARK  10 active torsions:
REMARK  status: ('A' for Active; 'I' for Inactive)
REMARK    1  A    between atoms: C_1  and  C_2
REMARK    2  A    between atoms: C_2  and  O_3
REMARK    3  A    between atoms: O_3  and  C_4
REMARK    4  A    between atoms: N_8  and  C_9
REMARK    5  A    between atoms: C_11  and  C_12
REMARK    6  A    between atoms: C_14  and  N_15
REMARK    7  A    between atoms: N_15  and  C_16
REMARK    8  A    between atoms: C_16  and  C_17
REMARK    9  A    between atoms: C_26  and  O_27
REMARK   10  A    between atoms: O_27  and  C_28
REMARK                            x       y       z     vdW  Elec       q    Type
REMARK                         _______ _______ _______ _____ _____    ______ ____
ROOT
ATOM      1  C   UNL     1       0.077  11.815  19.113  0.00  0.00    +0.000 A 
ATOM      2  C   UNL     1      -1.068  12.302  18.430  0.00  0.00    +0.000 A 
ATOM      3  C   UNL     1      -2.044  11.454  17.878  0.00  0.00    +0.000 A 
ATOM      4  C   UNL     1      -1.759  10.094  17.847  0.00  0.00    +0.000 A 
ATOM      5  C   UNL     1      -0.618   9.589  18.458  0.00  0.00    +0.000 A 
ATOM      6  C   UNL     1       0.238  10.417  19.201  0.00  0.00    +0.000 A 
ENDROOT
BRANCH   1  14
ATOM      7  C   UNL     1       1.070  13.359  20.996  0.00  0.00    +0.000 A 
ATOM      8  C   UNL     1       1.763  14.475  21.302  0.00  0.00    +0.000 A 
ATOM      9  C   UNL     1       2.499  15.234  20.255  0.00  0.00    +0.000 A 
ATOM     10  O   UNL     1       3.087  16.273  20.560  0.00  0.00    +0.000 OA
ATOM     11  N   UNL     1       2.437  14.697  18.972  0.00  0.00    +0.000 N 
ATOM     12  C   UNL     1       3.073  15.414  17.870  0.00  0.00    +0.000 C 
ATOM     13  C   UNL     1       1.716  13.542  18.682  0.00  0.00    +0.000 A 
ATOM     14  C   UNL     1       1.022  12.863  19.624  0.00  0.00    +0.000 A 
BRANCH   7  15
ATOM     15  O   UNL     1       0.333  12.593  21.879  0.00  0.00    +0.000 OA
BRANCH  15  17
ATOM     16  C   UNL     1      -1.999  12.185  22.195  0.00  0.00    +0.000 C 
ATOM     17  C   UNL     1      -0.855  13.160  22.424  0.00  0.00    +0.000 C 
ENDBRANCH  15  17
ENDBRANCH   7  15
ENDBRANCH   1  14
BRANCH   3  18
ATOM     18  N   UNL     1      -3.188  11.992  17.263  0.00  0.00    +0.000 N 
ATOM     19  H   UNL     1      -3.419  12.902  17.650  0.00  0.00    +0.000 HD
BRANCH  18  20
ATOM     20  C   UNL     1      -4.380  11.137  17.198  0.00  0.00    +0.000 C 
BRANCH  20  21
ATOM     21  C   UNL     1      -5.235  11.359  18.428  0.00  0.00    +0.000 A 
ATOM     22  C   UNL     1      -4.822  12.278  19.409  0.00  0.00    +0.000 A 
ATOM     23  C   UNL     1      -5.580  12.472  20.566  0.00  0.00    +0.000 A 
ATOM     24  C   UNL     1      -6.758  11.760  20.738  0.00  0.00    +0.000 A 
ATOM     25  F   UNL     1      -7.474  11.929  21.858  0.00  0.00    +0.000 F 
ATOM     26  C   UNL     1      -7.204  10.869  19.769  0.00  0.00    +0.000 A 
ATOM     27  C   UNL     1      -6.445  10.669  18.612  0.00  0.00    +0.000 A 
ENDBRANCH  20  21
ENDBRANCH  18  20
ENDBRANCH   3  18
BRANCH   6  28
ATOM     28  O   UNL     1       1.233   9.843  19.975  0.00  0.00    +0.000 OA
BRANCH  28  29
ATOM     29  C   UNL     1       1.721   8.583  19.621  0.00  0.00    +0.000 A 
ATOM     30  C   UNL     1       1.567   7.569  20.574  0.00  0.00    +0.000 A 
ATOM     31  C   UNL     1       1.919   6.245  20.265  0.00  0.00    +0.000 A 
ATOM     32  C   UNL     1       2.441   5.939  19.008  0.00  0.00    +0.000 A 
ATOM     33  F   UNL     1       2.703   4.666  18.692  0.00  0.00    +0.000 F 
ATOM     34  C   UNL     1       2.673   6.936  18.080  0.00  0.00    +0.000 A 
ATOM     35  C   UNL     1       2.293   8.243  18.377  0.00  0.00    +0.000 A 
ATOM     36  F   UNL     1       2.516   9.164  17.429  0.00  0.00    +0.000 F 
ENDBRANCH  28  29
ENDBRANCH   6  28
TORSDOF 8
ENDMDL
MODEL 8
REMARK VINA RESULT:      -7.3      1.632      2.365
REMARK  Name = 
REMARK  10 active torsions:
REMARK  status: ('A' for Active; 'I' for Inactive)
REMARK    1  A    between atoms: C_1  and  C_2
REMARK    2  A    between atoms: C_2  and  O_3
REMARK    3  A    between atoms: O_3  and  C_4
REMARK    4  A    between atoms: N_8  and  C_9
REMARK    5  A    between atoms: C_11  and  C_12
REMARK    6  A    between atoms: C_14  and  N_15
REMARK    7  A    between atoms: N_15  and  C_16
REMARK    8  A    between atoms: C_16  and  C_17
REMARK    9  A    between atoms: C_26  and  O_27
REMARK   10  A    between atoms: O_27  and  C_28
REMARK                            x       y       z     vdW  Elec       q    Type
REMARK                         _______ _______ _______ _____ _____    ______ ____
ROOT
ATOM      1  C   UNL     1       0.081  11.527  19.352  0.00  0.00    +0.000 A 
ATOM      2  C   UNL     1       0.285  10.259  18.745  0.00  0.00    +0.000 A 
ATOM      3  C   UNL     1       1.489   9.903  18.113  0.00  0.00    +0.000 A 
ATOM      4  C   UNL     1       2.428  10.910  17.921  0.00  0.00    +0.000 A 
ATOM      5  C   UNL     1       2.235  12.178  18.455  0.00  0.00    +0.000 A 
ATOM      6  C   UNL     1       1.132  12.463  19.276  0.00  0.00    +0.000 A 
ENDROOT
BRANCH   1  14
ATOM      7  C   UNL     1      -2.490  12.065  19.232  0.00  0.00    +0.000 A 
ATOM      8  C   UNL     1      -3.593  12.494  19.881  0.00  0.00    +0.000 A 
ATOM      9  C   UNL     1      -3.602  12.649  21.360  0.00  0.00    +0.000 A 
ATOM     10  O   UNL     1      -4.611  13.084  21.918  0.00  0.00    +0.000 OA
ATOM     11  N   UNL     1      -2.419  12.300  22.007  0.00  0.00    +0.000 N 
ATOM     12  C   UNL     1      -2.316  12.487  23.452  0.00  0.00    +0.000 C 
ATOM     13  C   UNL     1      -1.295  11.857  21.315  0.00  0.00    +0.000 A 
ATOM     14  C   UNL     1      -1.271  11.741  19.967  0.00  0.00    +0.000 A 
BRANCH   7  15
ATOM     15  O   UNL     1      -2.362  11.908  17.866  0.00  0.00    +0.000 OA
BRANCH  15  17
ATOM     16  C   UNL     1      -3.932  11.201  16.210  0.00  0.00    +0.000 C 
ATOM     17  C   UNL     1      -2.940  10.750  17.270  0.00  0.00    +0.000 C 
ENDBRANCH  15  17
ENDBRANCH   7  15
ENDBRANCH   1  14
BRANCH   3  18
ATOM     18  N   UNL     1       1.657   8.613  17.579  0.00  0.00    +0.000 N 
ATOM     19  H   UNL     1       0.806   8.066  17.668  0.00  0.00    +0.000 HD
BRANCH  18  20
ATOM     20  C   UNL     1       2.820   7.843  18.039  0.00  0.00    +0.000 C 
BRANCH  20  21
ATOM     21  C   UNL     1       2.355   6.562  18.699  0.00  0.00    +0.000 A 
ATOM     22  C   UNL     1       2.152   6.527  20.090  0.00  0.00    +0.000 A 
ATOM     23  C   UNL     1       1.755   5.346  20.721  0.00  0.00    +0.000 A 
ATOM     24  C   UNL     1       1.547   4.203  19.963  0.00  0.00    +0.000 A 
ATOM     25  F   UNL     1       1.188   3.065  20.571  0.00  0.00    +0.000 F 
ATOM     26  C   UNL     1       1.710   4.220  18.582  0.00  0.00    +0.000 A 
ATOM     27  C   UNL     1       2.112   5.399  17.948  0.00  0.00    +0.000 A 
ENDBRANCH  20  21
ENDBRANCH  18  20
ENDBRANCH   3  18
BRANCH   6  28
ATOM     28  O   UNL     1       1.093  13.664  19.964  0.00  0.00    +0.000 OA
BRANCH  28  29
ATOM     29  C   UNL     1       1.021  14.855  19.240  0.00  0.00    +0.000 A 
ATOM     30  C   UNL     1      -0.266  15.320  18.939  0.00  0.00    +0.000 A 
ATOM     31  C   UNL     1      -0.443  16.566  18.318  0.00  0.00    +0.000 A 
ATOM     32  C   UNL     1       0.667  17.342  17.983  0.00  0.00    +0.000 A 
ATOM     33  F   UNL     1       0.491  18.561  17.463  0.00  0.00    +0.000 F 
ATOM     34  C   UNL     1       1.948  16.870  18.202  0.00  0.00    +0.000 A 
ATOM     35  C   UNL     1       2.120  15.646  18.847  0.00  0.00    +0.000 A 
ATOM     36  F   UNL     1       3.383  15.251  19.058  0.00  0.00    +0.000 F 
ENDBRANCH  28  29
ENDBRANCH   6  28
TORSDOF 8
ENDMDL
MODEL 9
REMARK VINA RESULT:      -7.3      2.418      4.952
REMARK  Name = 
REMARK  10 active torsions:
REMARK  status: ('A' for Active; 'I' for Inactive)
REMARK    1  A    between atoms: C_1  and  C_2
REMARK    2  A    between atoms: C_2  and  O_3
REMARK    3  A    between atoms: O_3  and  C_4
REMARK    4  A    between atoms: N_8  and  C_9
REMARK    5  A    between atoms: C_11  and  C_12
REMARK    6  A    between atoms: C_14  and  N_15
REMARK    7  A    between atoms: N_15  and  C_16
REMARK    8  A    between atoms: C_16  and  C_17
REMARK    9  A    between atoms: C_26  and  O_27
REMARK   10  A    between atoms: O_27  and  C_28
REMARK                            x       y       z     vdW  Elec       q    Type
REMARK                         _______ _______ _______ _____ _____    ______ ____
ROOT
ATOM      1  C   UNL     1       0.220  11.473  21.265  0.00  0.00    +0.000 A 
ATOM      2  C   UNL     1       0.763  10.188  21.003  0.00  0.00    +0.000 A 
ATOM      3  C   UNL     1       0.398   9.043  21.732  0.00  0.00    +0.000 A 
ATOM      4  C   UNL     1      -0.380   9.235  22.868  0.00  0.00    +0.000 A 
ATOM      5  C   UNL     1      -0.883  10.491  23.186  0.00  0.00    +0.000 A 
ATOM      6  C   UNL     1      -0.698  11.587  22.329  0.00  0.00    +0.000 A 
ENDROOT
BRANCH   1  14
ATOM      7  C   UNL     1       0.266  12.889  19.050  0.00  0.00    +0.000 A 
ATOM      8  C   UNL     1       0.959  13.729  18.253  0.00  0.00    +0.000 A 
ATOM      9  C   UNL     1       2.218  14.370  18.721  0.00  0.00    +0.000 A 
ATOM     10  O   UNL     1       2.849  15.098  17.953  0.00  0.00    +0.000 OA
ATOM     11  N   UNL     1       2.599  14.060  20.024  0.00  0.00    +0.000 N 
ATOM     12  C   UNL     1       3.858  14.589  20.541  0.00  0.00    +0.000 C 
ATOM     13  C   UNL     1       1.866  13.192  20.828  0.00  0.00    +0.000 A 
ATOM     14  C   UNL     1       0.735  12.584  20.399  0.00  0.00    +0.000 A 
BRANCH   7  15
ATOM     15  O   UNL     1      -0.896  12.223  18.713  0.00  0.00    +0.000 OA
BRANCH  15  17
ATOM     16  C   UNL     1      -2.067  10.231  18.110  0.00  0.00    +0.000 C 
ATOM     17  C   UNL     1      -0.780  11.025  17.950  0.00  0.00    +0.000 C 
ENDBRANCH  15  17
ENDBRANCH   7  15
ENDBRANCH   1  14
BRANCH   3  18
ATOM     18  N   UNL     1       0.924   7.785  21.391  0.00  0.00    +0.000 N 
ATOM     19  H   UNL     1       1.305   7.313  22.205  0.00  0.00    +0.000 HD
BRANCH  18  20
ATOM     20  C   UNL     1       1.872   7.736  20.271  0.00  0.00    +0.000 C 
BRANCH  20  21
ATOM     21  C   UNL     1       1.947   6.324  19.728  0.00  0.00    +0.000 A 
ATOM     22  C   UNL     1       1.552   5.242  20.535  0.00  0.00    +0.000 A 
ATOM     23  C   UNL     1       1.646   3.932  20.064  0.00  0.00    +0.000 A 
ATOM     24  C   UNL     1       2.119   3.698  18.781  0.00  0.00    +0.000 A 
ATOM     25  F   UNL     1       2.229   2.440  18.337  0.00  0.00    +0.000 F 
ATOM     26  C   UNL     1       2.485   4.752  17.951  0.00  0.00    +0.000 A 
ATOM     27  C   UNL     1       2.398   6.065  18.422  0.00  0.00    +0.000 A 
ENDBRANCH  20  21
ENDBRANCH  18  20
ENDBRANCH   3  18
BRANCH   6  28
ATOM     28  O   UNL     1      -1.399  12.758  22.567  0.00  0.00    +0.000 OA
BRANCH  28  29
ATOM     29  C   UNL     1      -2.794  12.713  22.610  0.00  0.00    +0.000 A 
ATOM     30  C   UNL     1      -3.377  12.769  23.883  0.00  0.00    +0.000 A 
ATOM     31  C   UNL     1      -4.772  12.848  24.021  0.00  0.00    +0.000 A 
ATOM     32  C   UNL     1      -5.585  12.854  22.888  0.00  0.00    +0.000 A 
ATOM     33  F   UNL     1      -6.907  13.008  23.021  0.00  0.00    +0.000 F 
ATOM     34  C   UNL     1      -5.036  12.723  21.626  0.00  0.00    +0.000 A 
ATOM     35  C   UNL     1      -3.650  12.677  21.490  0.00  0.00    +0.000 A 
ATOM     36  F   UNL     1      -3.172  12.577  20.241  0.00  0.00    +0.000 F 
ENDBRANCH  28  29
ENDBRANCH   6  28
TORSDOF 8
ENDMDL
