MODEL 1
REMARK VINA RESULT:      -6.3      0.000      0.000
REMARK  Name = 
REMARK  6 active torsions:
REMARK  status: ('A' for Active; 'I' for Inactive)
REMARK    1  A    between atoms: C_1  and  O_2
REMARK    2  A    between atoms: O_2  and  C_3
REMARK    3  A    between atoms: C_6  and  C_7
REMARK    4  A    between atoms: C_18  and  C_19
REMARK    5  A    between atoms: C_24  and  O_25
REMARK    6  A    between atoms: O_25  and  C_26
REMARK                            x       y       z     vdW  Elec       q    Type
REMARK                         _______ _______ _______ _____ _____    ______ ____
ROOT
ATOM      1  C   UNL     1      -0.121  10.860  18.402  0.00  0.00    +0.000 C 
ATOM      2  O   UNL     1      -1.184  10.667  17.810  0.00  0.00    +0.000 OA
ATOM      3  N   UNL     1       0.345  12.150  18.656  0.00  0.00    +0.000 N 
ATOM      4  C   UNL     1      -0.462  13.283  18.237  0.00  0.00    +0.000 C 
ATOM      5  C   UNL     1       0.290  14.537  18.686  0.00  0.00    +0.000 C 
ATOM      6  C   UNL     1      -0.503  15.416  19.649  0.00  0.00    +0.000 C 
ATOM      7  N   UNL     1      -0.070  15.017  20.974  0.00  0.00    +0.000 N 
ATOM      8  C   UNL     1      -0.976  14.818  21.995  0.00  0.00    +0.000 A 
ATOM      9  N   UNL     1      -0.489  14.496  23.207  0.00  0.00    +0.000 NA
ATOM     10  C   UNL     1      -1.368  14.313  24.206  0.00  0.00    +0.000 A 
ATOM     11  C   UNL     1      -2.726  14.397  24.046  0.00  0.00    +0.000 A 
ATOM     12  C   UNL     1      -3.154  14.707  22.776  0.00  0.00    +0.000 A 
ATOM     13  C   UNL     1      -4.617  14.747  22.452  0.00  0.00    +0.000 C 
ATOM     14  N   UNL     1      -2.294  14.943  21.758  0.00  0.00    +0.000 NA
ATOM     15  C   UNL     1       1.072  14.115  20.955  0.00  0.00    +0.000 C 
ATOM     16  C   UNL     1       1.497  14.029  19.482  0.00  0.00    +0.000 C 
ATOM     17  C   UNL     1       1.690  12.597  18.996  0.00  0.00    +0.000 C 
ENDROOT
BRANCH   1  21
ATOM     18  C   UNL     1       2.147   7.481  19.816  0.00  0.00    +0.000 A 
ATOM     19  C   UNL     1       2.240   7.909  18.495  0.00  0.00    +0.000 A 
ATOM     20  C   UNL     1       1.516   9.020  18.061  0.00  0.00    +0.000 A 
ATOM     21  C   UNL     1       0.636   9.686  18.926  0.00  0.00    +0.000 A 
ATOM     22  C   UNL     1       0.592   9.302  20.279  0.00  0.00    +0.000 A 
ATOM     23  C   UNL     1       1.332   8.183  20.706  0.00  0.00    +0.000 A 
BRANCH  18  25
ATOM     24  C   UNL     1       2.202   5.197  20.477  0.00  0.00    +0.000 C 
ATOM     25  O   UNL     1       2.902   6.381  20.114  0.00  0.00    +0.000 OA
ENDBRANCH  18  25
BRANCH  22  26
ATOM     26  O   UNL     1      -0.215  10.001  21.144  0.00  0.00    +0.000 OA
ATOM     27  C   UNL     1      -0.386   9.423  22.439  0.00  0.00    +0.000 C 
ENDBRANCH  22  26
ENDBRANCH   1  21
TORSDOF 3
ENDMDL
MODEL 2
REMARK VINA RESULT:      -6.2      1.193      1.237
REMARK  Name = 
REMARK  6 active torsions:
REMARK  status: ('A' for Active; 'I' for Inactive)
REMARK    1  A    between atoms: C_1  and  O_2
REMARK    2  A    between atoms: O_2  and  C_3
REMARK    3  A    between atoms: C_6  and  C_7
REMARK    4  A    between atoms: C_18  and  C_19
REMARK    5  A    between atoms: C_24  and  O_25
REMARK    6  A    between atoms: O_25  and  C_26
REMARK                            x       y       z     vdW  Elec       q    Type
REMARK                         _______ _______ _______ _____ _____    ______ ____
ROOT
ATOM      1  C   UNL     1       0.025  10.494  18.266  0.00  0.00    +0.000 C 
ATOM      2  O   UNL     1      -0.870  10.282  17.446  0.00  0.00    +0.000 OA
ATOM      3  N   UNL     1       0.244  11.768  18.789  0.00  0.00    +0.000 N 
ATOM      4  C   UNL     1      -0.627  12.855  18.376  0.00  0.00    +0.000 C 
ATOM      5  C   UNL     1      -0.161  14.095  19.142  0.00  0.00    +0.000 C 
ATOM      6  C   UNL     1      -1.239  14.705  20.034  0.00  0.00    +0.000 C 
ATOM      7  N   UNL     1      -1.007  14.143  21.351  0.00  0.00    +0.000 N 
ATOM      8  C   UNL     1      -2.049  13.675  22.124  0.00  0.00    +0.000 A 
ATOM      9  N   UNL     1      -1.755  13.214  23.353  0.00  0.00    +0.000 NA
ATOM     10  C   UNL     1      -2.768  12.767  24.113  0.00  0.00    +0.000 A 
ATOM     11  C   UNL     1      -4.070  12.721  23.690  0.00  0.00    +0.000 A 
ATOM     12  C   UNL     1      -4.294  13.187  22.415  0.00  0.00    +0.000 A 
ATOM     13  C   UNL     1      -5.662  13.113  21.805  0.00  0.00    +0.000 C 
ATOM     14  N   UNL     1      -3.303  13.686  21.640  0.00  0.00    +0.000 NA
ATOM     15  C   UNL     1       0.237  13.393  21.442  0.00  0.00    +0.000 C 
ATOM     16  C   UNL     1       0.937  13.603  20.091  0.00  0.00    +0.000 C 
ATOM     17  C   UNL     1       1.422  12.303  19.459  0.00  0.00    +0.000 C 
ENDROOT
BRANCH   1  21
ATOM     18  C   UNL     1       2.443   7.191  19.609  0.00  0.00    +0.000 A 
ATOM     19  C   UNL     1       2.543   7.674  18.308  0.00  0.00    +0.000 A 
ATOM     20  C   UNL     1       1.769   8.760  17.898  0.00  0.00    +0.000 A 
ATOM     21  C   UNL     1       0.834   9.343  18.765  0.00  0.00    +0.000 A 
ATOM     22  C   UNL     1       0.779   8.906  20.101  0.00  0.00    +0.000 A 
ATOM     23  C   UNL     1       1.570   7.813  20.504  0.00  0.00    +0.000 A 
BRANCH  18  25
ATOM     24  C   UNL     1       4.053   5.630  18.819  0.00  0.00    +0.000 C 
ATOM     25  O   UNL     1       3.251   6.123  19.885  0.00  0.00    +0.000 OA
ENDBRANCH  18  25
BRANCH  22  26
ATOM     26  O   UNL     1      -0.084   9.526  20.971  0.00  0.00    +0.000 OA
ATOM     27  C   UNL     1       0.373   9.650  22.318  0.00  0.00    +0.000 C 
ENDBRANCH  22  26
ENDBRANCH   1  21
TORSDOF 3
ENDMDL
MODEL 3
REMARK VINA RESULT:      -6.0      2.385      4.192
REMARK  Name = 
REMARK  6 active torsions:
REMARK  status: ('A' for Active; 'I' for Inactive)
REMARK    1  A    between atoms: C_1  and  O_2
REMARK    2  A    between atoms: O_2  and  C_3
REMARK    3  A    between atoms: C_6  and  C_7
REMARK    4  A    between atoms: C_18  and  C_19
REMARK    5  A    between atoms: C_24  and  O_25
REMARK    6  A    between atoms: O_25  and  C_26
REMARK                            x       y       z     vdW  Elec       q    Type
REMARK                         _______ _______ _______ _____ _____    ______ ____
ROOT
ATOM      1  C   UNL     1      -0.431  13.483  19.532  0.00  0.00    +0.000 C 
ATOM      2  O   UNL     1      -0.420  14.463  18.787  0.00  0.00    +0.000 OA
ATOM      3  N   UNL     1      -0.888  13.574  20.847  0.00  0.00    +0.000 N 
ATOM      4  C   UNL     1      -1.387  14.850  21.329  0.00  0.00    +0.000 C 
ATOM      5  C   UNL     1      -1.841  14.618  22.771  0.00  0.00    +0.000 C 
ATOM      6  C   UNL     1      -3.320  14.917  23.005  0.00  0.00    +0.000 C 
ATOM      7  N   UNL     1      -3.993  13.639  22.877  0.00  0.00    +0.000 N 
ATOM      8  C   UNL     1      -5.164  13.514  22.160  0.00  0.00    +0.000 A 
ATOM      9  N   UNL     1      -5.751  12.303  22.131  0.00  0.00    +0.000 NA
ATOM     10  C   UNL     1      -6.898  12.180  21.443  0.00  0.00    +0.000 A 
ATOM     11  C   UNL     1      -7.475  13.205  20.742  0.00  0.00    +0.000 A 
ATOM     12  C   UNL     1      -6.809  14.407  20.796  0.00  0.00    +0.000 A 
ATOM     13  C   UNL     1      -7.293  15.585  20.004  0.00  0.00    +0.000 C 
ATOM     14  N   UNL     1      -5.677  14.577  21.518  0.00  0.00    +0.000 NA
ATOM     15  C   UNL     1      -3.072  12.514  22.792  0.00  0.00    +0.000 C 
ATOM     16  C   UNL     1      -1.677  13.114  23.016  0.00  0.00    +0.000 C 
ATOM     17  C   UNL     1      -0.660  12.673  21.970  0.00  0.00    +0.000 C 
ENDROOT
BRANCH   1  21
ATOM     18  C   UNL     1       0.859   9.664  18.010  0.00  0.00    +0.000 A 
ATOM     19  C   UNL     1       1.777  10.600  18.479  0.00  0.00    +0.000 A 
ATOM     20  C   UNL     1       1.338  11.822  18.991  0.00  0.00    +0.000 A 
ATOM     21  C   UNL     1      -0.023  12.156  18.984  0.00  0.00    +0.000 A 
ATOM     22  C   UNL     1      -0.960  11.187  18.578  0.00  0.00    +0.000 A 
ATOM     23  C   UNL     1      -0.504   9.955  18.070  0.00  0.00    +0.000 A 
BRANCH  18  25
ATOM     24  C   UNL     1       2.765   8.246  17.898  0.00  0.00    +0.000 C 
ATOM     25  O   UNL     1       1.415   8.510  17.533  0.00  0.00    +0.000 OA
ENDBRANCH  18  25
BRANCH  22  26
ATOM     26  O   UNL     1      -2.299  11.486  18.641  0.00  0.00    +0.000 OA
ATOM     27  C   UNL     1      -3.020  11.369  17.414  0.00  0.00    +0.000 C 
ENDBRANCH  22  26
ENDBRANCH   1  21
TORSDOF 3
ENDMDL
MODEL 4
REMARK VINA RESULT:      -5.9      1.377      1.846
REMARK  Name = 
REMARK  6 active torsions:
REMARK  status: ('A' for Active; 'I' for Inactive)
REMARK    1  A    between atoms: C_1  and  O_2
REMARK    2  A    between atoms: O_2  and  C_3
REMARK    3  A    between atoms: C_6  and  C_7
REMARK    4  A    between atoms: C_18  and  C_19
REMARK    5  A    between atoms: C_24  and  O_25
REMARK    6  A    between atoms: O_25  and  C_26
REMARK                            x       y       z     vdW  Elec       q    Type
REMARK                         _______ _______ _______ _____ _____    ______ ____
ROOT
ATOM      1  C   UNL     1      -0.322  11.557  18.994  0.00  0.00    +0.000 C 
ATOM      2  O   UNL     1      -1.055  11.573  18.005  0.00  0.00    +0.000 OA
ATOM      3  N   UNL     1      -0.184  12.675  19.816  0.00  0.00    +0.000 N 
ATOM      4  C   UNL     1      -0.951  13.870  19.507  0.00  0.00    +0.000 C 
ATOM      5  C   UNL     1      -0.615  14.890  20.597  0.00  0.00    +0.000 C 
ATOM      6  C   UNL     1      -1.828  15.352  21.400  0.00  0.00    +0.000 C 
ATOM      7  N   UNL     1      -1.848  14.508  22.580  0.00  0.00    +0.000 N 
ATOM      8  C   UNL     1      -3.020  13.942  23.036  0.00  0.00    +0.000 A 
ATOM      9  N   UNL     1      -2.961  13.212  24.165  0.00  0.00    +0.000 NA
ATOM     10  C   UNL     1      -4.102  12.667  24.619  0.00  0.00    +0.000 A 
ATOM     11  C   UNL     1      -5.305  12.783  23.975  0.00  0.00    +0.000 A 
ATOM     12  C   UNL     1      -5.287  13.523  22.815  0.00  0.00    +0.000 A 
ATOM     13  C   UNL     1      -6.521  13.655  21.975  0.00  0.00    +0.000 C 
ATOM     14  N   UNL     1      -4.165  14.123  22.356  0.00  0.00    +0.000 NA
ATOM     15  C   UNL     1      -0.652  13.691  22.719  0.00  0.00    +0.000 C 
ATOM     16  C   UNL     1       0.285  14.148  21.591  0.00  0.00    +0.000 C 
ATOM     17  C   UNL     1       0.860  12.990  20.783  0.00  0.00    +0.000 C 
ENDROOT
BRANCH   1  21
ATOM     18  C   UNL     1       1.758   7.910  19.965  0.00  0.00    +0.000 A 
ATOM     19  C   UNL     1       2.001   8.582  18.771  0.00  0.00    +0.000 A 
ATOM     20  C   UNL     1       1.336   9.774  18.484  0.00  0.00    +0.000 A 
ATOM     21  C   UNL     1       0.367  10.284  19.360  0.00  0.00    +0.000 A 
ATOM     22  C   UNL     1       0.168   9.648  20.600  0.00  0.00    +0.000 A 
ATOM     23  C   UNL     1       0.851   8.449  20.880  0.00  0.00    +0.000 A 
BRANCH  18  25
ATOM     24  C   UNL     1       1.760   5.622  20.613  0.00  0.00    +0.000 C 
ATOM     25  O   UNL     1       2.470   6.755  20.125  0.00  0.00    +0.000 OA
ENDBRANCH  18  25
BRANCH  22  26
ATOM     26  O   UNL     1      -0.727  10.189  21.491  0.00  0.00    +0.000 OA
ATOM     27  C   UNL     1      -0.472   9.918  22.869  0.00  0.00    +0.000 C 
ENDBRANCH  22  26
ENDBRANCH   1  21
TORSDOF 3
ENDMDL
MODEL 5
REMARK VINA RESULT:      -5.8      3.360      5.381
REMARK  Name = 
REMARK  6 active torsions:
REMARK  status: ('A' for Active; 'I' for Inactive)
REMARK    1  A    between atoms: C_1  and  O_2
REMARK    2  A    between atoms: O_2  and  C_3
REMARK    3  A    between atoms: C_6  and  C_7
REMARK    4  A    between atoms: C_18  and  C_19
REMARK    5  A    between atoms: C_24  and  O_25
REMARK    6  A    between atoms: O_25  and  C_26
REMARK                            x       y       z     vdW  Elec       q    Type
REMARK                         _______ _______ _______ _____ _____    ______ ____
ROOT
ATOM      1  C   UNL     1      -1.170  13.632  20.412  0.00  0.00    +0.000 C 
ATOM      2  O   UNL     1      -0.697  14.692  20.001  0.00  0.00    +0.000 OA
ATOM      3  N   UNL     1      -2.330  13.605  21.187  0.00  0.00    +0.000 N 
ATOM      4  C   UNL     1      -3.003  14.858  21.484  0.00  0.00    +0.000 C 
ATOM      5  C   UNL     1      -4.242  14.497  22.306  0.00  0.00    +0.000 C 
ATOM      6  C   UNL     1      -5.555  14.928  21.658  0.00  0.00    +0.000 C 
ATOM      7  N   UNL     1      -6.028  13.760  20.941  0.00  0.00    +0.000 N 
ATOM      8  C   UNL     1      -6.526  13.859  19.658  0.00  0.00    +0.000 A 
ATOM      9  N   UNL     1      -6.990  12.736  19.082  0.00  0.00    +0.000 NA
ATOM     10  C   UNL     1      -7.485  12.830  17.836  0.00  0.00    +0.000 A 
ATOM     11  C   UNL     1      -7.507  13.994  17.115  0.00  0.00    +0.000 A 
ATOM     12  C   UNL     1      -6.995  15.097  17.758  0.00  0.00    +0.000 A 
ATOM     13  C   UNL     1      -6.885  16.413  17.047  0.00  0.00    +0.000 C 
ATOM     14  N   UNL     1      -6.531  15.046  19.029  0.00  0.00    +0.000 NA
ATOM     15  C   UNL     1      -5.259  12.560  21.232  0.00  0.00    +0.000 C 
ATOM     16  C   UNL     1      -4.278  12.965  22.342  0.00  0.00    +0.000 C 
ATOM     17  C   UNL     1      -2.840  12.550  22.053  0.00  0.00    +0.000 C 
ENDROOT
BRANCH   1  21
ATOM     18  C   UNL     1       0.720   9.910  19.346  0.00  0.00    +0.000 A 
ATOM     19  C   UNL     1       1.091  10.603  20.495  0.00  0.00    +0.000 A 
ATOM     20  C   UNL     1       0.450  11.794  20.837  0.00  0.00    +0.000 A 
ATOM     21  C   UNL     1      -0.529  12.348  20.001  0.00  0.00    +0.000 A 
ATOM     22  C   UNL     1      -0.957  11.617  18.877  0.00  0.00    +0.000 A 
ATOM     23  C   UNL     1      -0.307  10.413  18.546  0.00  0.00    +0.000 A 
BRANCH  18  25
ATOM     24  C   UNL     1       2.170   8.687  17.912  0.00  0.00    +0.000 C 
ATOM     25  O   UNL     1       1.424   8.760  19.121  0.00  0.00    +0.000 OA
ENDBRANCH  18  25
BRANCH  22  26
ATOM     26  O   UNL     1      -1.969  12.124  18.098  0.00  0.00    +0.000 OA
ATOM     27  C   UNL     1      -3.242  11.493  18.246  0.00  0.00    +0.000 C 
ENDBRANCH  22  26
ENDBRANCH   1  21
TORSDOF 3
ENDMDL
MODEL 6
REMARK VINA RESULT:      -5.8      2.540      4.629
REMARK  Name = 
REMARK  6 active torsions:
REMARK  status: ('A' for Active; 'I' for Inactive)
REMARK    1  A    between atoms: C_1  and  O_2
REMARK    2  A    between atoms: O_2  and  C_3
REMARK    3  A    between atoms: C_6  and  C_7
REMARK    4  A    between atoms: C_18  and  C_19
REMARK    5  A    between atoms: C_24  and  O_25
REMARK    6  A    between atoms: O_25  and  C_26
REMARK                            x       y       z     vdW  Elec       q    Type
REMARK                         _______ _______ _______ _____ _____    ______ ____
ROOT
ATOM      1  C   UNL     1      -0.699  13.866  20.106  0.00  0.00    +0.000 C 
ATOM      2  O   UNL     1      -0.712  14.881  19.409  0.00  0.00    +0.000 OA
ATOM      3  N   UNL     1      -1.226  13.864  21.397  0.00  0.00    +0.000 N 
ATOM      4  C   UNL     1      -1.830  15.083  21.910  0.00  0.00    +0.000 C 
ATOM      5  C   UNL     1      -2.340  14.752  23.314  0.00  0.00    +0.000 C 
ATOM      6  C   UNL     1      -3.845  14.949  23.481  0.00  0.00    +0.000 C 
ATOM      7  N   UNL     1      -4.428  13.639  23.259  0.00  0.00    +0.000 N 
ATOM      8  C   UNL     1      -5.551  13.478  22.476  0.00  0.00    +0.000 A 
ATOM      9  N   UNL     1      -6.057  12.237  22.360  0.00  0.00    +0.000 NA
ATOM     10  C   UNL     1      -7.157  12.077  21.606  0.00  0.00    +0.000 A 
ATOM     11  C   UNL     1      -7.763  13.099  20.923  0.00  0.00    +0.000 A 
ATOM     12  C   UNL     1      -7.178  14.335  21.068  0.00  0.00    +0.000 A 
ATOM     13  C   UNL     1      -7.696  15.519  20.306  0.00  0.00    +0.000 C 
ATOM     14  N   UNL     1      -6.097  14.539  21.857  0.00  0.00    +0.000 NA
ATOM     15  C   UNL     1      -3.434  12.579  23.172  0.00  0.00    +0.000 C 
ATOM     16  C   UNL     1      -2.093  13.251  23.498  0.00  0.00    +0.000 C 
ATOM     17  C   UNL     1      -0.998  12.926  22.488  0.00  0.00    +0.000 C 
ENDROOT
BRANCH   1  21
ATOM     18  C   UNL     1       0.691  10.188  18.344  0.00  0.00    +0.000 A 
ATOM     19  C   UNL     1      -0.660  10.524  18.340  0.00  0.00    +0.000 A 
ATOM     20  C   UNL     1      -1.088  11.730  18.893  0.00  0.00    +0.000 A 
ATOM     21  C   UNL     1      -0.180  12.595  19.520  0.00  0.00    +0.000 A 
ATOM     22  C   UNL     1       1.194  12.296  19.465  0.00  0.00    +0.000 A 
ATOM     23  C   UNL     1       1.614  11.078  18.897  0.00  0.00    +0.000 A 
BRANCH  18  25
ATOM     24  C   UNL     1       2.347   8.583  17.767  0.00  0.00    +0.000 C 
ATOM     25  O   UNL     1       0.981   8.980  17.774  0.00  0.00    +0.000 OA
ENDBRANCH  18  25
BRANCH  22  26
ATOM     26  O   UNL     1       2.091  13.179  20.013  0.00  0.00    +0.000 OA
ATOM     27  C   UNL     1       2.924  13.875  19.085  0.00  0.00    +0.000 C 
ENDBRANCH  22  26
ENDBRANCH   1  21
TORSDOF 3
ENDMDL
MODEL 7
REMARK VINA RESULT:      -5.8      6.213      9.722
REMARK  Name = 
REMARK  6 active torsions:
REMARK  status: ('A' for Active; 'I' for Inactive)
REMARK    1  A    between atoms: C_1  and  O_2
REMARK    2  A    between atoms: O_2  and  C_3
REMARK    3  A    between atoms: C_6  and  C_7
REMARK    4  A    between atoms: C_18  and  C_19
REMARK    5  A    between atoms: C_24  and  O_25
REMARK    6  A    between atoms: O_25  and  C_26
REMARK                            x       y       z     vdW  Elec       q    Type
REMARK                         _______ _______ _______ _____ _____    ______ ____
ROOT
ATOM      1  C   UNL     1       3.973  14.593  21.125  0.00  0.00    +0.000 C 
ATOM      2  O   UNL     1       3.482  13.522  21.483  0.00  0.00    +0.000 OA
ATOM      3  N   UNL     1       5.228  15.004  21.574  0.00  0.00    +0.000 N 
ATOM      4  C   UNL     1       5.978  14.129  22.458  0.00  0.00    +0.000 C 
ATOM      5  C   UNL     1       7.306  14.834  22.736  0.00  0.00    +0.000 C 
ATOM      6  C   UNL     1       8.530  14.032  22.299  0.00  0.00    +0.000 C 
ATOM      7  N   UNL     1       8.858  14.528  20.977  0.00  0.00    +0.000 N 
ATOM      8  C   UNL     1       9.175  13.668  19.946  0.00  0.00    +0.000 A 
ATOM      9  N   UNL     1       9.515  14.211  18.763  0.00  0.00    +0.000 NA
ATOM     10  C   UNL     1       9.834  13.376  17.760  0.00  0.00    +0.000 A 
ATOM     11  C   UNL     1       9.793  12.012  17.867  0.00  0.00    +0.000 A 
ATOM     12  C   UNL     1       9.414  11.526  19.097  0.00  0.00    +0.000 A 
ATOM     13  C   UNL     1       9.249  10.052  19.319  0.00  0.00    +0.000 C 
ATOM     14  N   UNL     1       9.131  12.339  20.142  0.00  0.00    +0.000 NA
ATOM     15  C   UNL     1       8.098  15.712  20.605  0.00  0.00    +0.000 C 
ATOM     16  C   UNL     1       7.297  16.090  21.858  0.00  0.00    +0.000 C 
ATOM     17  C   UNL     1       5.819  16.336  21.575  0.00  0.00    +0.000 C 
ENDROOT
BRANCH   1  21
ATOM     18  C   UNL     1       1.829  17.080  18.335  0.00  0.00    +0.000 A 
ATOM     19  C   UNL     1       1.650  17.219  19.708  0.00  0.00    +0.000 A 
ATOM     20  C   UNL     1       2.372  16.421  20.597  0.00  0.00    +0.000 A 
ATOM     21  C   UNL     1       3.238  15.425  20.126  0.00  0.00    +0.000 A 
ATOM     22  C   UNL     1       3.475  15.327  18.743  0.00  0.00    +0.000 A 
ATOM     23  C   UNL     1       2.746  16.143  17.857  0.00  0.00    +0.000 A 
BRANCH  18  25
ATOM     24  C   UNL     1      -0.349  17.780  17.685  0.00  0.00    +0.000 C 
ATOM     25  O   UNL     1       1.063  17.917  17.573  0.00  0.00    +0.000 OA
ENDBRANCH  18  25
BRANCH  22  26
ATOM     26  O   UNL     1       4.380  14.400  18.285  0.00  0.00    +0.000 OA
ATOM     27  C   UNL     1       5.643  14.919  17.867  0.00  0.00    +0.000 C 
ENDBRANCH  22  26
ENDBRANCH   1  21
TORSDOF 3
ENDMDL
MODEL 8
REMARK VINA RESULT:      -5.8      2.763      4.731
REMARK  Name = 
REMARK  6 active torsions:
REMARK  status: ('A' for Active; 'I' for Inactive)
REMARK    1  A    between atoms: C_1  and  O_2
REMARK    2  A    between atoms: O_2  and  C_3
REMARK    3  A    between atoms: C_6  and  C_7
REMARK    4  A    between atoms: C_18  and  C_19
REMARK    5  A    between atoms: C_24  and  O_25
REMARK    6  A    between atoms: O_25  and  C_26
REMARK                            x       y       z     vdW  Elec       q    Type
REMARK                         _______ _______ _______ _____ _____    ______ ____
ROOT
ATOM      1  C   UNL     1       1.454   8.436  20.478  0.00  0.00    +0.000 C 
ATOM      2  O   UNL     1       1.606   8.257  21.687  0.00  0.00    +0.000 OA
ATOM      3  N   UNL     1       0.697   9.501  19.990  0.00  0.00    +0.000 N 
ATOM      4  C   UNL     1       0.105  10.431  20.937  0.00  0.00    +0.000 C 
ATOM      5  C   UNL     1      -0.620  11.490  20.103  0.00  0.00    +0.000 C 
ATOM      6  C   UNL     1      -0.105  12.909  20.334  0.00  0.00    +0.000 C 
ATOM      7  N   UNL     1       0.865  13.139  19.281  0.00  0.00    +0.000 N 
ATOM      8  C   UNL     1       2.082  13.732  19.544  0.00  0.00    +0.000 A 
ATOM      9  N   UNL     1       2.905  13.953  18.503  0.00  0.00    +0.000 NA
ATOM     10  C   UNL     1       4.087  14.540  18.754  0.00  0.00    +0.000 A 
ATOM     11  C   UNL     1       4.510  14.885  20.010  0.00  0.00    +0.000 A 
ATOM     12  C   UNL     1       3.628  14.608  21.029  0.00  0.00    +0.000 A 
ATOM     13  C   UNL     1       4.007  14.861  22.457  0.00  0.00    +0.000 C 
ATOM     14  N   UNL     1       2.411  14.060  20.805  0.00  0.00    +0.000 NA
ATOM     15  C   UNL     1       0.874  12.088  18.273  0.00  0.00    +0.000 C 
ATOM     16  C   UNL     1      -0.291  11.160  18.644  0.00  0.00    +0.000 C 
ATOM     17  C   UNL     1       0.103   9.687  18.673  0.00  0.00    +0.000 C 
ENDROOT
BRANCH   1  21
ATOM     18  C   UNL     1       3.577   5.945  17.676  0.00  0.00    +0.000 A 
ATOM     19  C   UNL     1       3.557   7.330  17.538  0.00  0.00    +0.000 A 
ATOM     20  C   UNL     1       2.885   8.122  18.468  0.00  0.00    +0.000 A 
ATOM     21  C   UNL     1       2.165   7.538  19.521  0.00  0.00    +0.000 A 
ATOM     22  C   UNL     1       2.240   6.145  19.706  0.00  0.00    +0.000 A 
ATOM     23  C   UNL     1       2.928   5.358  18.764  0.00  0.00    +0.000 A 
BRANCH  18  25
ATOM     24  C   UNL     1       5.209   6.042  15.949  0.00  0.00    +0.000 C 
ATOM     25  O   UNL     1       4.267   5.283  16.699  0.00  0.00    +0.000 OA
ENDBRANCH  18  25
BRANCH  22  26
ATOM     26  O   UNL     1       1.597   5.580  20.781  0.00  0.00    +0.000 OA
ATOM     27  C   UNL     1       1.490   4.156  20.762  0.00  0.00    +0.000 C 
ENDBRANCH  22  26
ENDBRANCH   1  21
TORSDOF 3
ENDMDL
MODEL 9
REMARK VINA RESULT:      -5.8      3.383      6.078
REMARK  Name = 
REMARK  6 active torsions:
REMARK  status: ('A' for Active; 'I' for Inactive)
REMARK    1  A    between atoms: C_1  and  O_2
REMARK    2  A    between atoms: O_2  and  C_3
REMARK    3  A    between atoms: C_6  and  C_7
REMARK    4  A    between atoms: C_18  and  C_19
REMARK    5  A    between atoms: C_24  and  O_25
REMARK    6  A    between atoms: O_25  and  C_26
REMARK                            x       y       z     vdW  Elec       q    Type
REMARK                         _______ _______ _______ _____ _____    ______ ____
ROOT
ATOM      1  C   UNL     1      -2.180  13.639  22.216  0.00  0.00    +0.000 C 
ATOM      2  O   UNL     1      -1.573  14.677  21.947  0.00  0.00    +0.000 OA
ATOM      3  N   UNL     1      -3.498  13.665  22.673  0.00  0.00    +0.000 N 
ATOM      4  C   UNL     1      -4.170  14.947  22.802  0.00  0.00    +0.000 C 
ATOM      5  C   UNL     1      -5.590  14.641  23.282  0.00  0.00    +0.000 C 
ATOM      6  C   UNL     1      -6.678  15.129  22.329  0.00  0.00    +0.000 C 
ATOM      7  N   UNL     1      -7.004  13.982  21.504  0.00  0.00    +0.000 N 
ATOM      8  C   UNL     1      -7.158  14.101  20.138  0.00  0.00    +0.000 A 
ATOM      9  N   UNL     1      -7.509  12.998  19.453  0.00  0.00    +0.000 NA
ATOM     10  C   UNL     1      -7.670  13.112  18.124  0.00  0.00    +0.000 A 
ATOM     11  C   UNL     1      -7.459  14.276  17.432  0.00  0.00    +0.000 A 
ATOM     12  C   UNL     1      -7.079  15.356  18.194  0.00  0.00    +0.000 A 
ATOM     13  C   UNL     1      -6.737  16.665  17.546  0.00  0.00    +0.000 C 
ATOM     14  N   UNL     1      -6.953  15.287  19.540  0.00  0.00    +0.000 NA
ATOM     15  C   UNL     1      -6.385  12.749  21.968  0.00  0.00    +0.000 C 
ATOM     16  C   UNL     1      -5.700  13.113  23.293  0.00  0.00    +0.000 C 
ATOM     17  C   UNL     1      -4.254  12.634  23.372  0.00  0.00    +0.000 C 
ENDROOT
BRANCH   1  21
ATOM     18  C   UNL     1      -0.283   9.818  21.616  0.00  0.00    +0.000 A 
ATOM     19  C   UNL     1      -0.537  10.303  22.895  0.00  0.00    +0.000 A 
ATOM     20  C   UNL     1      -1.174  11.531  23.070  0.00  0.00    +0.000 A 
ATOM     21  C   UNL     1      -1.512  12.328  21.966  0.00  0.00    +0.000 A 
ATOM     22  C   UNL     1      -1.322  11.812  20.671  0.00  0.00    +0.000 A 
ATOM     23  C   UNL     1      -0.684  10.567  20.509  0.00  0.00    +0.000 A 
BRANCH  18  25
ATOM     24  C   UNL     1       1.339   8.424  20.575  0.00  0.00    +0.000 C 
ATOM     25  O   UNL     1       0.347   8.605  21.579  0.00  0.00    +0.000 OA
ENDBRANCH  18  25
BRANCH  22  26
ATOM     26  O   UNL     1      -1.721  12.560  19.590  0.00  0.00    +0.000 OA
ATOM     27  C   UNL     1      -0.916  12.437  18.417  0.00  0.00    +0.000 C 
ENDBRANCH  22  26
ENDBRANCH   1  21
TORSDOF 3
ENDMDL
