MODEL 1
REMARK VINA RESULT:      -8.2      0.000      0.000
REMARK  Name = 
REMARK  9 active torsions:
REMARK  status: ('A' for Active; 'I' for Inactive)
REMARK    1  A    between atoms: C_1  and  O_2
REMARK    2  A    between atoms: O_2  and  C_3
REMARK    3  A    between atoms: C_3  and  C_4
REMARK    4  A    between atoms: C_4  and  C_5
REMARK    5  A    between atoms: N_7  and  C_8
REMARK    6  A    between atoms: C_8  and  C_9
REMARK    7  A    between atoms: C_8  and  C_10
REMARK    8  A    between atoms: C_13  and  N_14
REMARK    9  A    between atoms: C_20  and  C_21
REMARK                            x       y       z     vdW  Elec       q    Type
REMARK                         _______ _______ _______ _____ _____    ______ ____
ROOT
ATOM      1  N   UNL     1       1.633   9.145  18.101  0.00  0.00    +0.000 N 
ATOM      2  C   UNL     1       0.725   9.863  18.887  0.00  0.00    +0.000 A 
ATOM      3  N   UNL     1      -0.026  10.726  18.184  0.00  0.00    +0.000 NA
ATOM      4  C   UNL     1      -0.914  11.469  18.868  0.00  0.00    +0.000 A 
ATOM      5  C   UNL     1      -1.080  11.424  20.238  0.00  0.00    +0.000 A 
ATOM      6  C   UNL     1      -2.019  12.227  20.925  0.00  0.00    +0.000 A 
ATOM      7  C   UNL     1      -2.121  12.235  22.326  0.00  0.00    +0.000 A 
ATOM      8  C   UNL     1      -1.259  11.358  22.998  0.00  0.00    +0.000 A 
ATOM      9  C   UNL     1      -0.345  10.531  22.296  0.00  0.00    +0.000 A 
ATOM     10  C   UNL     1      -0.235  10.539  20.902  0.00  0.00    +0.000 A 
ATOM     11  N   UNL     1       0.646   9.751  20.230  0.00  0.00    +0.000 NA
ATOM     12  H   UNL     1       1.571   9.486  17.151  0.00  0.00    +0.000 HD
ENDROOT
BRANCH   1  16
ATOM     13  C   UNL     1       4.229   5.832  18.742  0.00  0.00    +0.000 A 
ATOM     14  C   UNL     1       3.156   6.087  19.610  0.00  0.00    +0.000 A 
ATOM     15  C   UNL     1       2.279   7.163  19.398  0.00  0.00    +0.000 A 
ATOM     16  C   UNL     1       2.420   8.004  18.297  0.00  0.00    +0.000 A 
ATOM     17  C   UNL     1       3.466   7.717  17.398  0.00  0.00    +0.000 A 
ATOM     18  C   UNL     1       4.360   6.652  17.616  0.00  0.00    +0.000 A 
BRANCH  13  19
ATOM     19  C   UNL     1       5.230   4.740  19.100  0.00  0.00    +0.000 C 
ATOM     20  C   UNL     1       6.387   4.690  18.097  0.00  0.00    +0.000 C 
BRANCH  19  23
ATOM     21  C   UNL     1       3.884   2.867  18.203  0.00  0.00    +0.000 C 
ATOM     22  O   UNL     1       3.794   3.369  17.084  0.00  0.00    +0.000 OA
ATOM     23  N   UNL     1       4.602   3.438  19.228  0.00  0.00    +0.000 N 
ATOM     24  H   UNL     1       4.454   3.059  20.160  0.00  0.00    +0.000 HD
BRANCH  21  25
ATOM     25  C   UNL     1       3.118   1.600  18.551  0.00  0.00    +0.000 C 
BRANCH  25  26
ATOM     26  C   UNL     1       1.735   1.842  19.135  0.00  0.00    +0.000 C 
BRANCH  26  28
ATOM     27  C   UNL     1       1.445   2.751  21.300  0.00  0.00    +0.000 C 
ATOM     28  O   UNL     1       1.779   3.022  19.945  0.00  0.00    +0.000 OA
ENDBRANCH  26  28
ENDBRANCH  25  26
ENDBRANCH  21  25
ENDBRANCH  19  23
ENDBRANCH  13  19
ENDBRANCH   1  16
BRANCH   7  29
ATOM     29  C   UNL     1      -3.057  13.160  23.023  0.00  0.00    +0.000 A 
ATOM     30  C   UNL     1      -2.626  14.228  23.822  0.00  0.00    +0.000 A 
ATOM     31  C   UNL     1      -3.569  15.048  24.439  0.00  0.00    +0.000 A 
ATOM     32  N   UNL     1      -4.901  14.886  24.325  0.00  0.00    +0.000 NA
ATOM     33  C   UNL     1      -5.312  13.858  23.561  0.00  0.00    +0.000 A 
ATOM     34  C   UNL     1      -4.448  12.993  22.907  0.00  0.00    +0.000 A 
ENDBRANCH   7  29
TORSDOF 7
ENDMDL
MODEL 2
REMARK VINA RESULT:      -8.1      0.497      1.244
REMARK  Name = 
REMARK  9 active torsions:
REMARK  status: ('A' for Active; 'I' for Inactive)
REMARK    1  A    between atoms: C_1  and  O_2
REMARK    2  A    between atoms: O_2  and  C_3
REMARK    3  A    between atoms: C_3  and  C_4
REMARK    4  A    between atoms: C_4  and  C_5
REMARK    5  A    between atoms: N_7  and  C_8
REMARK    6  A    between atoms: C_8  and  C_9
REMARK    7  A    between atoms: C_8  and  C_10
REMARK    8  A    between atoms: C_13  and  N_14
REMARK    9  A    between atoms: C_20  and  C_21
REMARK                            x       y       z     vdW  Elec       q    Type
REMARK                         _______ _______ _______ _____ _____    ______ ____
ROOT
ATOM      1  N   UNL     1       1.507   9.136  17.950  0.00  0.00    +0.000 N 
ATOM      2  C   UNL     1       0.600   9.869  18.723  0.00  0.00    +0.000 A 
ATOM      3  N   UNL     1      -0.290  10.559  17.992  0.00  0.00    +0.000 NA
ATOM      4  C   UNL     1      -1.189  11.305  18.660  0.00  0.00    +0.000 A 
ATOM      5  C   UNL     1      -1.235  11.429  20.035  0.00  0.00    +0.000 A 
ATOM      6  C   UNL     1      -2.190  12.230  20.702  0.00  0.00    +0.000 A 
ATOM      7  C   UNL     1      -2.174  12.416  22.094  0.00  0.00    +0.000 A 
ATOM      8  C   UNL     1      -1.175  11.718  22.786  0.00  0.00    +0.000 A 
ATOM      9  C   UNL     1      -0.244  10.889  22.108  0.00  0.00    +0.000 A 
ATOM     10  C   UNL     1      -0.252  10.720  20.720  0.00  0.00    +0.000 A 
ATOM     11  N   UNL     1       0.645   9.931  20.071  0.00  0.00    +0.000 NA
ATOM     12  H   UNL     1       1.332   9.339  16.975  0.00  0.00    +0.000 HD
ENDROOT
BRANCH   1  16
ATOM     13  C   UNL     1       4.090   5.833  18.696  0.00  0.00    +0.000 A 
ATOM     14  C   UNL     1       4.313   6.695  17.610  0.00  0.00    +0.000 A 
ATOM     15  C   UNL     1       3.482   7.800  17.365  0.00  0.00    +0.000 A 
ATOM     16  C   UNL     1       2.419   8.106  18.211  0.00  0.00    +0.000 A 
ATOM     17  C   UNL     1       2.226   7.272  19.329  0.00  0.00    +0.000 A 
ATOM     18  C   UNL     1       3.043   6.151  19.569  0.00  0.00    +0.000 A 
BRANCH  13  19
ATOM     19  C   UNL     1       4.934   4.572  18.828  0.00  0.00    +0.000 C 
ATOM     20  C   UNL     1       5.882   4.405  17.636  0.00  0.00    +0.000 C 
BRANCH  19  23
ATOM     21  C   UNL     1       3.202   2.973  18.074  0.00  0.00    +0.000 C 
ATOM     22  O   UNL     1       3.061   3.524  16.984  0.00  0.00    +0.000 OA
ATOM     23  N   UNL     1       4.122   3.383  19.011  0.00  0.00    +0.000 N 
ATOM     24  H   UNL     1       4.027   2.998  19.947  0.00  0.00    +0.000 HD
BRANCH  21  25
ATOM     25  C   UNL     1       2.287   1.832  18.493  0.00  0.00    +0.000 C 
BRANCH  25  26
ATOM     26  C   UNL     1       0.908   2.271  18.961  0.00  0.00    +0.000 C 
BRANCH  26  28
ATOM     27  C   UNL     1       1.311   2.828  21.225  0.00  0.00    +0.000 C 
ATOM     28  O   UNL     1       1.063   3.327  19.917  0.00  0.00    +0.000 OA
ENDBRANCH  26  28
ENDBRANCH  25  26
ENDBRANCH  21  25
ENDBRANCH  19  23
ENDBRANCH  13  19
ENDBRANCH   1  16
BRANCH   7  29
ATOM     29  C   UNL     1      -3.138  13.339  22.757  0.00  0.00    +0.000 A 
ATOM     30  C   UNL     1      -4.405  12.935  23.199  0.00  0.00    +0.000 A 
ATOM     31  C   UNL     1      -5.247  13.862  23.811  0.00  0.00    +0.000 A 
ATOM     32  N   UNL     1      -4.927  15.154  24.013  0.00  0.00    +0.000 NA
ATOM     33  C   UNL     1      -3.712  15.540  23.584  0.00  0.00    +0.000 A 
ATOM     34  C   UNL     1      -2.808  14.688  22.967  0.00  0.00    +0.000 A 
ENDBRANCH   7  29
TORSDOF 7
ENDMDL
MODEL 3
REMARK VINA RESULT:      -8.0      2.581      4.100
REMARK  Name = 
REMARK  9 active torsions:
REMARK  status: ('A' for Active; 'I' for Inactive)
REMARK    1  A    between atoms: C_1  and  O_2
REMARK    2  A    between atoms: O_2  and  C_3
REMARK    3  A    between atoms: C_3  and  C_4
REMARK    4  A    between atoms: C_4  and  C_5
REMARK    5  A    between atoms: N_7  and  C_8
REMARK    6  A    between atoms: C_8  and  C_9
REMARK    7  A    between atoms: C_8  and  C_10
REMARK    8  A    between atoms: C_13  and  N_14
REMARK    9  A    between atoms: C_20  and  C_21
REMARK                            x       y       z     vdW  Elec       q    Type
REMARK                         _______ _______ _______ _____ _____    ______ ____
ROOT
ATOM      1  N   UNL     1       1.219   7.213  21.256  0.00  0.00    +0.000 N 
ATOM      2  C   UNL     1       0.896   8.566  21.104  0.00  0.00    +0.000 A 
ATOM      3  N   UNL     1       0.500   9.153  22.244  0.00  0.00    +0.000 NA
ATOM      4  C   UNL     1       0.154  10.451  22.181  0.00  0.00    +0.000 A 
ATOM      5  C   UNL     1       0.153  11.205  21.023  0.00  0.00    +0.000 A 
ATOM      6  C   UNL     1      -0.225  12.567  20.993  0.00  0.00    +0.000 A 
ATOM      7  C   UNL     1      -0.305  13.298  19.797  0.00  0.00    +0.000 A 
ATOM      8  C   UNL     1       0.059  12.602  18.637  0.00  0.00    +0.000 A 
ATOM      9  C   UNL     1       0.470  11.245  18.684  0.00  0.00    +0.000 A 
ATOM     10  C   UNL     1       0.532  10.514  19.875  0.00  0.00    +0.000 A 
ATOM     11  N   UNL     1       0.919   9.212  19.918  0.00  0.00    +0.000 NA
ATOM     12  H   UNL     1       1.018   6.943  22.209  0.00  0.00    +0.000 HD
ENDROOT
BRANCH   1  16
ATOM     13  C   UNL     1       3.047   4.294  18.751  0.00  0.00    +0.000 A 
ATOM     14  C   UNL     1       3.461   5.636  18.720  0.00  0.00    +0.000 A 
ATOM     15  C   UNL     1       2.882   6.603  19.555  0.00  0.00    +0.000 A 
ATOM     16  C   UNL     1       1.893   6.266  20.476  0.00  0.00    +0.000 A 
ATOM     17  C   UNL     1       1.514   4.911  20.543  0.00  0.00    +0.000 A 
ATOM     18  C   UNL     1       2.076   3.939  19.695  0.00  0.00    +0.000 A 
BRANCH  13  19
ATOM     19  C   UNL     1       3.608   3.320  17.724  0.00  0.00    +0.000 C 
ATOM     20  C   UNL     1       3.370   1.865  18.143  0.00  0.00    +0.000 C 
BRANCH  19  23
ATOM     21  C   UNL     1       5.444   4.209  16.322  0.00  0.00    +0.000 C 
ATOM     22  O   UNL     1       4.676   4.717  15.507  0.00  0.00    +0.000 OA
ATOM     23  N   UNL     1       5.014   3.555  17.454  0.00  0.00    +0.000 N 
ATOM     24  H   UNL     1       5.705   3.001  17.955  0.00  0.00    +0.000 HD
BRANCH  21  25
ATOM     25  C   UNL     1       6.945   4.200  16.076  0.00  0.00    +0.000 C 
BRANCH  25  26
ATOM     26  C   UNL     1       7.786   4.480  17.312  0.00  0.00    +0.000 C 
BRANCH  26  28
ATOM     27  C   UNL     1       7.810   5.832  19.254  0.00  0.00    +0.000 C 
ATOM     28  O   UNL     1       7.301   5.674  17.936  0.00  0.00    +0.000 OA
ENDBRANCH  26  28
ENDBRANCH  25  26
ENDBRANCH  21  25
ENDBRANCH  19  23
ENDBRANCH  13  19
ENDBRANCH   1  16
BRANCH   7  29
ATOM     29  C   UNL     1      -0.795  14.706  19.789  0.00  0.00    +0.000 A 
ATOM     30  C   UNL     1      -0.302  15.683  18.913  0.00  0.00    +0.000 A 
ATOM     31  C   UNL     1      -0.816  16.978  18.970  0.00  0.00    +0.000 A 
ATOM     32  N   UNL     1      -1.775  17.372  19.829  0.00  0.00    +0.000 NA
ATOM     33  C   UNL     1      -2.243  16.433  20.670  0.00  0.00    +0.000 A 
ATOM     34  C   UNL     1      -1.795  15.121  20.684  0.00  0.00    +0.000 A 
ENDBRANCH   7  29
TORSDOF 7
ENDMDL
MODEL 4
REMARK VINA RESULT:      -7.9      2.289      3.689
REMARK  Name = 
REMARK  9 active torsions:
REMARK  status: ('A' for Active; 'I' for Inactive)
REMARK    1  A    between atoms: C_1  and  O_2
REMARK    2  A    between atoms: O_2  and  C_3
REMARK    3  A    between atoms: C_3  and  C_4
REMARK    4  A    between atoms: C_4  and  C_5
REMARK    5  A    between atoms: N_7  and  C_8
REMARK    6  A    between atoms: C_8  and  C_9
REMARK    7  A    between atoms: C_8  and  C_10
REMARK    8  A    between atoms: C_13  and  N_14
REMARK    9  A    between atoms: C_20  and  C_21
REMARK                            x       y       z     vdW  Elec       q    Type
REMARK                         _______ _______ _______ _____ _____    ______ ____
ROOT
ATOM      1  N   UNL     1       1.241   7.735  21.437  0.00  0.00    +0.000 N 
ATOM      2  C   UNL     1       0.523   8.935  21.430  0.00  0.00    +0.000 A 
ATOM      3  N   UNL     1       0.370   9.474  22.650  0.00  0.00    +0.000 NA
ATOM      4  C   UNL     1      -0.326  10.623  22.733  0.00  0.00    +0.000 A 
ATOM      5  C   UNL     1      -0.912  11.262  21.657  0.00  0.00    +0.000 A 
ATOM      6  C   UNL     1      -1.644  12.465  21.784  0.00  0.00    +0.000 A 
ATOM      7  C   UNL     1      -2.307  13.060  20.699  0.00  0.00    +0.000 A 
ATOM      8  C   UNL     1      -2.158  12.405  19.468  0.00  0.00    +0.000 A 
ATOM      9  C   UNL     1      -1.392  11.217  19.347  0.00  0.00    +0.000 A 
ATOM     10  C   UNL     1      -0.748  10.619  20.434  0.00  0.00    +0.000 A 
ATOM     11  N   UNL     1      -0.020   9.476  20.318  0.00  0.00    +0.000 NA
ATOM     12  H   UNL     1       1.443   7.491  22.396  0.00  0.00    +0.000 HD
ENDROOT
BRANCH   1  16
ATOM     13  C   UNL     1       2.898   5.249  18.402  0.00  0.00    +0.000 A 
ATOM     14  C   UNL     1       2.902   6.647  18.274  0.00  0.00    +0.000 A 
ATOM     15  C   UNL     1       2.379   7.479  19.276  0.00  0.00    +0.000 A 
ATOM     16  C   UNL     1       1.863   6.951  20.457  0.00  0.00    +0.000 A 
ATOM     17  C   UNL     1       1.905   5.552  20.608  0.00  0.00    +0.000 A 
ATOM     18  C   UNL     1       2.410   4.711  19.599  0.00  0.00    +0.000 A 
BRANCH  13  19
ATOM     19  C   UNL     1       3.345   4.394  17.224  0.00  0.00    +0.000 C 
ATOM     20  C   UNL     1       2.669   3.019  17.240  0.00  0.00    +0.000 C 
BRANCH  19  23
ATOM     21  C   UNL     1       5.560   5.014  16.308  0.00  0.00    +0.000 C 
ATOM     22  O   UNL     1       5.102   5.916  15.609  0.00  0.00    +0.000 OA
ATOM     23  N   UNL     1       4.789   4.257  17.160  0.00  0.00    +0.000 N 
ATOM     24  H   UNL     1       5.215   3.416  17.541  0.00  0.00    +0.000 HD
BRANCH  21  25
ATOM     25  C   UNL     1       7.025   4.619  16.207  0.00  0.00    +0.000 C 
BRANCH  25  26
ATOM     26  C   UNL     1       7.750   4.543  17.541  0.00  0.00    +0.000 C 
BRANCH  26  28
ATOM     27  C   UNL     1       7.859   6.741  18.411  0.00  0.00    +0.000 C 
ATOM     28  O   UNL     1       7.168   5.499  18.435  0.00  0.00    +0.000 OA
ENDBRANCH  26  28
ENDBRANCH  25  26
ENDBRANCH  21  25
ENDBRANCH  19  23
ENDBRANCH  13  19
ENDBRANCH   1  16
BRANCH   7  29
ATOM     29  C   UNL     1      -3.145  14.278  20.884  0.00  0.00    +0.000 A 
ATOM     30  C   UNL     1      -4.535  14.285  20.707  0.00  0.00    +0.000 A 
ATOM     31  C   UNL     1      -5.245  15.469  20.901  0.00  0.00    +0.000 A 
ATOM     32  N   UNL     1      -4.681  16.639  21.255  0.00  0.00    +0.000 NA
ATOM     33  C   UNL     1      -3.346  16.629  21.420  0.00  0.00    +0.000 A 
ATOM     34  C   UNL     1      -2.558  15.501  21.251  0.00  0.00    +0.000 A 
ENDBRANCH   7  29
TORSDOF 7
ENDMDL
MODEL 5
REMARK VINA RESULT:      -7.8      3.858      5.303
REMARK  Name = 
REMARK  9 active torsions:
REMARK  status: ('A' for Active; 'I' for Inactive)
REMARK    1  A    between atoms: C_1  and  O_2
REMARK    2  A    between atoms: O_2  and  C_3
REMARK    3  A    between atoms: C_3  and  C_4
REMARK    4  A    between atoms: C_4  and  C_5
REMARK    5  A    between atoms: N_7  and  C_8
REMARK    6  A    between atoms: C_8  and  C_9
REMARK    7  A    between atoms: C_8  and  C_10
REMARK    8  A    between atoms: C_13  and  N_14
REMARK    9  A    between atoms: C_20  and  C_21
REMARK                            x       y       z     vdW  Elec       q    Type
REMARK                         _______ _______ _______ _____ _____    ______ ____
ROOT
ATOM      1  N   UNL     1       2.995   5.622  19.022  0.00  0.00    +0.000 N 
ATOM      2  C   UNL     1       2.359   6.801  19.425  0.00  0.00    +0.000 A 
ATOM      3  N   UNL     1       1.925   6.768  20.695  0.00  0.00    +0.000 NA
ATOM      4  C   UNL     1       1.287   7.858  21.156  0.00  0.00    +0.000 A 
ATOM      5  C   UNL     1       1.026   8.988  20.406  0.00  0.00    +0.000 A 
ATOM      6  C   UNL     1       0.344  10.113  20.923  0.00  0.00    +0.000 A 
ATOM      7  C   UNL     1       0.009  11.220  20.127  0.00  0.00    +0.000 A 
ATOM      8  C   UNL     1       0.435  11.157  18.794  0.00  0.00    +0.000 A 
ATOM      9  C   UNL     1       1.150  10.038  18.295  0.00  0.00    +0.000 A 
ATOM     10  C   UNL     1       1.466   8.929  19.087  0.00  0.00    +0.000 A 
ATOM     11  N   UNL     1       2.145   7.853  18.606  0.00  0.00    +0.000 NA
ATOM     12  H   UNL     1       2.933   4.953  19.777  0.00  0.00    +0.000 HD
ENDROOT
BRANCH   1  16
ATOM     13  C   UNL     1       5.254   4.433  15.614  0.00  0.00    +0.000 A 
ATOM     14  C   UNL     1       5.149   5.785  15.975  0.00  0.00    +0.000 A 
ATOM     15  C   UNL     1       4.426   6.189  17.108  0.00  0.00    +0.000 A 
ATOM     16  C   UNL     1       3.808   5.259  17.941  0.00  0.00    +0.000 A 
ATOM     17  C   UNL     1       3.956   3.899  17.607  0.00  0.00    +0.000 A 
ATOM     18  C   UNL     1       4.664   3.489  16.461  0.00  0.00    +0.000 A 
BRANCH  13  19
ATOM     19  C   UNL     1       5.928   4.066  14.298  0.00  0.00    +0.000 C 
ATOM     20  C   UNL     1       7.248   4.823  14.115  0.00  0.00    +0.000 C 
BRANCH  19  23
ATOM     21  C   UNL     1       5.079   3.442  12.058  0.00  0.00    +0.000 C 
ATOM     22  O   UNL     1       5.768   2.426  11.997  0.00  0.00    +0.000 OA
ATOM     23  N   UNL     1       5.056   4.271  13.156  0.00  0.00    +0.000 N 
ATOM     24  H   UNL     1       4.617   5.180  13.037  0.00  0.00    +0.000 HD
BRANCH  21  25
ATOM     25  C   UNL     1       4.258   3.898  10.861  0.00  0.00    +0.000 C 
BRANCH  25  26
ATOM     26  C   UNL     1       3.266   2.865  10.350  0.00  0.00    +0.000 C 
BRANCH  26  28
ATOM     27  C   UNL     1       2.535   4.776   9.161  0.00  0.00    +0.000 C 
ATOM     28  O   UNL     1       2.668   3.361   9.146  0.00  0.00    +0.000 OA
ENDBRANCH  26  28
ENDBRANCH  25  26
ENDBRANCH  21  25
ENDBRANCH  19  23
ENDBRANCH  13  19
ENDBRANCH   1  16
BRANCH   7  29
ATOM     29  C   UNL     1      -0.790  12.350  20.680  0.00  0.00    +0.000 A 
ATOM     30  C   UNL     1      -2.011  12.766  20.131  0.00  0.00    +0.000 A 
ATOM     31  C   UNL     1      -2.696  13.832  20.710  0.00  0.00    +0.000 A 
ATOM     32  N   UNL     1      -2.262  14.514  21.786  0.00  0.00    +0.000 NA
ATOM     33  C   UNL     1      -1.088  14.115  22.309  0.00  0.00    +0.000 A 
ATOM     34  C   UNL     1      -0.338  13.065  21.802  0.00  0.00    +0.000 A 
ENDBRANCH   7  29
TORSDOF 7
ENDMDL
MODEL 6
REMARK VINA RESULT:      -7.8      2.195      3.743
REMARK  Name = 
REMARK  9 active torsions:
REMARK  status: ('A' for Active; 'I' for Inactive)
REMARK    1  A    between atoms: C_1  and  O_2
REMARK    2  A    between atoms: O_2  and  C_3
REMARK    3  A    between atoms: C_3  and  C_4
REMARK    4  A    between atoms: C_4  and  C_5
REMARK    5  A    between atoms: N_7  and  C_8
REMARK    6  A    between atoms: C_8  and  C_9
REMARK    7  A    between atoms: C_8  and  C_10
REMARK    8  A    between atoms: C_13  and  N_14
REMARK    9  A    between atoms: C_20  and  C_21
REMARK                            x       y       z     vdW  Elec       q    Type
REMARK                         _______ _______ _______ _____ _____    ______ ____
ROOT
ATOM      1  N   UNL     1       1.278   7.556  21.442  0.00  0.00    +0.000 N 
ATOM      2  C   UNL     1       0.592   8.775  21.407  0.00  0.00    +0.000 A 
ATOM      3  N   UNL     1       0.476   9.359  22.610  0.00  0.00    +0.000 NA
ATOM      4  C   UNL     1      -0.187  10.528  22.666  0.00  0.00    +0.000 A 
ATOM      5  C   UNL     1      -0.775  11.147  21.579  0.00  0.00    +0.000 A 
ATOM      6  C   UNL     1      -1.471  12.373  21.677  0.00  0.00    +0.000 A 
ATOM      7  C   UNL     1      -2.137  12.949  20.583  0.00  0.00    +0.000 A 
ATOM      8  C   UNL     1      -2.029  12.250  19.374  0.00  0.00    +0.000 A 
ATOM      9  C   UNL     1      -1.297  11.038  19.280  0.00  0.00    +0.000 A 
ATOM     10  C   UNL     1      -0.650  10.459  20.376  0.00  0.00    +0.000 A 
ATOM     11  N   UNL     1       0.045   9.293  20.286  0.00  0.00    +0.000 NA
ATOM     12  H   UNL     1       1.490   7.339  22.406  0.00  0.00    +0.000 HD
ENDROOT
BRANCH   1  16
ATOM     13  C   UNL     1       2.811   4.930  18.462  0.00  0.00    +0.000 A 
ATOM     14  C   UNL     1       2.879   6.323  18.302  0.00  0.00    +0.000 A 
ATOM     15  C   UNL     1       2.397   7.200  19.286  0.00  0.00    +0.000 A 
ATOM     16  C   UNL     1       1.860   6.723  20.479  0.00  0.00    +0.000 A 
ATOM     17  C   UNL     1       1.840   5.327  20.662  0.00  0.00    +0.000 A 
ATOM     18  C   UNL     1       2.303   4.441  19.671  0.00  0.00    +0.000 A 
BRANCH  13  19
ATOM     19  C   UNL     1       3.216   4.029  17.302  0.00  0.00    +0.000 C 
ATOM     20  C   UNL     1       3.110   2.547  17.680  0.00  0.00    +0.000 C 
BRANCH  19  23
ATOM     21  C   UNL     1       5.661   4.275  17.602  0.00  0.00    +0.000 C 
ATOM     22  O   UNL     1       5.635   3.870  18.763  0.00  0.00    +0.000 OA
ATOM     23  N   UNL     1       4.543   4.338  16.802  0.00  0.00    +0.000 N 
ATOM     24  H   UNL     1       4.626   4.867  15.938  0.00  0.00    +0.000 HD
BRANCH  21  25
ATOM     25  C   UNL     1       6.946   4.821  16.997  0.00  0.00    +0.000 C 
BRANCH  25  26
ATOM     26  C   UNL     1       6.901   5.006  15.489  0.00  0.00    +0.000 C 
BRANCH  26  28
ATOM     27  C   UNL     1       6.279   3.904  13.490  0.00  0.00    +0.000 C 
ATOM     28  O   UNL     1       6.508   3.768  14.886  0.00  0.00    +0.000 OA
ENDBRANCH  26  28
ENDBRANCH  25  26
ENDBRANCH  21  25
ENDBRANCH  19  23
ENDBRANCH  13  19
ENDBRANCH   1  16
BRANCH   7  29
ATOM     29  C   UNL     1      -2.938  14.195  20.741  0.00  0.00    +0.000 A 
ATOM     30  C   UNL     1      -2.364  15.473  20.805  0.00  0.00    +0.000 A 
ATOM     31  C   UNL     1      -3.186  16.588  20.953  0.00  0.00    +0.000 A 
ATOM     32  N   UNL     1      -4.528  16.531  21.044  0.00  0.00    +0.000 NA
ATOM     33  C   UNL     1      -5.076  15.304  20.987  0.00  0.00    +0.000 A 
ATOM     34  C   UNL     1      -4.339  14.138  20.838  0.00  0.00    +0.000 A 
ENDBRANCH   7  29
TORSDOF 7
ENDMDL
MODEL 7
REMARK VINA RESULT:      -7.7      2.142      3.761
REMARK  Name = 
REMARK  9 active torsions:
REMARK  status: ('A' for Active; 'I' for Inactive)
REMARK    1  A    between atoms: C_1  and  O_2
REMARK    2  A    between atoms: O_2  and  C_3
REMARK    3  A    between atoms: C_3  and  C_4
REMARK    4  A    between atoms: C_4  and  C_5
REMARK    5  A    between atoms: N_7  and  C_8
REMARK    6  A    between atoms: C_8  and  C_9
REMARK    7  A    between atoms: C_8  and  C_10
REMARK    8  A    between atoms: C_13  and  N_14
REMARK    9  A    between atoms: C_20  and  C_21
REMARK                            x       y       z     vdW  Elec       q    Type
REMARK                         _______ _______ _______ _____ _____    ______ ____
ROOT
ATOM      1  N   UNL     1       1.455   7.461  21.311  0.00  0.00    +0.000 N 
ATOM      2  C   UNL     1       0.783   8.688  21.305  0.00  0.00    +0.000 A 
ATOM      3  N   UNL     1       0.859   9.345  22.473  0.00  0.00    +0.000 NA
ATOM      4  C   UNL     1       0.224  10.528  22.557  0.00  0.00    +0.000 A 
ATOM      5  C   UNL     1      -0.519  11.091  21.537  0.00  0.00    +0.000 A 
ATOM      6  C   UNL     1      -1.180  12.335  21.665  0.00  0.00    +0.000 A 
ATOM      7  C   UNL     1      -2.002  12.856  20.653  0.00  0.00    +0.000 A 
ATOM      8  C   UNL     1      -2.088  12.084  19.486  0.00  0.00    +0.000 A 
ATOM      9  C   UNL     1      -1.391  10.855  19.357  0.00  0.00    +0.000 A 
ATOM     10  C   UNL     1      -0.587  10.330  20.375  0.00  0.00    +0.000 A 
ATOM     11  N   UNL     1       0.074   9.148  20.252  0.00  0.00    +0.000 NA
ATOM     12  H   UNL     1       1.811   7.298  22.243  0.00  0.00    +0.000 HD
ENDROOT
BRANCH   1  16
ATOM     13  C   UNL     1       2.974   4.784  18.369  0.00  0.00    +0.000 A 
ATOM     14  C   UNL     1       2.261   4.308  19.480  0.00  0.00    +0.000 A 
ATOM     15  C   UNL     1       1.735   5.181  20.445  0.00  0.00    +0.000 A 
ATOM     16  C   UNL     1       1.873   6.561  20.324  0.00  0.00    +0.000 A 
ATOM     17  C   UNL     1       2.545   7.042  19.183  0.00  0.00    +0.000 A 
ATOM     18  C   UNL     1       3.091   6.171  18.221  0.00  0.00    +0.000 A 
BRANCH  13  19
ATOM     19  C   UNL     1       3.643   3.786  17.432  0.00  0.00    +0.000 C 
ATOM     20  C   UNL     1       3.546   2.357  17.976  0.00  0.00    +0.000 C 
BRANCH  19  23
ATOM     21  C   UNL     1       5.963   4.278  18.142  0.00  0.00    +0.000 C 
ATOM     22  O   UNL     1       5.732   4.035  19.325  0.00  0.00    +0.000 OA
ATOM     23  N   UNL     1       5.022   4.137  17.147  0.00  0.00    +0.000 N 
ATOM     24  H   UNL     1       5.242   4.548  16.244  0.00  0.00    +0.000 HD
BRANCH  21  25
ATOM     25  C   UNL     1       7.307   4.844  17.712  0.00  0.00    +0.000 C 
BRANCH  25  26
ATOM     26  C   UNL     1       7.281   5.591  16.388  0.00  0.00    +0.000 C 
BRANCH  26  28
ATOM     27  C   UNL     1       6.768   4.857  14.197  0.00  0.00    +0.000 C 
ATOM     28  O   UNL     1       7.599   4.672  15.336  0.00  0.00    +0.000 OA
ENDBRANCH  26  28
ENDBRANCH  25  26
ENDBRANCH  21  25
ENDBRANCH  19  23
ENDBRANCH  13  19
ENDBRANCH   1  16
BRANCH   7  29
ATOM     29  C   UNL     1      -2.757  14.124  20.854  0.00  0.00    +0.000 A 
ATOM     30  C   UNL     1      -4.154  14.206  20.767  0.00  0.00    +0.000 A 
ATOM     31  C   UNL     1      -4.783  15.433  20.970  0.00  0.00    +0.000 A 
ATOM     32  N   UNL     1      -4.134  16.578  21.249  0.00  0.00    +0.000 NA
ATOM     33  C   UNL     1      -2.793  16.498  21.328  0.00  0.00    +0.000 A 
ATOM     34  C   UNL     1      -2.081  15.322  21.144  0.00  0.00    +0.000 A 
ENDBRANCH   7  29
TORSDOF 7
ENDMDL
MODEL 8
REMARK VINA RESULT:      -7.7      2.624      4.195
REMARK  Name = 
REMARK  9 active torsions:
REMARK  status: ('A' for Active; 'I' for Inactive)
REMARK    1  A    between atoms: C_1  and  O_2
REMARK    2  A    between atoms: O_2  and  C_3
REMARK    3  A    between atoms: C_3  and  C_4
REMARK    4  A    between atoms: C_4  and  C_5
REMARK    5  A    between atoms: N_7  and  C_8
REMARK    6  A    between atoms: C_8  and  C_9
REMARK    7  A    between atoms: C_8  and  C_10
REMARK    8  A    between atoms: C_13  and  N_14
REMARK    9  A    between atoms: C_20  and  C_21
REMARK                            x       y       z     vdW  Elec       q    Type
REMARK                         _______ _______ _______ _____ _____    ______ ____
ROOT
ATOM      1  N   UNL     1       1.407   7.376  21.013  0.00  0.00    +0.000 N 
ATOM      2  C   UNL     1       1.053   8.724  20.892  0.00  0.00    +0.000 A 
ATOM      3  N   UNL     1       0.990   9.369  22.068  0.00  0.00    +0.000 NA
ATOM      4  C   UNL     1       0.638  10.666  22.042  0.00  0.00    +0.000 A 
ATOM      5  C   UNL     1       0.312  11.365  20.895  0.00  0.00    +0.000 A 
ATOM      6  C   UNL     1      -0.062  12.729  20.907  0.00  0.00    +0.000 A 
ATOM      7  C   UNL     1      -0.474  13.405  19.747  0.00  0.00    +0.000 A 
ATOM      8  C   UNL     1      -0.448  12.650  18.567  0.00  0.00    +0.000 A 
ATOM      9  C   UNL     1      -0.037  11.293  18.562  0.00  0.00    +0.000 A 
ATOM     10  C   UNL     1       0.356  10.618  19.722  0.00  0.00    +0.000 A 
ATOM     11  N   UNL     1       0.742   9.314  19.718  0.00  0.00    +0.000 NA
ATOM     12  H   UNL     1       1.481   7.154  21.996  0.00  0.00    +0.000 HD
ENDROOT
BRANCH   1  16
ATOM     13  C   UNL     1       2.959   4.451  18.336  0.00  0.00    +0.000 A 
ATOM     14  C   UNL     1       2.364   4.076  19.551  0.00  0.00    +0.000 A 
ATOM     15  C   UNL     1       1.828   5.028  20.433  0.00  0.00    +0.000 A 
ATOM     16  C   UNL     1       1.837   6.386  20.122  0.00  0.00    +0.000 A 
ATOM     17  C   UNL     1       2.388   6.757  18.881  0.00  0.00    +0.000 A 
ATOM     18  C   UNL     1       2.944   5.809  18.001  0.00  0.00    +0.000 A 
BRANCH  13  19
ATOM     19  C   UNL     1       3.649   3.390  17.489  0.00  0.00    +0.000 C 
ATOM     20  C   UNL     1       3.664   2.030  18.197  0.00  0.00    +0.000 C 
BRANCH  19  23
ATOM     21  C   UNL     1       5.954   4.116  18.025  0.00  0.00    +0.000 C 
ATOM     22  O   UNL     1       5.781   4.022  19.240  0.00  0.00    +0.000 OA
ATOM     23  N   UNL     1       4.991   3.782  17.101  0.00  0.00    +0.000 N 
ATOM     24  H   UNL     1       5.153   4.080  16.142  0.00  0.00    +0.000 HD
BRANCH  21  25
ATOM     25  C   UNL     1       7.242   4.700  17.466  0.00  0.00    +0.000 C 
BRANCH  25  26
ATOM     26  C   UNL     1       7.044   5.669  16.311  0.00  0.00    +0.000 C 
BRANCH  26  28
ATOM     27  C   UNL     1       6.878   4.894  14.082  0.00  0.00    +0.000 C 
ATOM     28  O   UNL     1       7.751   5.172  15.169  0.00  0.00    +0.000 OA
ENDBRANCH  26  28
ENDBRANCH  25  26
ENDBRANCH  21  25
ENDBRANCH  19  23
ENDBRANCH  13  19
ENDBRANCH   1  16
BRANCH   7  29
ATOM     29  C   UNL     1      -0.948  14.816  19.809  0.00  0.00    +0.000 A 
ATOM     30  C   UNL     1      -0.472  15.822  18.958  0.00  0.00    +0.000 A 
ATOM     31  C   UNL     1      -0.970  17.118  19.081  0.00  0.00    +0.000 A 
ATOM     32  N   UNL     1      -1.899  17.488  19.982  0.00  0.00    +0.000 NA
ATOM     33  C   UNL     1      -2.351  16.521  20.800  0.00  0.00    +0.000 A 
ATOM     34  C   UNL     1      -1.917  15.205  20.750  0.00  0.00    +0.000 A 
ENDBRANCH   7  29
TORSDOF 7
ENDMDL
MODEL 9
REMARK VINA RESULT:      -7.6      1.200      1.223
REMARK  Name = 
REMARK  9 active torsions:
REMARK  status: ('A' for Active; 'I' for Inactive)
REMARK    1  A    between atoms: C_1  and  O_2
REMARK    2  A    between atoms: O_2  and  C_3
REMARK    3  A    between atoms: C_3  and  C_4
REMARK    4  A    between atoms: C_4  and  C_5
REMARK    5  A    between atoms: N_7  and  C_8
REMARK    6  A    between atoms: C_8  and  C_9
REMARK    7  A    between atoms: C_8  and  C_10
REMARK    8  A    between atoms: C_13  and  N_14
REMARK    9  A    between atoms: C_20  and  C_21
REMARK                            x       y       z     vdW  Elec       q    Type
REMARK                         _______ _______ _______ _____ _____    ______ ____
ROOT
ATOM      1  N   UNL     1       2.309   9.544  17.787  0.00  0.00    +0.000 N 
ATOM      2  C   UNL     1       1.449  10.169  18.695  0.00  0.00    +0.000 A 
ATOM      3  N   UNL     1       1.001  11.363  18.275  0.00  0.00    +0.000 NA
ATOM      4  C   UNL     1       0.181  12.039  19.099  0.00  0.00    +0.000 A 
ATOM      5  C   UNL     1      -0.203  11.601  20.351  0.00  0.00    +0.000 A 
ATOM      6  C   UNL     1      -1.062  12.344  21.195  0.00  0.00    +0.000 A 
ATOM      7  C   UNL     1      -1.377  11.930  22.499  0.00  0.00    +0.000 A 
ATOM      8  C   UNL     1      -0.820  10.706  22.896  0.00  0.00    +0.000 A 
ATOM      9  C   UNL     1       0.012   9.953  22.028  0.00  0.00    +0.000 A 
ATOM     10  C   UNL     1       0.337  10.378  20.735  0.00  0.00    +0.000 A 
ATOM     11  N   UNL     1       1.141   9.658  19.906  0.00  0.00    +0.000 NA
ATOM     12  H   UNL     1       2.464  10.173  17.011  0.00  0.00    +0.000 HD
ENDROOT
BRANCH   1  16
ATOM     13  C   UNL     1       4.037   5.662  17.512  0.00  0.00    +0.000 A 
ATOM     14  C   UNL     1       2.750   5.845  18.042  0.00  0.00    +0.000 A 
ATOM     15  C   UNL     1       2.160   7.116  18.118  0.00  0.00    +0.000 A 
ATOM     16  C   UNL     1       2.816   8.247  17.640  0.00  0.00    +0.000 A 
ATOM     17  C   UNL     1       4.086   8.057  17.061  0.00  0.00    +0.000 A 
ATOM     18  C   UNL     1       4.692   6.788  16.999  0.00  0.00    +0.000 A 
BRANCH  13  19
ATOM     19  C   UNL     1       4.682   4.284  17.586  0.00  0.00    +0.000 C 
ATOM     20  C   UNL     1       5.349   3.905  16.260  0.00  0.00    +0.000 C 
BRANCH  19  23
ATOM     21  C   UNL     1       3.954   2.479  19.115  0.00  0.00    +0.000 C 
ATOM     22  O   UNL     1       4.898   2.648  19.885  0.00  0.00    +0.000 OA
ATOM     23  N   UNL     1       3.743   3.259  18.002  0.00  0.00    +0.000 N 
ATOM     24  H   UNL     1       3.062   2.921  17.326  0.00  0.00    +0.000 HD
BRANCH  21  25
ATOM     25  C   UNL     1       2.992   1.317  19.308  0.00  0.00    +0.000 C 
BRANCH  25  26
ATOM     26  C   UNL     1       1.527   1.718  19.376  0.00  0.00    +0.000 C 
BRANCH  26  28
ATOM     27  C   UNL     1       1.367   2.797  21.476  0.00  0.00    +0.000 C 
ATOM     28  O   UNL     1       1.426   2.969  20.066  0.00  0.00    +0.000 OA
ENDBRANCH  26  28
ENDBRANCH  25  26
ENDBRANCH  21  25
ENDBRANCH  19  23
ENDBRANCH  13  19
ENDBRANCH   1  16
BRANCH   7  29
ATOM     29  C   UNL     1      -2.211  12.780  23.394  0.00  0.00    +0.000 A 
ATOM     30  C   UNL     1      -1.791  14.029  23.874  0.00  0.00    +0.000 A 
ATOM     31  C   UNL     1      -2.634  14.762  24.708  0.00  0.00    +0.000 A 
ATOM     32  N   UNL     1      -3.854  14.350  25.100  0.00  0.00    +0.000 NA
ATOM     33  C   UNL     1      -4.252  13.150  24.641  0.00  0.00    +0.000 A 
ATOM     34  C   UNL     1      -3.484  12.351  23.807  0.00  0.00    +0.000 A 
ENDBRANCH   7  29
TORSDOF 7
ENDMDL
