MODEL 1
REMARK VINA RESULT:      -7.2      0.000      0.000
REMARK  Name = 
REMARK  4 active torsions:
REMARK  status: ('A' for Active; 'I' for Inactive)
REMARK    1  A    between atoms: C_1  and  C_2
REMARK    2  A    between atoms: C_2  and  C_3
REMARK    3  A    between atoms: C_7  and  C_8
REMARK    4  A    between atoms: N_10  and  C_11
REMARK                            x       y       z     vdW  Elec       q    Type
REMARK                         _______ _______ _______ _____ _____    ______ ____
ROOT
ATOM      1  C   UNL     1       2.155   6.815  19.876  0.00  0.00    +0.000 C 
ATOM      2  O   UNL     1       1.593   6.093  20.699  0.00  0.00    +0.000 OA
ATOM      3  N   UNL     1       1.925   8.181  19.777  0.00  0.00    +0.000 N 
ATOM      4  H   UNL     1       2.294   8.648  18.959  0.00  0.00    +0.000 HD
ENDROOT
BRANCH   1   9
ATOM      5  C   UNL     1       5.740   5.131  15.496  0.00  0.00    +0.000 A 
ATOM      6  C   UNL     1       5.148   6.310  15.943  0.00  0.00    +0.000 A 
ATOM      7  C   UNL     1       4.432   6.041  17.108  0.00  0.00    +0.000 A 
ATOM      8  C   UNL     1       3.658   6.908  17.867  0.00  0.00    +0.000 A 
ATOM      9  C   UNL     1       3.077   6.210  18.926  0.00  0.00    +0.000 A 
ATOM     10  S   UNL     1       3.568   4.548  18.944  0.00  0.00    +0.000 S 
ATOM     11  C   UNL     1       4.472   4.778  17.548  0.00  0.00    +0.000 A 
ATOM     12  S   UNL     1       5.407   3.796  16.569  0.00  0.00    +0.000 S 
BRANCH   5  14
ATOM     13  C   UNL     1       6.074   3.757  13.439  0.00  0.00    +0.000 C 
ATOM     14  C   UNL     1       6.563   4.941  14.260  0.00  0.00    +0.000 C 
ENDBRANCH   5  14
ENDBRANCH   1   9
BRANCH   3  15
ATOM     15  C   UNL     1       1.048   8.909  20.619  0.00  0.00    +0.000 A 
ATOM     16  C   UNL     1       0.116   9.831  20.121  0.00  0.00    +0.000 A 
ATOM     17  C   UNL     1      -0.656  10.613  20.979  0.00  0.00    +0.000 A 
ATOM     18  C   UNL     1      -0.516  10.459  22.346  0.00  0.00    +0.000 A 
ATOM     19  F   UNL     1      -1.230  11.233  23.174  0.00  0.00    +0.000 F 
ATOM     20  C   UNL     1       0.359   9.510  22.867  0.00  0.00    +0.000 A 
ATOM     21  C   UNL     1       1.130   8.723  22.005  0.00  0.00    +0.000 A 
ENDBRANCH   3  15
TORSDOF 3
ENDMDL
MODEL 2
REMARK VINA RESULT:      -7.2      0.160      1.089
REMARK  Name = 
REMARK  4 active torsions:
REMARK  status: ('A' for Active; 'I' for Inactive)
REMARK    1  A    between atoms: C_1  and  C_2
REMARK    2  A    between atoms: C_2  and  C_3
REMARK    3  A    between atoms: C_7  and  C_8
REMARK    4  A    between atoms: N_10  and  C_11
REMARK                            x       y       z     vdW  Elec       q    Type
REMARK                         _______ _______ _______ _____ _____    ______ ____
ROOT
ATOM      1  C   UNL     1       2.153   6.844  19.905  0.00  0.00    +0.000 C 
ATOM      2  O   UNL     1       1.586   6.135  20.736  0.00  0.00    +0.000 OA
ATOM      3  N   UNL     1       1.969   8.218  19.824  0.00  0.00    +0.000 N 
ATOM      4  H   UNL     1       2.336   8.680  19.001  0.00  0.00    +0.000 HD
ENDROOT
BRANCH   1   9
ATOM      5  C   UNL     1       5.635   5.108  15.464  0.00  0.00    +0.000 A 
ATOM      6  C   UNL     1       5.146   6.307  15.977  0.00  0.00    +0.000 A 
ATOM      7  C   UNL     1       4.391   6.034  17.116  0.00  0.00    +0.000 A 
ATOM      8  C   UNL     1       3.688   6.920  17.920  0.00  0.00    +0.000 A 
ATOM      9  C   UNL     1       3.031   6.216  18.928  0.00  0.00    +0.000 A 
ATOM     10  S   UNL     1       3.369   4.518  18.849  0.00  0.00    +0.000 S 
ATOM     11  C   UNL     1       4.310   4.748  17.478  0.00  0.00    +0.000 A 
ATOM     12  S   UNL     1       5.167   3.746  16.450  0.00  0.00    +0.000 S 
BRANCH   5  14
ATOM     13  C   UNL     1       5.945   3.755  13.388  0.00  0.00    +0.000 C 
ATOM     14  C   UNL     1       6.456   4.918  14.226  0.00  0.00    +0.000 C 
ENDBRANCH   5  14
ENDBRANCH   1   9
BRANCH   3  15
ATOM     15  C   UNL     1       1.139   8.969  20.692  0.00  0.00    +0.000 A 
ATOM     16  C   UNL     1       1.187   8.836  22.087  0.00  0.00    +0.000 A 
ATOM     17  C   UNL     1       0.282   9.507  22.909  0.00  0.00    +0.000 A 
ATOM     18  C   UNL     1      -0.666  10.335  22.338  0.00  0.00    +0.000 A 
ATOM     19  F   UNL     1      -1.559  10.954  23.121  0.00  0.00    +0.000 F 
ATOM     20  C   UNL     1      -0.700  10.531  20.961  0.00  0.00    +0.000 A 
ATOM     21  C   UNL     1       0.212   9.861  20.137  0.00  0.00    +0.000 A 
ENDBRANCH   3  15
TORSDOF 3
ENDMDL
MODEL 3
REMARK VINA RESULT:      -7.1      1.378      1.431
REMARK  Name = 
REMARK  4 active torsions:
REMARK  status: ('A' for Active; 'I' for Inactive)
REMARK    1  A    between atoms: C_1  and  C_2
REMARK    2  A    between atoms: C_2  and  C_3
REMARK    3  A    between atoms: C_7  and  C_8
REMARK    4  A    between atoms: N_10  and  C_11
REMARK                            x       y       z     vdW  Elec       q    Type
REMARK                         _______ _______ _______ _____ _____    ______ ____
ROOT
ATOM      1  C   UNL     1       1.676   8.453  19.154  0.00  0.00    +0.000 C 
ATOM      2  O   UNL     1       1.148   9.241  18.370  0.00  0.00    +0.000 OA
ATOM      3  N   UNL     1       1.507   8.520  20.531  0.00  0.00    +0.000 N 
ATOM      4  H   UNL     1       2.121   7.945  21.095  0.00  0.00    +0.000 HD
ENDROOT
BRANCH   1   9
ATOM      5  C   UNL     1       5.402   4.870  16.301  0.00  0.00    +0.000 A 
ATOM      6  C   UNL     1       5.082   6.225  16.306  0.00  0.00    +0.000 A 
ATOM      7  C   UNL     1       4.121   6.456  17.287  0.00  0.00    +0.000 A 
ATOM      8  C   UNL     1       3.487   7.648  17.613  0.00  0.00    +0.000 A 
ATOM      9  C   UNL     1       2.556   7.421  18.626  0.00  0.00    +0.000 A 
ATOM     10  S   UNL     1       2.565   5.767  19.145  0.00  0.00    +0.000 S 
ATOM     11  C   UNL     1       3.735   5.393  18.001  0.00  0.00    +0.000 A 
ATOM     12  S   UNL     1       4.529   3.997  17.535  0.00  0.00    +0.000 S 
BRANCH   5  14
ATOM     13  C   UNL     1       5.797   4.064  13.971  0.00  0.00    +0.000 C 
ATOM     14  C   UNL     1       6.353   4.165  15.384  0.00  0.00    +0.000 C 
ENDBRANCH   5  14
ENDBRANCH   1   9
BRANCH   3  15
ATOM     15  C   UNL     1       0.696   9.473  21.195  0.00  0.00    +0.000 A 
ATOM     16  C   UNL     1       0.629  10.816  20.797  0.00  0.00    +0.000 A 
ATOM     17  C   UNL     1      -0.092  11.754  21.536  0.00  0.00    +0.000 A 
ATOM     18  C   UNL     1      -0.771  11.346  22.669  0.00  0.00    +0.000 A 
ATOM     19  F   UNL     1      -1.435  12.250  23.401  0.00  0.00    +0.000 F 
ATOM     20  C   UNL     1      -0.769  10.008  23.054  0.00  0.00    +0.000 A 
ATOM     21  C   UNL     1      -0.049   9.067  22.310  0.00  0.00    +0.000 A 
ENDBRANCH   3  15
TORSDOF 3
ENDMDL
MODEL 4
REMARK VINA RESULT:      -7.1      4.458      8.456
REMARK  Name = 
REMARK  4 active torsions:
REMARK  status: ('A' for Active; 'I' for Inactive)
REMARK    1  A    between atoms: C_1  and  C_2
REMARK    2  A    between atoms: C_2  and  C_3
REMARK    3  A    between atoms: C_7  and  C_8
REMARK    4  A    between atoms: N_10  and  C_11
REMARK                            x       y       z     vdW  Elec       q    Type
REMARK                         _______ _______ _______ _____ _____    ______ ____
ROOT
ATOM      1  C   UNL     1       2.359   6.908  19.167  0.00  0.00    +0.000 C 
ATOM      2  O   UNL     1       3.231   7.084  18.316  0.00  0.00    +0.000 OA
ATOM      3  N   UNL     1       1.955   5.650  19.593  0.00  0.00    +0.000 N 
ATOM      4  H   UNL     1       1.114   5.607  20.156  0.00  0.00    +0.000 HD
ENDROOT
BRANCH   1   9
ATOM      5  C   UNL     1      -0.631  11.030  22.154  0.00  0.00    +0.000 A 
ATOM      6  C   UNL     1      -0.066   9.783  22.411  0.00  0.00    +0.000 A 
ATOM      7  C   UNL     1       0.573   9.334  21.258  0.00  0.00    +0.000 A 
ATOM      8  C   UNL     1       1.231   8.129  21.047  0.00  0.00    +0.000 A 
ATOM      9  C   UNL     1       1.683   8.067  19.730  0.00  0.00    +0.000 A 
ATOM     10  S   UNL     1       1.315   9.519  18.857  0.00  0.00    +0.000 S 
ATOM     11  C   UNL     1       0.534  10.153  20.201  0.00  0.00    +0.000 A 
ATOM     12  S   UNL     1      -0.292  11.570  20.530  0.00  0.00    +0.000 S 
BRANCH   5  14
ATOM     13  C   UNL     1      -1.104  13.343  22.968  0.00  0.00    +0.000 C 
ATOM     14  C   UNL     1      -1.449  11.866  23.090  0.00  0.00    +0.000 C 
ENDBRANCH   5  14
ENDBRANCH   1   9
BRANCH   3  15
ATOM     15  C   UNL     1       2.506   4.430  19.129  0.00  0.00    +0.000 A 
ATOM     16  C   UNL     1       1.982   3.733  18.031  0.00  0.00    +0.000 A 
ATOM     17  C   UNL     1       2.476   2.481  17.667  0.00  0.00    +0.000 A 
ATOM     18  C   UNL     1       3.517   1.928  18.389  0.00  0.00    +0.000 A 
ATOM     19  F   UNL     1       3.971   0.710  18.064  0.00  0.00    +0.000 F 
ATOM     20  C   UNL     1       4.095   2.623  19.447  0.00  0.00    +0.000 A 
ATOM     21  C   UNL     1       3.601   3.881  19.809  0.00  0.00    +0.000 A 
ENDBRANCH   3  15
TORSDOF 3
ENDMDL
MODEL 5
REMARK VINA RESULT:      -7.0      3.898      8.655
REMARK  Name = 
REMARK  4 active torsions:
REMARK  status: ('A' for Active; 'I' for Inactive)
REMARK    1  A    between atoms: C_1  and  C_2
REMARK    2  A    between atoms: C_2  and  C_3
REMARK    3  A    between atoms: C_7  and  C_8
REMARK    4  A    between atoms: N_10  and  C_11
REMARK                            x       y       z     vdW  Elec       q    Type
REMARK                         _______ _______ _______ _____ _____    ______ ____
ROOT
ATOM      1  C   UNL     1       2.216   8.105  18.475  0.00  0.00    +0.000 C 
ATOM      2  O   UNL     1       2.240   8.626  17.360  0.00  0.00    +0.000 OA
ATOM      3  N   UNL     1       2.854   6.907  18.770  0.00  0.00    +0.000 N 
ATOM      4  H   UNL     1       2.627   6.475  19.656  0.00  0.00    +0.000 HD
ENDROOT
BRANCH   1   9
ATOM      5  C   UNL     1      -0.821  11.487  22.243  0.00  0.00    +0.000 A 
ATOM      6  C   UNL     1      -0.437  11.530  20.905  0.00  0.00    +0.000 A 
ATOM      7  C   UNL     1       0.242  10.354  20.595  0.00  0.00    +0.000 A 
ATOM      8  C   UNL     1       0.835   9.989  19.393  0.00  0.00    +0.000 A 
ATOM      9  C   UNL     1       1.450   8.746  19.534  0.00  0.00    +0.000 A 
ATOM     10  S   UNL     1       1.210   8.088  21.119  0.00  0.00    +0.000 S 
ATOM     11  C   UNL     1       0.364   9.462  21.584  0.00  0.00    +0.000 A 
ATOM     12  S   UNL     1      -0.357   9.984  22.999  0.00  0.00    +0.000 S 
BRANCH   5  14
ATOM     13  C   UNL     1      -2.958  12.138  23.358  0.00  0.00    +0.000 C 
ATOM     14  C   UNL     1      -1.534  12.552  23.017  0.00  0.00    +0.000 C 
ENDBRANCH   5  14
ENDBRANCH   1   9
BRANCH   3  15
ATOM     15  C   UNL     1       3.624   6.160  17.845  0.00  0.00    +0.000 A 
ATOM     16  C   UNL     1       3.351   4.818  17.544  0.00  0.00    +0.000 A 
ATOM     17  C   UNL     1       4.192   4.077  16.715  0.00  0.00    +0.000 A 
ATOM     18  C   UNL     1       5.304   4.684  16.161  0.00  0.00    +0.000 A 
ATOM     19  F   UNL     1       6.133   3.966  15.393  0.00  0.00    +0.000 F 
ATOM     20  C   UNL     1       5.567   6.030  16.396  0.00  0.00    +0.000 A 
ATOM     21  C   UNL     1       4.720   6.774  17.225  0.00  0.00    +0.000 A 
ENDBRANCH   3  15
TORSDOF 3
ENDMDL
MODEL 6
REMARK VINA RESULT:      -7.0      4.516      8.506
REMARK  Name = 
REMARK  4 active torsions:
REMARK  status: ('A' for Active; 'I' for Inactive)
REMARK    1  A    between atoms: C_1  and  C_2
REMARK    2  A    between atoms: C_2  and  C_3
REMARK    3  A    between atoms: C_7  and  C_8
REMARK    4  A    between atoms: N_10  and  C_11
REMARK                            x       y       z     vdW  Elec       q    Type
REMARK                         _______ _______ _______ _____ _____    ______ ____
ROOT
ATOM      1  C   UNL     1       2.302   6.755  19.429  0.00  0.00    +0.000 C 
ATOM      2  O   UNL     1       3.200   6.865  18.594  0.00  0.00    +0.000 OA
ATOM      3  N   UNL     1       1.835   5.531  19.888  0.00  0.00    +0.000 N 
ATOM      4  H   UNL     1       0.981   5.542  20.432  0.00  0.00    +0.000 HD
ENDROOT
BRANCH   1   9
ATOM      5  C   UNL     1      -0.589  11.098  22.194  0.00  0.00    +0.000 A 
ATOM      6  C   UNL     1      -0.090   9.835  22.506  0.00  0.00    +0.000 A 
ATOM      7  C   UNL     1       0.564   9.322  21.388  0.00  0.00    +0.000 A 
ATOM      8  C   UNL     1       1.172   8.083  21.235  0.00  0.00    +0.000 A 
ATOM      9  C   UNL     1       1.662   7.961  19.935  0.00  0.00    +0.000 A 
ATOM     10  S   UNL     1       1.388   9.399  19.009  0.00  0.00    +0.000 S 
ATOM     11  C   UNL     1       0.596  10.110  20.307  0.00  0.00    +0.000 A 
ATOM     12  S   UNL     1      -0.174  11.572  20.567  0.00  0.00    +0.000 S 
BRANCH   5  14
ATOM     13  C   UNL     1      -1.001  13.457  22.901  0.00  0.00    +0.000 C 
ATOM     14  C   UNL     1      -1.396  11.998  23.078  0.00  0.00    +0.000 C 
ENDBRANCH   5  14
ENDBRANCH   1   9
BRANCH   3  15
ATOM     15  C   UNL     1       2.345   4.273  19.481  0.00  0.00    +0.000 A 
ATOM     16  C   UNL     1       3.447   3.668  20.100  0.00  0.00    +0.000 A 
ATOM     17  C   UNL     1       3.994   2.484  19.607  0.00  0.00    +0.000 A 
ATOM     18  C   UNL     1       3.424   1.884  18.499  0.00  0.00    +0.000 A 
ATOM     19  F   UNL     1       3.967   0.767  18.001  0.00  0.00    +0.000 F 
ATOM     20  C   UNL     1       2.293   2.432  17.900  0.00  0.00    +0.000 A 
ATOM     21  C   UNL     1       1.743   3.618  18.398  0.00  0.00    +0.000 A 
ENDBRANCH   3  15
TORSDOF 3
ENDMDL
MODEL 7
REMARK VINA RESULT:      -6.9      3.892      8.618
REMARK  Name = 
REMARK  4 active torsions:
REMARK  status: ('A' for Active; 'I' for Inactive)
REMARK    1  A    between atoms: C_1  and  C_2
REMARK    2  A    between atoms: C_2  and  C_3
REMARK    3  A    between atoms: C_7  and  C_8
REMARK    4  A    between atoms: N_10  and  C_11
REMARK                            x       y       z     vdW  Elec       q    Type
REMARK                         _______ _______ _______ _____ _____    ______ ____
ROOT
ATOM      1  C   UNL     1       2.223   8.098  18.493  0.00  0.00    +0.000 C 
ATOM      2  O   UNL     1       2.263   8.635  17.386  0.00  0.00    +0.000 OA
ATOM      3  N   UNL     1       2.881   6.912  18.789  0.00  0.00    +0.000 N 
ATOM      4  H   UNL     1       2.641   6.461  19.663  0.00  0.00    +0.000 HD
ENDROOT
BRANCH   1   9
ATOM      5  C   UNL     1      -1.064  11.330  22.183  0.00  0.00    +0.000 A 
ATOM      6  C   UNL     1      -0.699  11.359  20.839  0.00  0.00    +0.000 A 
ATOM      7  C   UNL     1       0.079  10.238  20.560  0.00  0.00    +0.000 A 
ATOM      8  C   UNL     1       0.689   9.884  19.363  0.00  0.00    +0.000 A 
ATOM      9  C   UNL     1       1.413   8.706  19.539  0.00  0.00    +0.000 A 
ATOM     10  S   UNL     1       1.249   8.086  21.149  0.00  0.00    +0.000 S 
ATOM     11  C   UNL     1       0.290   9.395  21.577  0.00  0.00    +0.000 A 
ATOM     12  S   UNL     1      -0.461   9.902  22.984  0.00  0.00    +0.000 S 
BRANCH   5  14
ATOM     13  C   UNL     1      -1.070  13.637  23.136  0.00  0.00    +0.000 C 
ATOM     14  C   UNL     1      -1.861  12.354  22.929  0.00  0.00    +0.000 C 
ENDBRANCH   5  14
ENDBRANCH   1   9
BRANCH   3  15
ATOM     15  C   UNL     1       3.693   6.195  17.875  0.00  0.00    +0.000 A 
ATOM     16  C   UNL     1       4.742   6.796  17.165  0.00  0.00    +0.000 A 
ATOM     17  C   UNL     1       5.453   6.094  16.192  0.00  0.00    +0.000 A 
ATOM     18  C   UNL     1       5.131   4.773  15.940  0.00  0.00    +0.000 A 
ATOM     19  F   UNL     1       5.786   4.105  14.982  0.00  0.00    +0.000 F 
ATOM     20  C   UNL     1       4.133   4.134  16.671  0.00  0.00    +0.000 A 
ATOM     21  C   UNL     1       3.424   4.839  17.650  0.00  0.00    +0.000 A 
ENDBRANCH   3  15
TORSDOF 3
ENDMDL
MODEL 8
REMARK VINA RESULT:      -6.9      1.964      2.225
REMARK  Name = 
REMARK  4 active torsions:
REMARK  status: ('A' for Active; 'I' for Inactive)
REMARK    1  A    between atoms: C_1  and  C_2
REMARK    2  A    between atoms: C_2  and  C_3
REMARK    3  A    between atoms: C_7  and  C_8
REMARK    4  A    between atoms: N_10  and  C_11
REMARK                            x       y       z     vdW  Elec       q    Type
REMARK                         _______ _______ _______ _____ _____    ______ ____
ROOT
ATOM      1  C   UNL     1       1.938   8.241  19.024  0.00  0.00    +0.000 C 
ATOM      2  O   UNL     1       1.652   8.137  20.217  0.00  0.00    +0.000 OA
ATOM      3  N   UNL     1       1.460   9.261  18.213  0.00  0.00    +0.000 N 
ATOM      4  H   UNL     1       1.603   9.158  17.216  0.00  0.00    +0.000 HD
ENDROOT
BRANCH   1   9
ATOM      5  C   UNL     1       5.592   4.794  15.922  0.00  0.00    +0.000 A 
ATOM      6  C   UNL     1       5.349   6.157  16.076  0.00  0.00    +0.000 A 
ATOM      7  C   UNL     1       4.355   6.330  17.036  0.00  0.00    +0.000 A 
ATOM      8  C   UNL     1       3.774   7.513  17.476  0.00  0.00    +0.000 A 
ATOM      9  C   UNL     1       2.783   7.226  18.414  0.00  0.00    +0.000 A 
ATOM     10  S   UNL     1       2.673   5.525  18.729  0.00  0.00    +0.000 S 
ATOM     11  C   UNL     1       3.875   5.216  17.600  0.00  0.00    +0.000 A 
ATOM     12  S   UNL     1       4.612   3.838  17.003  0.00  0.00    +0.000 S 
BRANCH   5  14
ATOM     13  C   UNL     1       5.911   3.928  13.602  0.00  0.00    +0.000 C 
ATOM     14  C   UNL     1       6.546   4.144  14.968  0.00  0.00    +0.000 C 
ENDBRANCH   5  14
ENDBRANCH   1   9
BRANCH   3  15
ATOM     15  C   UNL     1       0.619  10.312  18.656  0.00  0.00    +0.000 A 
ATOM     16  C   UNL     1       1.086  11.371  19.447  0.00  0.00    +0.000 A 
ATOM     17  C   UNL     1       0.214  12.331  19.960  0.00  0.00    +0.000 A 
ATOM     18  C   UNL     1      -1.134  12.248  19.663  0.00  0.00    +0.000 A 
ATOM     19  F   UNL     1      -1.981  13.146  20.182  0.00  0.00    +0.000 F 
ATOM     20  C   UNL     1      -1.617  11.240  18.833  0.00  0.00    +0.000 A 
ATOM     21  C   UNL     1      -0.740  10.280  18.316  0.00  0.00    +0.000 A 
ENDBRANCH   3  15
TORSDOF 3
ENDMDL
MODEL 9
REMARK VINA RESULT:      -6.9      3.880      8.596
REMARK  Name = 
REMARK  4 active torsions:
REMARK  status: ('A' for Active; 'I' for Inactive)
REMARK    1  A    between atoms: C_1  and  C_2
REMARK    2  A    between atoms: C_2  and  C_3
REMARK    3  A    between atoms: C_7  and  C_8
REMARK    4  A    between atoms: N_10  and  C_11
REMARK                            x       y       z     vdW  Elec       q    Type
REMARK                         _______ _______ _______ _____ _____    ______ ____
ROOT
ATOM      1  C   UNL     1       2.615   6.898  19.243  0.00  0.00    +0.000 C 
ATOM      2  O   UNL     1       2.747   5.862  19.894  0.00  0.00    +0.000 OA
ATOM      3  N   UNL     1       3.213   7.103  18.007  0.00  0.00    +0.000 N 
ATOM      4  H   UNL     1       3.192   8.046  17.640  0.00  0.00    +0.000 HD
ENDROOT
BRANCH   1   9
ATOM      5  C   UNL     1      -0.754  10.711  22.239  0.00  0.00    +0.000 A 
ATOM      6  C   UNL     1      -0.056   9.534  22.498  0.00  0.00    +0.000 A 
ATOM      7  C   UNL     1       0.610   9.142  21.339  0.00  0.00    +0.000 A 
ATOM      8  C   UNL     1       1.390   8.012  21.130  0.00  0.00    +0.000 A 
ATOM      9  C   UNL     1       1.827   7.985  19.806  0.00  0.00    +0.000 A 
ATOM     10  S   UNL     1       1.294   9.380  18.926  0.00  0.00    +0.000 S 
ATOM     11  C   UNL     1       0.469   9.942  20.276  0.00  0.00    +0.000 A 
ATOM     12  S   UNL     1      -0.497  11.267  20.605  0.00  0.00    +0.000 S 
BRANCH   5  14
ATOM     13  C   UNL     1      -1.397  12.965  23.099  0.00  0.00    +0.000 C 
ATOM     14  C   UNL     1      -1.642  11.465  23.179  0.00  0.00    +0.000 C 
ENDBRANCH   5  14
ENDBRANCH   1   9
BRANCH   3  15
ATOM     15  C   UNL     1       4.018   6.149  17.337  0.00  0.00    +0.000 A 
ATOM     16  C   UNL     1       5.124   6.509  16.555  0.00  0.00    +0.000 A 
ATOM     17  C   UNL     1       5.830   5.558  15.819  0.00  0.00    +0.000 A 
ATOM     18  C   UNL     1       5.444   4.231  15.880  0.00  0.00    +0.000 A 
ATOM     19  F   UNL     1       6.097   3.320  15.147  0.00  0.00    +0.000 F 
ATOM     20  C   UNL     1       4.386   3.837  16.693  0.00  0.00    +0.000 A 
ATOM     21  C   UNL     1       3.681   4.792  17.435  0.00  0.00    +0.000 A 
ENDBRANCH   3  15
TORSDOF 3
ENDMDL
