MODEL 1
REMARK VINA RESULT:      -5.5      0.000      0.000
REMARK  Name = 
REMARK  8 active torsions:
REMARK  status: ('A' for Active; 'I' for Inactive)
REMARK    1  A    between atoms: C_1  and  C_2
REMARK    2  A    between atoms: C_2  and  N_3
REMARK    3  A    between atoms: N_3  and  C_4
REMARK    4  A    between atoms: N_3  and  C_6
REMARK    5  A    between atoms: C_4  and  C_5
REMARK    6  A    between atoms: C_6  and  C_7
REMARK    7  A    between atoms: C_7  and  O_8
REMARK    8  A    between atoms: O_8  and  C_9
REMARK                            x       y       z     vdW  Elec       q    Type
REMARK                         _______ _______ _______ _____ _____    ______ ____
ROOT
ATOM      1  O   UNL     1       5.327   4.125  16.875  0.00  0.00    +0.000 OA
ENDROOT
BRANCH   1   2
ATOM      2  C   UNL     1       6.132   5.129  17.354  0.00  0.00    +0.000 A 
ATOM      3  C   UNL     1       7.044   4.963  18.404  0.00  0.00    +0.000 A 
ATOM      4  C   UNL     1       7.848   6.029  18.823  0.00  0.00    +0.000 A 
ATOM      5  C   UNL     1       7.746   7.265  18.187  0.00  0.00    +0.000 A 
ATOM      6 CL   UNL     1       8.733   8.572  18.714  0.00  0.00    +0.000 Cl
ATOM      7  C   UNL     1       6.859   7.445  17.133  0.00  0.00    +0.000 A 
ATOM      8  C   UNL     1       6.059   6.376  16.713  0.00  0.00    +0.000 A 
ATOM      9 CL   UNL     1       4.973   6.649  15.394  0.00  0.00    +0.000 Cl
ENDBRANCH   1   2
BRANCH   1  10
ATOM     10  C   UNL     1       4.389   3.565  17.801  0.00  0.00    +0.000 C 
BRANCH  10  11
ATOM     11  C   UNL     1       2.969   3.747  17.242  0.00  0.00    +0.000 C 
BRANCH  11  12
ATOM     12  N   UNL     1       2.041   4.508  18.107  0.00  0.00    +0.000 NA
BRANCH  12  14
ATOM     13  C   UNL     1       1.052   4.020  20.382  0.00  0.00    +0.000 C 
ATOM     14  C   UNL     1       1.274   3.564  18.942  0.00  0.00    +0.000 C 
ENDBRANCH  12  14
BRANCH  12  15
ATOM     15  C   UNL     1       2.679   5.593  18.869  0.00  0.00    +0.000 C 
ATOM     16  C   UNL     1       2.683   6.969  18.211  0.00  0.00    +0.000 C 
ENDBRANCH  12  15
ENDBRANCH  11  12
ENDBRANCH  10  11
ENDBRANCH   1  10
TORSDOF 6
ENDMDL
MODEL 2
REMARK VINA RESULT:      -5.5      2.443      3.592
REMARK  Name = 
REMARK  8 active torsions:
REMARK  status: ('A' for Active; 'I' for Inactive)
REMARK    1  A    between atoms: C_1  and  C_2
REMARK    2  A    between atoms: C_2  and  N_3
REMARK    3  A    between atoms: N_3  and  C_4
REMARK    4  A    between atoms: N_3  and  C_6
REMARK    5  A    between atoms: C_4  and  C_5
REMARK    6  A    between atoms: C_6  and  C_7
REMARK    7  A    between atoms: C_7  and  O_8
REMARK    8  A    between atoms: O_8  and  C_9
REMARK                            x       y       z     vdW  Elec       q    Type
REMARK                         _______ _______ _______ _____ _____    ______ ____
ROOT
ATOM      1  O   UNL     1       5.032   4.532  19.468  0.00  0.00    +0.000 OA
ENDROOT
BRANCH   1   2
ATOM      2  C   UNL     1       4.188   5.555  19.111  0.00  0.00    +0.000 A 
ATOM      3  C   UNL     1       3.114   5.989  19.898  0.00  0.00    +0.000 A 
ATOM      4  C   UNL     1       2.311   7.055  19.478  0.00  0.00    +0.000 A 
ATOM      5  C   UNL     1       2.585   7.695  18.272  0.00  0.00    +0.000 A 
ATOM      6 CL   UNL     1       1.587   9.001  17.760  0.00  0.00    +0.000 Cl
ATOM      7  C   UNL     1       3.656   7.290  17.485  0.00  0.00    +0.000 A 
ATOM      8  C   UNL     1       4.460   6.227  17.909  0.00  0.00    +0.000 A 
ATOM      9 CL   UNL     1       5.784   5.762  16.897  0.00  0.00    +0.000 Cl
ENDBRANCH   1   2
BRANCH   1  10
ATOM     10  C   UNL     1       4.727   3.239  18.931  0.00  0.00    +0.000 C 
BRANCH  10  11
ATOM     11  C   UNL     1       3.742   2.529  19.872  0.00  0.00    +0.000 C 
BRANCH  11  12
ATOM     12  N   UNL     1       2.419   2.217  19.286  0.00  0.00    +0.000 NA
BRANCH  12  14
ATOM     13  C   UNL     1       1.789   2.933  21.627  0.00  0.00    +0.000 C 
ATOM     14  C   UNL     1       1.362   2.733  20.176  0.00  0.00    +0.000 C 
ENDBRANCH  12  14
BRANCH  12  15
ATOM     15  C   UNL     1       2.269   2.631  17.882  0.00  0.00    +0.000 C 
ATOM     16  C   UNL     1       1.393   3.853  17.627  0.00  0.00    +0.000 C 
ENDBRANCH  12  15
ENDBRANCH  11  12
ENDBRANCH  10  11
ENDBRANCH   1  10
TORSDOF 6
ENDMDL
MODEL 3
REMARK VINA RESULT:      -5.5      1.963      3.387
REMARK  Name = 
REMARK  8 active torsions:
REMARK  status: ('A' for Active; 'I' for Inactive)
REMARK    1  A    between atoms: C_1  and  C_2
REMARK    2  A    between atoms: C_2  and  N_3
REMARK    3  A    between atoms: N_3  and  C_4
REMARK    4  A    between atoms: N_3  and  C_6
REMARK    5  A    between atoms: C_4  and  C_5
REMARK    6  A    between atoms: C_6  and  C_7
REMARK    7  A    between atoms: C_7  and  O_8
REMARK    8  A    between atoms: O_8  and  C_9
REMARK                            x       y       z     vdW  Elec       q    Type
REMARK                         _______ _______ _______ _____ _____    ______ ____
ROOT
ATOM      1  O   UNL     1       5.311   4.074  19.172  0.00  0.00    +0.000 OA
ENDROOT
BRANCH   1   2
ATOM      2  C   UNL     1       5.739   4.262  17.881  0.00  0.00    +0.000 A 
ATOM      3  C   UNL     1       5.047   3.799  16.755  0.00  0.00    +0.000 A 
ATOM      4  C   UNL     1       5.534   4.050  15.467  0.00  0.00    +0.000 A 
ATOM      5  C   UNL     1       6.714   4.773  15.303  0.00  0.00    +0.000 A 
ATOM      6 CL   UNL     1       7.310   5.071  13.715  0.00  0.00    +0.000 Cl
ATOM      7  C   UNL     1       7.406   5.255  16.406  0.00  0.00    +0.000 A 
ATOM      8  C   UNL     1       6.915   5.007  17.692  0.00  0.00    +0.000 A 
ATOM      9 CL   UNL     1       7.810   5.631  19.034  0.00  0.00    +0.000 Cl
ENDBRANCH   1   2
BRANCH   1  10
ATOM     10  C   UNL     1       4.701   2.810  19.462  0.00  0.00    +0.000 C 
BRANCH  10  11
ATOM     11  C   UNL     1       3.175   2.988  19.484  0.00  0.00    +0.000 C 
BRANCH  11  12
ATOM     12  N   UNL     1       2.697   4.286  20.012  0.00  0.00    +0.000 NA
BRANCH  12  14
ATOM     13  C   UNL     1       1.534   4.201  17.768  0.00  0.00    +0.000 C 
ATOM     14  C   UNL     1       2.067   5.050  18.919  0.00  0.00    +0.000 C 
ENDBRANCH  12  14
BRANCH  12  15
ATOM     15  C   UNL     1       1.862   4.175  21.218  0.00  0.00    +0.000 C 
ATOM     16  C   UNL     1       1.413   2.769  21.604  0.00  0.00    +0.000 C 
ENDBRANCH  12  15
ENDBRANCH  11  12
ENDBRANCH  10  11
ENDBRANCH   1  10
TORSDOF 6
ENDMDL
MODEL 4
REMARK VINA RESULT:      -5.4      2.986      5.715
REMARK  Name = 
REMARK  8 active torsions:
REMARK  status: ('A' for Active; 'I' for Inactive)
REMARK    1  A    between atoms: C_1  and  C_2
REMARK    2  A    between atoms: C_2  and  N_3
REMARK    3  A    between atoms: N_3  and  C_4
REMARK    4  A    between atoms: N_3  and  C_6
REMARK    5  A    between atoms: C_4  and  C_5
REMARK    6  A    between atoms: C_6  and  C_7
REMARK    7  A    between atoms: C_7  and  O_8
REMARK    8  A    between atoms: O_8  and  C_9
REMARK                            x       y       z     vdW  Elec       q    Type
REMARK                         _______ _______ _______ _____ _____    ______ ____
ROOT
ATOM      1  O   UNL     1       2.825   6.006  17.630  0.00  0.00    +0.000 OA
ENDROOT
BRANCH   1   2
ATOM      2  C   UNL     1       2.504   5.226  18.713  0.00  0.00    +0.000 A 
ATOM      3  C   UNL     1       2.262   5.734  19.995  0.00  0.00    +0.000 A 
ATOM      4  C   UNL     1       1.916   4.877  21.046  0.00  0.00    +0.000 A 
ATOM      5  C   UNL     1       1.804   3.508  20.815  0.00  0.00    +0.000 A 
ATOM      6 CL   UNL     1       1.386   2.460  22.115  0.00  0.00    +0.000 Cl
ATOM      7  C   UNL     1       2.024   2.986  19.546  0.00  0.00    +0.000 A 
ATOM      8  C   UNL     1       2.365   3.845  18.496  0.00  0.00    +0.000 A 
ATOM      9 CL   UNL     1       2.625   3.149  16.934  0.00  0.00    +0.000 Cl
ENDBRANCH   1   2
BRANCH   1  10
ATOM     10  C   UNL     1       4.140   6.573  17.622  0.00  0.00    +0.000 C 
BRANCH  10  11
ATOM     11  C   UNL     1       5.075   5.649  16.825  0.00  0.00    +0.000 C 
BRANCH  11  12
ATOM     12  N   UNL     1       6.016   4.847  17.638  0.00  0.00    +0.000 NA
BRANCH  12  14
ATOM     13  C   UNL     1       7.034   4.739  15.327  0.00  0.00    +0.000 C 
ATOM     14  C   UNL     1       7.208   4.530  16.829  0.00  0.00    +0.000 C 
ENDBRANCH  12  14
BRANCH  12  15
ATOM     15  C   UNL     1       6.328   5.432  18.952  0.00  0.00    +0.000 C 
ATOM     16  C   UNL     1       7.799   5.724  19.230  0.00  0.00    +0.000 C 
ENDBRANCH  12  15
ENDBRANCH  11  12
ENDBRANCH  10  11
ENDBRANCH   1  10
TORSDOF 6
ENDMDL
MODEL 5
REMARK VINA RESULT:      -5.4      2.047      3.282
REMARK  Name = 
REMARK  8 active torsions:
REMARK  status: ('A' for Active; 'I' for Inactive)
REMARK    1  A    between atoms: C_1  and  C_2
REMARK    2  A    between atoms: C_2  and  N_3
REMARK    3  A    between atoms: N_3  and  C_4
REMARK    4  A    between atoms: N_3  and  C_6
REMARK    5  A    between atoms: C_4  and  C_5
REMARK    6  A    between atoms: C_6  and  C_7
REMARK    7  A    between atoms: C_7  and  O_8
REMARK    8  A    between atoms: O_8  and  C_9
REMARK                            x       y       z     vdW  Elec       q    Type
REMARK                         _______ _______ _______ _____ _____    ______ ____
ROOT
ATOM      1  O   UNL     1       5.049   4.359  18.548  0.00  0.00    +0.000 OA
ENDROOT
BRANCH   1   2
ATOM      2  C   UNL     1       5.568   4.471  17.282  0.00  0.00    +0.000 A 
ATOM      3  C   UNL     1       4.898   4.053  16.126  0.00  0.00    +0.000 A 
ATOM      4  C   UNL     1       5.483   4.221  14.865  0.00  0.00    +0.000 A 
ATOM      5  C   UNL     1       6.739   4.814  14.758  0.00  0.00    +0.000 A 
ATOM      6 CL   UNL     1       7.454   5.010  13.204  0.00  0.00    +0.000 Cl
ATOM      7  C   UNL     1       7.413   5.250  15.892  0.00  0.00    +0.000 A 
ATOM      8  C   UNL     1       6.825   5.085  17.151  0.00  0.00    +0.000 A 
ATOM      9 CL   UNL     1       7.701   5.647  18.532  0.00  0.00    +0.000 Cl
ENDBRANCH   1   2
BRANCH   1  10
ATOM     10  C   UNL     1       4.435   5.535  19.089  0.00  0.00    +0.000 C 
BRANCH  10  11
ATOM     11  C   UNL     1       3.231   5.116  19.948  0.00  0.00    +0.000 C 
BRANCH  11  12
ATOM     12  N   UNL     1       2.711   3.755  19.689  0.00  0.00    +0.000 NA
BRANCH  12  14
ATOM     13  C   UNL     1       1.377   2.682  21.549  0.00  0.00    +0.000 C 
ATOM     14  C   UNL     1       2.746   2.977  20.942  0.00  0.00    +0.000 C 
ENDBRANCH  12  14
BRANCH  12  15
ATOM     15  C   UNL     1       1.408   3.727  19.008  0.00  0.00    +0.000 C 
ATOM     16  C   UNL     1       1.381   4.256  17.577  0.00  0.00    +0.000 C 
ENDBRANCH  12  15
ENDBRANCH  11  12
ENDBRANCH  10  11
ENDBRANCH   1  10
TORSDOF 6
ENDMDL
MODEL 6
REMARK VINA RESULT:      -5.4      3.138      5.816
REMARK  Name = 
REMARK  8 active torsions:
REMARK  status: ('A' for Active; 'I' for Inactive)
REMARK    1  A    between atoms: C_1  and  C_2
REMARK    2  A    between atoms: C_2  and  N_3
REMARK    3  A    between atoms: N_3  and  C_4
REMARK    4  A    between atoms: N_3  and  C_6
REMARK    5  A    between atoms: C_4  and  C_5
REMARK    6  A    between atoms: C_6  and  C_7
REMARK    7  A    between atoms: C_7  and  O_8
REMARK    8  A    between atoms: O_8  and  C_9
REMARK                            x       y       z     vdW  Elec       q    Type
REMARK                         _______ _______ _______ _____ _____    ______ ____
ROOT
ATOM      1  O   UNL     1       3.726   4.933  17.314  0.00  0.00    +0.000 OA
ENDROOT
BRANCH   1   2
ATOM      2  C   UNL     1       3.130   4.459  18.456  0.00  0.00    +0.000 A 
ATOM      3  C   UNL     1       2.536   5.279  19.423  0.00  0.00    +0.000 A 
ATOM      4  C   UNL     1       1.926   4.721  20.552  0.00  0.00    +0.000 A 
ATOM      5  C   UNL     1       1.903   3.337  20.713  0.00  0.00    +0.000 A 
ATOM      6 CL   UNL     1       1.158   2.659  22.108  0.00  0.00    +0.000 Cl
ATOM      7  C   UNL     1       2.473   2.505  19.756  0.00  0.00    +0.000 A 
ATOM      8  C   UNL     1       3.078   3.066  18.626  0.00  0.00    +0.000 A 
ATOM      9 CL   UNL     1       3.769   1.990  17.462  0.00  0.00    +0.000 Cl
ENDBRANCH   1   2
BRANCH   1  10
ATOM     10  C   UNL     1       4.250   6.265  17.375  0.00  0.00    +0.000 C 
BRANCH  10  11
ATOM     11  C   UNL     1       5.085   6.530  16.113  0.00  0.00    +0.000 C 
BRANCH  11  12
ATOM     12  N   UNL     1       6.540   6.303  16.257  0.00  0.00    +0.000 NA
BRANCH  12  14
ATOM     13  C   UNL     1       7.722   6.093  18.482  0.00  0.00    +0.000 C 
ATOM     14  C   UNL     1       7.021   6.993  17.468  0.00  0.00    +0.000 C 
ENDBRANCH  12  14
BRANCH  12  15
ATOM     15  C   UNL     1       6.941   4.889  16.180  0.00  0.00    +0.000 C 
ATOM     16  C   UNL     1       6.305   4.066  15.063  0.00  0.00    +0.000 C 
ENDBRANCH  12  15
ENDBRANCH  11  12
ENDBRANCH  10  11
ENDBRANCH   1  10
TORSDOF 6
ENDMDL
MODEL 7
REMARK VINA RESULT:      -5.3      1.262      2.257
REMARK  Name = 
REMARK  8 active torsions:
REMARK  status: ('A' for Active; 'I' for Inactive)
REMARK    1  A    between atoms: C_1  and  C_2
REMARK    2  A    between atoms: C_2  and  N_3
REMARK    3  A    between atoms: N_3  and  C_4
REMARK    4  A    between atoms: N_3  and  C_6
REMARK    5  A    between atoms: C_4  and  C_5
REMARK    6  A    between atoms: C_6  and  C_7
REMARK    7  A    between atoms: C_7  and  O_8
REMARK    8  A    between atoms: O_8  and  C_9
REMARK                            x       y       z     vdW  Elec       q    Type
REMARK                         _______ _______ _______ _____ _____    ______ ____
ROOT
ATOM      1  O   UNL     1       4.480   3.302  17.401  0.00  0.00    +0.000 OA
ENDROOT
BRANCH   1   2
ATOM      2  C   UNL     1       5.369   4.301  17.711  0.00  0.00    +0.000 A 
ATOM      3  C   UNL     1       5.789   4.593  19.014  0.00  0.00    +0.000 A 
ATOM      4  C   UNL     1       6.718   5.613  19.250  0.00  0.00    +0.000 A 
ATOM      5  C   UNL     1       7.237   6.338  18.179  0.00  0.00    +0.000 A 
ATOM      6 CL   UNL     1       8.374   7.595  18.480  0.00  0.00    +0.000 Cl
ATOM      7  C   UNL     1       6.846   6.052  16.877  0.00  0.00    +0.000 A 
ATOM      8  C   UNL     1       5.920   5.029  16.644  0.00  0.00    +0.000 A 
ATOM      9 CL   UNL     1       5.467   4.708  15.006  0.00  0.00    +0.000 Cl
ENDBRANCH   1   2
BRANCH   1  10
ATOM     10  C   UNL     1       3.733   2.753  18.493  0.00  0.00    +0.000 C 
BRANCH  10  11
ATOM     11  C   UNL     1       2.453   3.581  18.686  0.00  0.00    +0.000 C 
BRANCH  11  12
ATOM     12  N   UNL     1       2.418   4.418  19.906  0.00  0.00    +0.000 NA
BRANCH  12  14
ATOM     13  C   UNL     1       2.305   6.090  18.013  0.00  0.00    +0.000 C 
ATOM     14  C   UNL     1       2.379   5.840  19.517  0.00  0.00    +0.000 C 
ENDBRANCH  12  14
BRANCH  12  15
ATOM     15  C   UNL     1       1.373   4.036  20.869  0.00  0.00    +0.000 C 
ATOM     16  C   UNL     1       1.499   2.649  21.490  0.00  0.00    +0.000 C 
ENDBRANCH  12  15
ENDBRANCH  11  12
ENDBRANCH  10  11
ENDBRANCH   1  10
TORSDOF 6
ENDMDL
MODEL 8
REMARK VINA RESULT:      -5.3      2.969      5.549
REMARK  Name = 
REMARK  8 active torsions:
REMARK  status: ('A' for Active; 'I' for Inactive)
REMARK    1  A    between atoms: C_1  and  C_2
REMARK    2  A    between atoms: C_2  and  N_3
REMARK    3  A    between atoms: N_3  and  C_4
REMARK    4  A    between atoms: N_3  and  C_6
REMARK    5  A    between atoms: C_4  and  C_5
REMARK    6  A    between atoms: C_6  and  C_7
REMARK    7  A    between atoms: C_7  and  O_8
REMARK    8  A    between atoms: O_8  and  C_9
REMARK                            x       y       z     vdW  Elec       q    Type
REMARK                         _______ _______ _______ _____ _____    ______ ____
ROOT
ATOM      1  O   UNL     1       3.716   5.605  17.218  0.00  0.00    +0.000 OA
ENDROOT
BRANCH   1   2
ATOM      2  C   UNL     1       3.211   5.023  18.354  0.00  0.00    +0.000 A 
ATOM      3  C   UNL     1       2.552   5.732  19.366  0.00  0.00    +0.000 A 
ATOM      4  C   UNL     1       2.042   5.066  20.485  0.00  0.00    +0.000 A 
ATOM      5  C   UNL     1       2.184   3.683  20.592  0.00  0.00    +0.000 A 
ATOM      6 CL   UNL     1       1.560   2.873  21.977  0.00  0.00    +0.000 Cl
ATOM      7  C   UNL     1       2.820   2.960  19.591  0.00  0.00    +0.000 A 
ATOM      8  C   UNL     1       3.325   3.628  18.470  0.00  0.00    +0.000 A 
ATOM      9 CL   UNL     1       4.104   2.683  17.250  0.00  0.00    +0.000 Cl
ENDBRANCH   1   2
BRANCH   1  10
ATOM     10  C   UNL     1       4.433   6.832  17.397  0.00  0.00    +0.000 C 
BRANCH  10  11
ATOM     11  C   UNL     1       5.869   6.649  16.882  0.00  0.00    +0.000 C 
BRANCH  11  12
ATOM     12  N   UNL     1       6.377   5.260  16.903  0.00  0.00    +0.000 NA
BRANCH  12  14
ATOM     13  C   UNL     1       5.748   4.583  14.550  0.00  0.00    +0.000 C 
ATOM     14  C   UNL     1       6.853   4.897  15.554  0.00  0.00    +0.000 C 
ENDBRANCH  12  14
BRANCH  12  15
ATOM     15  C   UNL     1       7.354   4.991  17.970  0.00  0.00    +0.000 C 
ATOM     16  C   UNL     1       6.975   5.465  19.369  0.00  0.00    +0.000 C 
ENDBRANCH  12  15
ENDBRANCH  11  12
ENDBRANCH  10  11
ENDBRANCH   1  10
TORSDOF 6
ENDMDL
MODEL 9
REMARK VINA RESULT:      -5.3      1.413      1.782
REMARK  Name = 
REMARK  8 active torsions:
REMARK  status: ('A' for Active; 'I' for Inactive)
REMARK    1  A    between atoms: C_1  and  C_2
REMARK    2  A    between atoms: C_2  and  N_3
REMARK    3  A    between atoms: N_3  and  C_4
REMARK    4  A    between atoms: N_3  and  C_6
REMARK    5  A    between atoms: C_4  and  C_5
REMARK    6  A    between atoms: C_6  and  C_7
REMARK    7  A    between atoms: C_7  and  O_8
REMARK    8  A    between atoms: O_8  and  C_9
REMARK                            x       y       z     vdW  Elec       q    Type
REMARK                         _______ _______ _______ _____ _____    ______ ____
ROOT
ATOM      1  O   UNL     1       4.199   3.041  17.588  0.00  0.00    +0.000 OA
ENDROOT
BRANCH   1   2
ATOM      2  C   UNL     1       5.109   4.034  17.855  0.00  0.00    +0.000 A 
ATOM      3  C   UNL     1       5.307   4.588  19.125  0.00  0.00    +0.000 A 
ATOM      4  C   UNL     1       6.271   5.583  19.324  0.00  0.00    +0.000 A 
ATOM      5  C   UNL     1       7.044   6.023  18.252  0.00  0.00    +0.000 A 
ATOM      6 CL   UNL     1       8.221   7.253  18.505  0.00  0.00    +0.000 Cl
ATOM      7  C   UNL     1       6.874   5.474  16.987  0.00  0.00    +0.000 A 
ATOM      8  C   UNL     1       5.913   4.476  16.791  0.00  0.00    +0.000 A 
ATOM      9 CL   UNL     1       5.741   3.821  15.200  0.00  0.00    +0.000 Cl
ENDBRANCH   1   2
BRANCH   1  10
ATOM     10  C   UNL     1       2.859   3.462  17.310  0.00  0.00    +0.000 C 
BRANCH  10  11
ATOM     11  C   UNL     1       1.964   3.095  18.503  0.00  0.00    +0.000 C 
BRANCH  11  12
ATOM     12  N   UNL     1       1.362   4.241  19.220  0.00  0.00    +0.000 NA
BRANCH  12  14
ATOM     13  C   UNL     1       2.436   3.047  21.173  0.00  0.00    +0.000 C 
ATOM     14  C   UNL     1       1.304   3.933  20.662  0.00  0.00    +0.000 C 
ENDBRANCH  12  14
BRANCH  12  15
ATOM     15  C   UNL     1       1.985   5.538  18.914  0.00  0.00    +0.000 C 
ATOM     16  C   UNL     1       2.100   6.523  20.073  0.00  0.00    +0.000 C 
ENDBRANCH  12  15
ENDBRANCH  11  12
ENDBRANCH  10  11
ENDBRANCH   1  10
TORSDOF 6
ENDMDL
