MODEL 1
REMARK VINA RESULT:      -8.1      0.000      0.000
REMARK  Name = 
REMARK  14 active torsions:
REMARK  status: ('A' for Active; 'I' for Inactive)
REMARK    1  A    between atoms: C_1  and  C_2
REMARK    2  A    between atoms: C_2  and  C_3
REMARK    3  A    between atoms: C_2  and  C_4
REMARK    4  A    between atoms: C_4  and  C_5
REMARK    5  A    between atoms: C_5  and  C_6
REMARK    6  A    between atoms: C_6  and  C_7
REMARK    7  A    between atoms: C_7  and  C_8
REMARK    8  A    between atoms: C_7  and  C_9
REMARK    9  A    between atoms: C_12  and  C_13
REMARK   10  A    between atoms: C_14  and  O_15
REMARK   11  A    between atoms: C_16  and  N_17
REMARK   12  A    between atoms: N_17  and  C_18
REMARK   13  A    between atoms: C_18  and  C_19
REMARK   14  A    between atoms: C_29  and  C_30
REMARK                            x       y       z     vdW  Elec       q    Type
REMARK                         _______ _______ _______ _____ _____    ______ ____
ROOT
ATOM      1  C   UNL     1       4.704   4.872  16.814  0.00  0.00    +0.000 C 
ATOM      2  C   UNL     1       4.236   3.415  16.921  0.00  0.00    +0.000 C 
ATOM      3  C   UNL     1       3.422   3.246  18.208  0.00  0.00    +0.000 C 
ATOM      4  C   UNL     1       2.808   4.622  18.520  0.00  0.00    +0.000 C 
ATOM      5  C   UNL     1       1.337   4.486  17.899  0.00  0.00    +0.000 C 
ATOM      6  C   UNL     1       2.546   5.118  19.972  0.00  0.00    +0.000 C 
ATOM      7  C   UNL     1       1.813   6.534  19.819  0.00  0.00    +0.000 C 
ATOM      8  C   UNL     1       2.507   7.552  18.852  0.00  0.00    +0.000 C 
ATOM      9  C   UNL     1       3.155   6.929  17.588  0.00  0.00    +0.000 C 
ATOM     10  C   UNL     1       3.928   5.646  17.958  0.00  0.00    +0.000 C 
ATOM     11  C   UNL     1       5.013   6.150  18.977  0.00  0.00    +0.000 C 
ENDROOT
BRANCH   1  12
ATOM     12  C   UNL     1       6.309   4.927  16.705  0.00  0.00    +0.000 C 
ATOM     13  C   UNL     1       6.770   6.393  16.560  0.00  0.00    +0.000 C 
BRANCH  12  14
ATOM     14  C   UNL     1       6.991   4.107  15.548  0.00  0.00    +0.000 C 
BRANCH  14  15
ATOM     15  C   UNL     1       6.519   4.478  14.126  0.00  0.00    +0.000 C 
BRANCH  15  16
ATOM     16  C   UNL     1       5.623   3.384  13.515  0.00  0.00    +0.000 C 
BRANCH  16  18
ATOM     17  C   UNL     1       6.407   2.012  11.540  0.00  0.00    +0.000 C 
ATOM     18  C   UNL     1       5.691   3.295  11.973  0.00  0.00    +0.000 C 
ATOM     19  C   UNL     1       4.310   3.341  11.314  0.00  0.00    +0.000 C 
ENDBRANCH  16  18
ENDBRANCH  15  16
ENDBRANCH  14  15
ENDBRANCH  12  14
ENDBRANCH   1  12
BRANCH   6  20
ATOM     20  O   UNL     1       1.745   4.174  20.690  0.00  0.00    +0.000 OA
ATOM     21  H   UNL     1       1.138   4.709  21.260  0.00  0.00    +0.000 HD
ENDBRANCH   6  20
BRANCH   7  22
ATOM     22  N   UNL     1       1.406   7.131  21.111  0.00  0.00    +0.000 NA
ATOM     23  H   UNL     1       0.379   7.061  21.136  0.00  0.00    +0.000 HD
BRANCH  22  24
ATOM     24  C   UNL     1       1.794   8.547  21.108  0.00  0.00    +0.000 C 
BRANCH  24  25
ATOM     25  C   UNL     1       0.658   9.465  21.496  0.00  0.00    +0.000 A 
ATOM     26  C   UNL     1       0.195   9.357  22.814  0.00  0.00    +0.000 A 
ATOM     27  C   UNL     1      -0.775  10.227  23.301  0.00  0.00    +0.000 A 
ATOM     28  C   UNL     1      -1.279  11.214  22.457  0.00  0.00    +0.000 A 
ATOM     29  C   UNL     1      -0.850  11.318  21.133  0.00  0.00    +0.000 A 
ATOM     30 CL   UNL     1      -1.511  12.603  20.181  0.00  0.00    +0.000 Cl
ATOM     31  C   UNL     1       0.130  10.455  20.636  0.00  0.00    +0.000 A 
ATOM     32 CL   UNL     1       0.660  10.559  18.993  0.00  0.00    +0.000 Cl
ENDBRANCH  24  25
ENDBRANCH  22  24
ENDBRANCH   7  22
TORSDOF 9
ENDMDL
MODEL 2
REMARK VINA RESULT:      -7.7      1.302      1.654
REMARK  Name = 
REMARK  14 active torsions:
REMARK  status: ('A' for Active; 'I' for Inactive)
REMARK    1  A    between atoms: C_1  and  C_2
REMARK    2  A    between atoms: C_2  and  C_3
REMARK    3  A    between atoms: C_2  and  C_4
REMARK    4  A    between atoms: C_4  and  C_5
REMARK    5  A    between atoms: C_5  and  C_6
REMARK    6  A    between atoms: C_6  and  C_7
REMARK    7  A    between atoms: C_7  and  C_8
REMARK    8  A    between atoms: C_7  and  C_9
REMARK    9  A    between atoms: C_12  and  C_13
REMARK   10  A    between atoms: C_14  and  O_15
REMARK   11  A    between atoms: C_16  and  N_17
REMARK   12  A    between atoms: N_17  and  C_18
REMARK   13  A    between atoms: C_18  and  C_19
REMARK   14  A    between atoms: C_29  and  C_30
REMARK                            x       y       z     vdW  Elec       q    Type
REMARK                         _______ _______ _______ _____ _____    ______ ____
ROOT
ATOM      1  C   UNL     1       4.666   4.222  16.726  0.00  0.00    +0.000 C 
ATOM      2  C   UNL     1       4.213   2.875  17.304  0.00  0.00    +0.000 C 
ATOM      3  C   UNL     1       3.652   3.101  18.711  0.00  0.00    +0.000 C 
ATOM      4  C   UNL     1       3.119   4.544  18.743  0.00  0.00    +0.000 C 
ATOM      5  C   UNL     1       1.557   4.336  18.453  0.00  0.00    +0.000 C 
ATOM      6  C   UNL     1       3.138   5.421  20.030  0.00  0.00    +0.000 C 
ATOM      7  C   UNL     1       2.402   6.786  19.632  0.00  0.00    +0.000 C 
ATOM      8  C   UNL     1       2.913   7.470  18.319  0.00  0.00    +0.000 C 
ATOM      9  C   UNL     1       3.308   6.498  17.176  0.00  0.00    +0.000 C 
ATOM     10  C   UNL     1       4.125   5.315  17.736  0.00  0.00    +0.000 C 
ATOM     11  C   UNL     1       5.385   6.005  18.373  0.00  0.00    +0.000 C 
ENDROOT
BRANCH   1  12
ATOM     12  C   UNL     1       6.224   4.151  16.324  0.00  0.00    +0.000 C 
ATOM     13  C   UNL     1       7.094   4.445  17.564  0.00  0.00    +0.000 C 
BRANCH  12  14
ATOM     14  C   UNL     1       6.724   5.095  15.169  0.00  0.00    +0.000 C 
BRANCH  14  15
ATOM     15  C   UNL     1       6.077   4.834  13.792  0.00  0.00    +0.000 C 
BRANCH  15  16
ATOM     16  C   UNL     1       6.244   3.370  13.346  0.00  0.00    +0.000 C 
BRANCH  16  18
ATOM     17  C   UNL     1       6.108   1.643  11.503  0.00  0.00    +0.000 C 
ATOM     18  C   UNL     1       5.809   3.095  11.889  0.00  0.00    +0.000 C 
ATOM     19  C   UNL     1       4.324   3.377  11.649  0.00  0.00    +0.000 C 
ENDBRANCH  16  18
ENDBRANCH  15  16
ENDBRANCH  14  15
ENDBRANCH  12  14
ENDBRANCH   1  12
BRANCH   6  20
ATOM     20  O   UNL     1       2.476   4.749  21.106  0.00  0.00    +0.000 OA
ATOM     21  H   UNL     1       2.624   3.781  20.955  0.00  0.00    +0.000 HD
ENDBRANCH   6  20
BRANCH   7  22
ATOM     22  N   UNL     1       2.249   7.726  20.765  0.00  0.00    +0.000 NA
ATOM     23  H   UNL     1       2.666   7.250  21.577  0.00  0.00    +0.000 HD
BRANCH  22  24
ATOM     24  C   UNL     1       0.815   7.929  21.007  0.00  0.00    +0.000 C 
BRANCH  24  25
ATOM     25  C   UNL     1       0.388   9.366  20.820  0.00  0.00    +0.000 A 
ATOM     26  C   UNL     1       0.373   9.844  19.503  0.00  0.00    +0.000 A 
ATOM     27  C   UNL     1      -0.103  11.119  19.213  0.00  0.00    +0.000 A 
ATOM     28  C   UNL     1      -0.570  11.916  20.256  0.00  0.00    +0.000 A 
ATOM     29  C   UNL     1      -0.535  11.468  21.577  0.00  0.00    +0.000 A 
ATOM     30 CL   UNL     1      -1.175  12.521  22.792  0.00  0.00    +0.000 Cl
ATOM     31  C   UNL     1      -0.068  10.186  21.879  0.00  0.00    +0.000 A 
ATOM     32 CL   UNL     1      -0.002   9.621  23.512  0.00  0.00    +0.000 Cl
ENDBRANCH  24  25
ENDBRANCH  22  24
ENDBRANCH   7  22
TORSDOF 9
ENDMDL
MODEL 3
REMARK VINA RESULT:      -7.5      1.041      1.228
REMARK  Name = 
REMARK  14 active torsions:
REMARK  status: ('A' for Active; 'I' for Inactive)
REMARK    1  A    between atoms: C_1  and  C_2
REMARK    2  A    between atoms: C_2  and  C_3
REMARK    3  A    between atoms: C_2  and  C_4
REMARK    4  A    between atoms: C_4  and  C_5
REMARK    5  A    between atoms: C_5  and  C_6
REMARK    6  A    between atoms: C_6  and  C_7
REMARK    7  A    between atoms: C_7  and  C_8
REMARK    8  A    between atoms: C_7  and  C_9
REMARK    9  A    between atoms: C_12  and  C_13
REMARK   10  A    between atoms: C_14  and  O_15
REMARK   11  A    between atoms: C_16  and  N_17
REMARK   12  A    between atoms: N_17  and  C_18
REMARK   13  A    between atoms: C_18  and  C_19
REMARK   14  A    between atoms: C_29  and  C_30
REMARK                            x       y       z     vdW  Elec       q    Type
REMARK                         _______ _______ _______ _____ _____    ______ ____
ROOT
ATOM      1  C   UNL     1       4.845   4.215  16.748  0.00  0.00    +0.000 C 
ATOM      2  C   UNL     1       4.399   2.898  17.396  0.00  0.00    +0.000 C 
ATOM      3  C   UNL     1       3.778   3.201  18.764  0.00  0.00    +0.000 C 
ATOM      4  C   UNL     1       3.213   4.630  18.679  0.00  0.00    +0.000 C 
ATOM      5  C   UNL     1       1.668   4.366  18.345  0.00  0.00    +0.000 C 
ATOM      6  C   UNL     1       3.162   5.589  19.905  0.00  0.00    +0.000 C 
ATOM      7  C   UNL     1       2.412   6.908  19.390  0.00  0.00    +0.000 C 
ATOM      8  C   UNL     1       2.960   7.517  18.055  0.00  0.00    +0.000 C 
ATOM      9  C   UNL     1       3.421   6.482  16.995  0.00  0.00    +0.000 C 
ATOM     10  C   UNL     1       4.240   5.358  17.662  0.00  0.00    +0.000 C 
ATOM     11  C   UNL     1       5.459   6.119  18.299  0.00  0.00    +0.000 C 
ENDROOT
BRANCH   1  12
ATOM     12  C   UNL     1       6.418   4.156  16.411  0.00  0.00    +0.000 C 
ATOM     13  C   UNL     1       7.219   4.817  17.553  0.00  0.00    +0.000 C 
BRANCH  12  14
ATOM     14  C   UNL     1       6.902   4.809  15.064  0.00  0.00    +0.000 C 
BRANCH  14  15
ATOM     15  C   UNL     1       5.944   4.617  13.869  0.00  0.00    +0.000 C 
BRANCH  15  16
ATOM     16  C   UNL     1       6.532   3.671  12.807  0.00  0.00    +0.000 C 
BRANCH  16  18
ATOM     17  C   UNL     1       4.352   3.470  11.541  0.00  0.00    +0.000 C 
ATOM     18  C   UNL     1       5.507   2.696  12.184  0.00  0.00    +0.000 C 
ATOM     19  C   UNL     1       6.128   1.769  11.137  0.00  0.00    +0.000 C 
ENDBRANCH  16  18
ENDBRANCH  15  16
ENDBRANCH  14  15
ENDBRANCH  12  14
ENDBRANCH   1  12
BRANCH   6  20
ATOM     20  O   UNL     1       2.473   4.973  20.997  0.00  0.00    +0.000 OA
ATOM     21  H   UNL     1       2.312   4.035  20.724  0.00  0.00    +0.000 HD
ENDBRANCH   6  20
BRANCH   7  22
ATOM     22  N   UNL     1       2.194   7.916  20.452  0.00  0.00    +0.000 NA
ATOM     23  H   UNL     1       1.695   7.420  21.205  0.00  0.00    +0.000 HD
BRANCH  22  24
ATOM     24  C   UNL     1       1.330   8.974  19.914  0.00  0.00    +0.000 C 
BRANCH  24  25
ATOM     25  C   UNL     1       0.492   9.642  20.979  0.00  0.00    +0.000 A 
ATOM     26  C   UNL     1      -0.102   8.796  21.924  0.00  0.00    +0.000 A 
ATOM     27  C   UNL     1      -0.806   9.318  23.005  0.00  0.00    +0.000 A 
ATOM     28  C   UNL     1      -0.909  10.701  23.137  0.00  0.00    +0.000 A 
ATOM     29  C   UNL     1      -0.348  11.558  22.189  0.00  0.00    +0.000 A 
ATOM     30 CL   UNL     1      -0.501  13.260  22.466  0.00  0.00    +0.000 Cl
ATOM     31  C   UNL     1       0.369  11.045  21.105  0.00  0.00    +0.000 A 
ATOM     32 CL   UNL     1       1.055  12.093  19.912  0.00  0.00    +0.000 Cl
ENDBRANCH  24  25
ENDBRANCH  22  24
ENDBRANCH   7  22
TORSDOF 9
ENDMDL
MODEL 4
REMARK VINA RESULT:      -7.3      1.389      3.071
REMARK  Name = 
REMARK  14 active torsions:
REMARK  status: ('A' for Active; 'I' for Inactive)
REMARK    1  A    between atoms: C_1  and  C_2
REMARK    2  A    between atoms: C_2  and  C_3
REMARK    3  A    between atoms: C_2  and  C_4
REMARK    4  A    between atoms: C_4  and  C_5
REMARK    5  A    between atoms: C_5  and  C_6
REMARK    6  A    between atoms: C_6  and  C_7
REMARK    7  A    between atoms: C_7  and  C_8
REMARK    8  A    between atoms: C_7  and  C_9
REMARK    9  A    between atoms: C_12  and  C_13
REMARK   10  A    between atoms: C_14  and  O_15
REMARK   11  A    between atoms: C_16  and  N_17
REMARK   12  A    between atoms: N_17  and  C_18
REMARK   13  A    between atoms: C_18  and  C_19
REMARK   14  A    between atoms: C_29  and  C_30
REMARK                            x       y       z     vdW  Elec       q    Type
REMARK                         _______ _______ _______ _____ _____    ______ ____
ROOT
ATOM      1  C   UNL     1       3.776   4.285  16.828  0.00  0.00    +0.000 C 
ATOM      2  C   UNL     1       3.835   2.899  17.483  0.00  0.00    +0.000 C 
ATOM      3  C   UNL     1       3.580   3.047  18.986  0.00  0.00    +0.000 C 
ATOM      4  C   UNL     1       2.715   4.308  19.160  0.00  0.00    +0.000 C 
ATOM      5  C   UNL     1       1.237   3.697  19.250  0.00  0.00    +0.000 C 
ATOM      6  C   UNL     1       2.807   5.226  20.415  0.00  0.00    +0.000 C 
ATOM      7  C   UNL     1       1.672   6.338  20.220  0.00  0.00    +0.000 C 
ATOM      8  C   UNL     1       1.667   7.061  18.830  0.00  0.00    +0.000 C 
ATOM      9  C   UNL     1       2.021   6.163  17.615  0.00  0.00    +0.000 C 
ATOM     10  C   UNL     1       3.223   5.256  17.951  0.00  0.00    +0.000 C 
ATOM     11  C   UNL     1       4.375   6.274  18.275  0.00  0.00    +0.000 C 
ENDROOT
BRANCH   1  12
ATOM     12  C   UNL     1       5.161   4.590  16.064  0.00  0.00    +0.000 C 
ATOM     13  C   UNL     1       4.971   4.385  14.546  0.00  0.00    +0.000 C 
BRANCH  12  14
ATOM     14  C   UNL     1       6.428   3.762  16.491  0.00  0.00    +0.000 C 
BRANCH  14  15
ATOM     15  C   UNL     1       7.491   4.562  17.275  0.00  0.00    +0.000 C 
BRANCH  15  16
ATOM     16  C   UNL     1       7.530   6.040  16.847  0.00  0.00    +0.000 C 
BRANCH  16  18
ATOM     17  C   UNL     1       7.529   8.393  17.775  0.00  0.00    +0.000 C 
ATOM     18  C   UNL     1       8.137   6.993  17.902  0.00  0.00    +0.000 C 
ATOM     19  C   UNL     1       7.940   6.494  19.335  0.00  0.00    +0.000 C 
ENDBRANCH  16  18
ENDBRANCH  15  16
ENDBRANCH  14  15
ENDBRANCH  12  14
ENDBRANCH   1  12
BRANCH   6  20
ATOM     20  O   UNL     1       2.612   4.464  21.610  0.00  0.00    +0.000 OA
ATOM     21  H   UNL     1       1.651   4.547  21.833  0.00  0.00    +0.000 HD
ENDBRANCH   6  20
BRANCH   7  22
ATOM     22  N   UNL     1       1.551   7.266  21.367  0.00  0.00    +0.000 NA
ATOM     23  H   UNL     1       0.596   7.135  21.728  0.00  0.00    +0.000 HD
BRANCH  22  24
ATOM     24  C   UNL     1       1.696   8.639  20.868  0.00  0.00    +0.000 C 
BRANCH  24  25
ATOM     25  C   UNL     1       0.577   9.547  21.323  0.00  0.00    +0.000 A 
ATOM     26  C   UNL     1       0.162   9.404  22.653  0.00  0.00    +0.000 A 
ATOM     27  C   UNL     1      -0.788  10.261  23.199  0.00  0.00    +0.000 A 
ATOM     28  C   UNL     1      -1.321  11.271  22.402  0.00  0.00    +0.000 A 
ATOM     29  C   UNL     1      -0.941  11.410  21.066  0.00  0.00    +0.000 A 
ATOM     30 CL   UNL     1      -1.635  12.721  20.174  0.00  0.00    +0.000 Cl
ATOM     31  C   UNL     1       0.019  10.560  20.510  0.00  0.00    +0.000 A 
ATOM     32 CL   UNL     1       0.488  10.708  18.852  0.00  0.00    +0.000 Cl
ENDBRANCH  24  25
ENDBRANCH  22  24
ENDBRANCH   7  22
TORSDOF 9
ENDMDL
MODEL 5
REMARK VINA RESULT:      -7.2      3.623      9.795
REMARK  Name = 
REMARK  14 active torsions:
REMARK  status: ('A' for Active; 'I' for Inactive)
REMARK    1  A    between atoms: C_1  and  C_2
REMARK    2  A    between atoms: C_2  and  C_3
REMARK    3  A    between atoms: C_2  and  C_4
REMARK    4  A    between atoms: C_4  and  C_5
REMARK    5  A    between atoms: C_5  and  C_6
REMARK    6  A    between atoms: C_6  and  C_7
REMARK    7  A    between atoms: C_7  and  C_8
REMARK    8  A    between atoms: C_7  and  C_9
REMARK    9  A    between atoms: C_12  and  C_13
REMARK   10  A    between atoms: C_14  and  O_15
REMARK   11  A    between atoms: C_16  and  N_17
REMARK   12  A    between atoms: N_17  and  C_18
REMARK   13  A    between atoms: C_18  and  C_19
REMARK   14  A    between atoms: C_29  and  C_30
REMARK                            x       y       z     vdW  Elec       q    Type
REMARK                         _______ _______ _______ _____ _____    ______ ____
ROOT
ATOM      1  C   UNL     1      -1.032  12.445  20.826  0.00  0.00    +0.000 C 
ATOM      2  C   UNL     1      -1.354  12.981  19.425  0.00  0.00    +0.000 C 
ATOM      3  C   UNL     1      -0.421  12.312  18.410  0.00  0.00    +0.000 C 
ATOM      4  C   UNL     1      -0.041  10.943  19.002  0.00  0.00    +0.000 C 
ATOM      5  C   UNL     1      -1.080   9.960  18.279  0.00  0.00    +0.000 C 
ATOM      6  C   UNL     1       1.339  10.268  18.745  0.00  0.00    +0.000 C 
ATOM      7  C   UNL     1       1.256   8.835  19.455  0.00  0.00    +0.000 C 
ATOM      8  C   UNL     1       0.754   8.845  20.938  0.00  0.00    +0.000 C 
ATOM      9  C   UNL     1      -0.361   9.877  21.254  0.00  0.00    +0.000 C 
ATOM     10  C   UNL     1      -0.039  11.234  20.594  0.00  0.00    +0.000 C 
ATOM     11  C   UNL     1       1.332  11.644  21.244  0.00  0.00    +0.000 C 
ENDROOT
BRANCH   1  12
ATOM     12  C   UNL     1      -0.653  13.665  21.807  0.00  0.00    +0.000 C 
ATOM     13  C   UNL     1      -1.644  13.707  22.989  0.00  0.00    +0.000 C 
BRANCH  12  14
ATOM     14  C   UNL     1      -0.603  15.110  21.188  0.00  0.00    +0.000 C 
BRANCH  14  15
ATOM     15  C   UNL     1       0.693  15.896  21.480  0.00  0.00    +0.000 C 
BRANCH  15  16
ATOM     16  C   UNL     1       1.917  15.262  20.794  0.00  0.00    +0.000 C 
BRANCH  16  18
ATOM     17  C   UNL     1       1.906  16.444  18.559  0.00  0.00    +0.000 C 
ATOM     18  C   UNL     1       1.772  15.092  19.265  0.00  0.00    +0.000 C 
ATOM     19  C   UNL     1       2.798  14.121  18.676  0.00  0.00    +0.000 C 
ENDBRANCH  16  18
ENDBRANCH  15  16
ENDBRANCH  14  15
ENDBRANCH  12  14
ENDBRANCH   1  12
BRANCH   6  20
ATOM     20  O   UNL     1       1.591  10.158  17.341  0.00  0.00    +0.000 OA
ATOM     21  H   UNL     1       2.123   9.331  17.224  0.00  0.00    +0.000 HD
ENDBRANCH   6  20
BRANCH   7  22
ATOM     22  N   UNL     1       2.463   8.003  19.247  0.00  0.00    +0.000 NA
ATOM     23  H   UNL     1       2.617   7.990  18.229  0.00  0.00    +0.000 HD
BRANCH  22  24
ATOM     24  C   UNL     1       2.169   6.641  19.709  0.00  0.00    +0.000 C 
BRANCH  24  25
ATOM     25  C   UNL     1       2.760   5.579  18.810  0.00  0.00    +0.000 A 
ATOM     26  C   UNL     1       3.680   6.020  17.849  0.00  0.00    +0.000 A 
ATOM     27  C   UNL     1       4.358   5.112  17.043  0.00  0.00    +0.000 A 
ATOM     28  C   UNL     1       4.112   3.750  17.208  0.00  0.00    +0.000 A 
ATOM     29  C   UNL     1       3.178   3.295  18.140  0.00  0.00    +0.000 A 
ATOM     30 CL   UNL     1       2.975   1.583  18.292  0.00  0.00    +0.000 Cl
ATOM     31  C   UNL     1       2.498   4.198  18.961  0.00  0.00    +0.000 A 
ATOM     32 CL   UNL     1       1.324   3.652  20.108  0.00  0.00    +0.000 Cl
ENDBRANCH  24  25
ENDBRANCH  22  24
ENDBRANCH   7  22
TORSDOF 9
ENDMDL
MODEL 6
REMARK VINA RESULT:      -7.2      3.610      9.701
REMARK  Name = 
REMARK  14 active torsions:
REMARK  status: ('A' for Active; 'I' for Inactive)
REMARK    1  A    between atoms: C_1  and  C_2
REMARK    2  A    between atoms: C_2  and  C_3
REMARK    3  A    between atoms: C_2  and  C_4
REMARK    4  A    between atoms: C_4  and  C_5
REMARK    5  A    between atoms: C_5  and  C_6
REMARK    6  A    between atoms: C_6  and  C_7
REMARK    7  A    between atoms: C_7  and  C_8
REMARK    8  A    between atoms: C_7  and  C_9
REMARK    9  A    between atoms: C_12  and  C_13
REMARK   10  A    between atoms: C_14  and  O_15
REMARK   11  A    between atoms: C_16  and  N_17
REMARK   12  A    between atoms: N_17  and  C_18
REMARK   13  A    between atoms: C_18  and  C_19
REMARK   14  A    between atoms: C_29  and  C_30
REMARK                            x       y       z     vdW  Elec       q    Type
REMARK                         _______ _______ _______ _____ _____    ______ ____
ROOT
ATOM      1  C   UNL     1      -1.265  11.831  20.882  0.00  0.00    +0.000 C 
ATOM      2  C   UNL     1      -1.504  12.584  19.568  0.00  0.00    +0.000 C 
ATOM      3  C   UNL     1      -0.450  12.148  18.545  0.00  0.00    +0.000 C 
ATOM      4  C   UNL     1      -0.033  10.718  18.931  0.00  0.00    +0.000 C 
ATOM      5  C   UNL     1      -0.944   9.825  17.961  0.00  0.00    +0.000 C 
ATOM      6  C   UNL     1       1.404  10.166  18.692  0.00  0.00    +0.000 C 
ATOM      7  C   UNL     1       1.356   8.630  19.141  0.00  0.00    +0.000 C 
ATOM      8  C   UNL     1       0.733   8.358  20.552  0.00  0.00    +0.000 C 
ATOM      9  C   UNL     1      -0.468   9.264  20.932  0.00  0.00    +0.000 C 
ATOM     10  C   UNL     1      -0.180  10.729  20.542  0.00  0.00    +0.000 C 
ATOM     11  C   UNL     1       1.103  11.087  21.376  0.00  0.00    +0.000 C 
ENDROOT
BRANCH   1  12
ATOM     12  C   UNL     1      -1.046  12.880  22.084  0.00  0.00    +0.000 C 
ATOM     13  C   UNL     1      -1.720  12.347  23.367  0.00  0.00    +0.000 C 
BRANCH  12  14
ATOM     14  C   UNL     1      -1.554  14.353  21.869  0.00  0.00    +0.000 C 
BRANCH  14  15
ATOM     15  C   UNL     1      -0.453  15.371  21.502  0.00  0.00    +0.000 C 
BRANCH  15  16
ATOM     16  C   UNL     1       0.945  14.727  21.490  0.00  0.00    +0.000 C 
BRANCH  16  18
ATOM     17  C   UNL     1       2.611  13.857  19.798  0.00  0.00    +0.000 C 
ATOM     18  C   UNL     1       1.795  15.073  20.247  0.00  0.00    +0.000 C 
ATOM     19  C   UNL     1       0.950  15.566  19.069  0.00  0.00    +0.000 C 
ENDBRANCH  16  18
ENDBRANCH  15  16
ENDBRANCH  14  15
ENDBRANCH  12  14
ENDBRANCH   1  12
BRANCH   6  20
ATOM     20  O   UNL     1       1.777  10.312  17.319  0.00  0.00    +0.000 OA
ATOM     21  H   UNL     1       0.959  10.127  16.792  0.00  0.00    +0.000 HD
ENDBRANCH   6  20
BRANCH   7  22
ATOM     22  N   UNL     1       2.626   7.906  18.908  0.00  0.00    +0.000 NA
ATOM     23  H   UNL     1       2.632   7.676  17.904  0.00  0.00    +0.000 HD
BRANCH  22  24
ATOM     24  C   UNL     1       2.599   6.663  19.689  0.00  0.00    +0.000 C 
BRANCH  24  25
ATOM     25  C   UNL     1       2.759   5.430  18.830  0.00  0.00    +0.000 A 
ATOM     26  C   UNL     1       1.673   4.546  18.805  0.00  0.00    +0.000 A 
ATOM     27  C   UNL     1       1.677   3.436  17.966  0.00  0.00    +0.000 A 
ATOM     28  C   UNL     1       2.781   3.217  17.144  0.00  0.00    +0.000 A 
ATOM     29  C   UNL     1       3.884   4.072  17.177  0.00  0.00    +0.000 A 
ATOM     30 CL   UNL     1       5.186   3.733  16.089  0.00  0.00    +0.000 Cl
ATOM     31  C   UNL     1       3.886   5.195  18.009  0.00  0.00    +0.000 A 
ATOM     32 CL   UNL     1       5.252   6.254  18.075  0.00  0.00    +0.000 Cl
ENDBRANCH  24  25
ENDBRANCH  22  24
ENDBRANCH   7  22
TORSDOF 9
ENDMDL
MODEL 7
REMARK VINA RESULT:      -7.2      4.452      7.657
REMARK  Name = 
REMARK  14 active torsions:
REMARK  status: ('A' for Active; 'I' for Inactive)
REMARK    1  A    between atoms: C_1  and  C_2
REMARK    2  A    between atoms: C_2  and  C_3
REMARK    3  A    between atoms: C_2  and  C_4
REMARK    4  A    between atoms: C_4  and  C_5
REMARK    5  A    between atoms: C_5  and  C_6
REMARK    6  A    between atoms: C_6  and  C_7
REMARK    7  A    between atoms: C_7  and  C_8
REMARK    8  A    between atoms: C_7  and  C_9
REMARK    9  A    between atoms: C_12  and  C_13
REMARK   10  A    between atoms: C_14  and  O_15
REMARK   11  A    between atoms: C_16  and  N_17
REMARK   12  A    between atoms: N_17  and  C_18
REMARK   13  A    between atoms: C_18  and  C_19
REMARK   14  A    between atoms: C_29  and  C_30
REMARK                            x       y       z     vdW  Elec       q    Type
REMARK                         _______ _______ _______ _____ _____    ______ ____
ROOT
ATOM      1  C   UNL     1       5.293   3.526  18.510  0.00  0.00    +0.000 C 
ATOM      2  C   UNL     1       4.491   3.426  17.207  0.00  0.00    +0.000 C 
ATOM      3  C   UNL     1       4.519   4.786  16.500  0.00  0.00    +0.000 C 
ATOM      4  C   UNL     1       5.821   5.479  16.938  0.00  0.00    +0.000 C 
ATOM      5  C   UNL     1       6.812   5.137  15.725  0.00  0.00    +0.000 C 
ATOM      6  C   UNL     1       5.945   7.024  17.086  0.00  0.00    +0.000 C 
ATOM      7  C   UNL     1       7.479   7.301  17.452  0.00  0.00    +0.000 C 
ATOM      8  C   UNL     1       8.058   6.442  18.627  0.00  0.00    +0.000 C 
ATOM      9  C   UNL     1       7.548   4.978  18.692  0.00  0.00    +0.000 C 
ATOM     10  C   UNL     1       6.026   4.928  18.446  0.00  0.00    +0.000 C 
ATOM     11  C   UNL     1       5.434   5.800  19.612  0.00  0.00    +0.000 C 
ENDROOT
BRANCH   1  12
ATOM     12  C   UNL     1       4.361   3.123  19.760  0.00  0.00    +0.000 C 
ATOM     13  C   UNL     1       4.643   1.661  20.168  0.00  0.00    +0.000 C 
BRANCH  12  14
ATOM     14  C   UNL     1       2.804   3.266  19.586  0.00  0.00    +0.000 C 
BRANCH  14  15
ATOM     15  C   UNL     1       2.193   4.526  20.235  0.00  0.00    +0.000 C 
BRANCH  15  16
ATOM     16  C   UNL     1       1.783   5.574  19.183  0.00  0.00    +0.000 C 
BRANCH  16  18
ATOM     17  C   UNL     1       2.391   7.784  18.115  0.00  0.00    +0.000 C 
ATOM     18  C   UNL     1       2.382   6.979  19.418  0.00  0.00    +0.000 C 
ATOM     19  C   UNL     1       1.629   7.774  20.488  0.00  0.00    +0.000 C 
ENDBRANCH  16  18
ENDBRANCH  15  16
ENDBRANCH  14  15
ENDBRANCH  12  14
ENDBRANCH   1  12
BRANCH   6  20
ATOM     20  O   UNL     1       5.556   7.678  15.874  0.00  0.00    +0.000 OA
ATOM     21  H   UNL     1       5.683   8.647  16.034  0.00  0.00    +0.000 HD
ENDBRANCH   6  20
BRANCH   7  22
ATOM     22  N   UNL     1       7.811   8.740  17.554  0.00  0.00    +0.000 NA
ATOM     23  H   UNL     1       8.422   8.939  16.750  0.00  0.00    +0.000 HD
BRANCH  22  24
ATOM     24  C   UNL     1       8.562   8.953  18.797  0.00  0.00    +0.000 C 
BRANCH  24  25
ATOM     25  C   UNL     1       9.287  10.279  18.822  0.00  0.00    +0.000 A 
ATOM     26  C   UNL     1       9.793  10.733  17.596  0.00  0.00    +0.000 A 
ATOM     27  C   UNL     1      10.385  11.987  17.491  0.00  0.00    +0.000 A 
ATOM     28  C   UNL     1      10.464  12.792  18.626  0.00  0.00    +0.000 A 
ATOM     29  C   UNL     1       9.991  12.345  19.860  0.00  0.00    +0.000 A 
ATOM     30 CL   UNL     1      10.101  13.437  21.198  0.00  0.00    +0.000 Cl
ATOM     31  C   UNL     1       9.386  11.090  19.975  0.00  0.00    +0.000 A 
ATOM     32 CL   UNL     1       8.811  10.513  21.501  0.00  0.00    +0.000 Cl
ENDBRANCH  24  25
ENDBRANCH  22  24
ENDBRANCH   7  22
TORSDOF 9
ENDMDL
MODEL 8
REMARK VINA RESULT:      -7.1      1.800      3.382
REMARK  Name = 
REMARK  14 active torsions:
REMARK  status: ('A' for Active; 'I' for Inactive)
REMARK    1  A    between atoms: C_1  and  C_2
REMARK    2  A    between atoms: C_2  and  C_3
REMARK    3  A    between atoms: C_2  and  C_4
REMARK    4  A    between atoms: C_4  and  C_5
REMARK    5  A    between atoms: C_5  and  C_6
REMARK    6  A    between atoms: C_6  and  C_7
REMARK    7  A    between atoms: C_7  and  C_8
REMARK    8  A    between atoms: C_7  and  C_9
REMARK    9  A    between atoms: C_12  and  C_13
REMARK   10  A    between atoms: C_14  and  O_15
REMARK   11  A    between atoms: C_16  and  N_17
REMARK   12  A    between atoms: N_17  and  C_18
REMARK   13  A    between atoms: C_18  and  C_19
REMARK   14  A    between atoms: C_29  and  C_30
REMARK                            x       y       z     vdW  Elec       q    Type
REMARK                         _______ _______ _______ _____ _____    ______ ____
ROOT
ATOM      1  C   UNL     1       3.789   4.466  16.814  0.00  0.00    +0.000 C 
ATOM      2  C   UNL     1       3.795   3.118  17.545  0.00  0.00    +0.000 C 
ATOM      3  C   UNL     1       3.548   3.359  19.038  0.00  0.00    +0.000 C 
ATOM      4  C   UNL     1       2.732   4.660  19.140  0.00  0.00    +0.000 C 
ATOM      5  C   UNL     1       1.231   4.110  19.262  0.00  0.00    +0.000 C 
ATOM      6  C   UNL     1       2.860   5.642  20.341  0.00  0.00    +0.000 C 
ATOM      7  C   UNL     1       1.767   6.784  20.083  0.00  0.00    +0.000 C 
ATOM      8  C   UNL     1       1.788   7.427  18.655  0.00  0.00    +0.000 C 
ATOM      9  C   UNL     1       2.106   6.450  17.492  0.00  0.00    +0.000 C 
ATOM     10  C   UNL     1       3.274   5.518  17.879  0.00  0.00    +0.000 C 
ATOM     11  C   UNL     1       4.464   6.509  18.147  0.00  0.00    +0.000 C 
ENDROOT
BRANCH   1  12
ATOM     12  C   UNL     1       5.183   4.675  16.035  0.00  0.00    +0.000 C 
ATOM     13  C   UNL     1       4.992   4.361  14.536  0.00  0.00    +0.000 C 
BRANCH  12  14
ATOM     14  C   UNL     1       6.426   3.848  16.530  0.00  0.00    +0.000 C 
BRANCH  14  15
ATOM     15  C   UNL     1       7.675   4.692  16.862  0.00  0.00    +0.000 C 
BRANCH  15  16
ATOM     16  C   UNL     1       7.419   6.198  16.672  0.00  0.00    +0.000 C 
BRANCH  16  18
ATOM     17  C   UNL     1       8.083   6.210  19.113  0.00  0.00    +0.000 C 
ATOM     18  C   UNL     1       7.435   7.017  17.983  0.00  0.00    +0.000 C 
ATOM     19  C   UNL     1       8.170   8.352  17.841  0.00  0.00    +0.000 C 
ENDBRANCH  16  18
ENDBRANCH  15  16
ENDBRANCH  14  15
ENDBRANCH  12  14
ENDBRANCH   1  12
BRANCH   6  20
ATOM     20  O   UNL     1       2.637   4.957  21.577  0.00  0.00    +0.000 OA
ATOM     21  H   UNL     1       1.683   5.101  21.801  0.00  0.00    +0.000 HD
ENDBRANCH   6  20
BRANCH   7  22
ATOM     22  N   UNL     1       1.682   7.779  21.176  0.00  0.00    +0.000 NA
ATOM     23  H   UNL     1       1.785   7.240  22.047  0.00  0.00    +0.000 HD
BRANCH  22  24
ATOM     24  C   UNL     1       0.348   8.391  21.140  0.00  0.00    +0.000 C 
BRANCH  24  25
ATOM     25  C   UNL     1       0.400   9.899  21.047  0.00  0.00    +0.000 A 
ATOM     26  C   UNL     1       1.012  10.430  19.904  0.00  0.00    +0.000 A 
ATOM     27  C   UNL     1       1.019  11.801  19.673  0.00  0.00    +0.000 A 
ATOM     28  C   UNL     1       0.403  12.644  20.595  0.00  0.00    +0.000 A 
ATOM     29  C   UNL     1      -0.187  12.134  21.753  0.00  0.00    +0.000 A 
ATOM     30 CL   UNL     1      -0.959  13.262  22.815  0.00  0.00    +0.000 Cl
ATOM     31  C   UNL     1      -0.208  10.757  21.992  0.00  0.00    +0.000 A 
ATOM     32 CL   UNL     1      -0.918  10.111  23.430  0.00  0.00    +0.000 Cl
ENDBRANCH  24  25
ENDBRANCH  22  24
ENDBRANCH   7  22
TORSDOF 9
ENDMDL
MODEL 9
REMARK VINA RESULT:      -7.0      3.920      6.305
REMARK  Name = 
REMARK  14 active torsions:
REMARK  status: ('A' for Active; 'I' for Inactive)
REMARK    1  A    between atoms: C_1  and  C_2
REMARK    2  A    between atoms: C_2  and  C_3
REMARK    3  A    between atoms: C_2  and  C_4
REMARK    4  A    between atoms: C_4  and  C_5
REMARK    5  A    between atoms: C_5  and  C_6
REMARK    6  A    between atoms: C_6  and  C_7
REMARK    7  A    between atoms: C_7  and  C_8
REMARK    8  A    between atoms: C_7  and  C_9
REMARK    9  A    between atoms: C_12  and  C_13
REMARK   10  A    between atoms: C_14  and  O_15
REMARK   11  A    between atoms: C_16  and  N_17
REMARK   12  A    between atoms: N_17  and  C_18
REMARK   13  A    between atoms: C_18  and  C_19
REMARK   14  A    between atoms: C_29  and  C_30
REMARK                            x       y       z     vdW  Elec       q    Type
REMARK                         _______ _______ _______ _____ _____    ______ ____
ROOT
ATOM      1  C   UNL     1       1.875   7.918  19.922  0.00  0.00    +0.000 C 
ATOM      2  C   UNL     1       1.878   8.721  18.615  0.00  0.00    +0.000 C 
ATOM      3  C   UNL     1       0.773   9.780  18.678  0.00  0.00    +0.000 C 
ATOM      4  C   UNL     1       0.566  10.107  20.168  0.00  0.00    +0.000 C 
ATOM      5  C   UNL     1       1.458  11.426  20.353  0.00  0.00    +0.000 C 
ATOM      6  C   UNL     1      -0.816  10.516  20.757  0.00  0.00    +0.000 C 
ATOM      7  C   UNL     1      -0.544  10.860  22.297  0.00  0.00    +0.000 C 
ATOM      8  C   UNL     1       0.259   9.780  23.098  0.00  0.00    +0.000 C 
ATOM      9  C   UNL     1       1.385   9.066  22.303  0.00  0.00    +0.000 C 
ATOM     10  C   UNL     1       0.891   8.695  20.889  0.00  0.00    +0.000 C 
ATOM     11  C   UNL     1      -0.324   7.736  21.163  0.00  0.00    +0.000 C 
ENDROOT
BRANCH   1  12
ATOM     12  C   UNL     1       1.675   6.352  19.603  0.00  0.00    +0.000 C 
ATOM     13  C   UNL     1       2.249   5.509  20.762  0.00  0.00    +0.000 C 
BRANCH  12  14
ATOM     14  C   UNL     1       2.294   5.793  18.270  0.00  0.00    +0.000 C 
BRANCH  14  15
ATOM     15  C   UNL     1       1.657   4.484  17.758  0.00  0.00    +0.000 C 
BRANCH  15  16
ATOM     16  C   UNL     1       2.720   3.456  17.329  0.00  0.00    +0.000 C 
BRANCH  16  18
ATOM     17  C   UNL     1       4.047   2.640  19.321  0.00  0.00    +0.000 C 
ATOM     18  C   UNL     1       2.928   2.299  18.331  0.00  0.00    +0.000 C 
ATOM     19  C   UNL     1       1.659   1.957  19.115  0.00  0.00    +0.000 C 
ENDBRANCH  16  18
ENDBRANCH  15  16
ENDBRANCH  14  15
ENDBRANCH  12  14
ENDBRANCH   1  12
BRANCH   6  20
ATOM     20  O   UNL     1      -1.355  11.634  20.045  0.00  0.00    +0.000 OA
ATOM     21  H   UNL     1      -2.009  11.259  19.403  0.00  0.00    +0.000 HD
ENDBRANCH   6  20
BRANCH   7  22
ATOM     22  N   UNL     1      -1.742  11.354  23.012  0.00  0.00    +0.000 NA
ATOM     23  H   UNL     1      -2.519  11.270  22.341  0.00  0.00    +0.000 HD
BRANCH  22  24
ATOM     24  C   UNL     1      -1.535  12.770  23.337  0.00  0.00    +0.000 C 
BRANCH  24  25
ATOM     25  C   UNL     1      -2.819  13.567  23.324  0.00  0.00    +0.000 A 
ATOM     26  C   UNL     1      -3.874  13.031  22.574  0.00  0.00    +0.000 A 
ATOM     27  C   UNL     1      -5.129  13.632  22.580  0.00  0.00    +0.000 A 
ATOM     28  C   UNL     1      -5.324  14.777  23.350  0.00  0.00    +0.000 A 
ATOM     29  C   UNL     1      -4.276  15.340  24.081  0.00  0.00    +0.000 A 
ATOM     30 CL   UNL     1      -4.633  16.740  25.034  0.00  0.00    +0.000 Cl
ATOM     31  C   UNL     1      -3.014  14.740  24.089  0.00  0.00    +0.000 A 
ATOM     32 CL   UNL     1      -1.701  15.435  24.974  0.00  0.00    +0.000 Cl
ENDBRANCH  24  25
ENDBRANCH  22  24
ENDBRANCH   7  22
TORSDOF 9
ENDMDL
