MODEL 1
REMARK VINA RESULT:      -6.8      0.000      0.000
REMARK  Name = 
REMARK  2 active torsions:
REMARK  status: ('A' for Active; 'I' for Inactive)
REMARK    1  A    between atoms: N_1  and  C_2
REMARK    2  A    between atoms: C_7  and  C_8
REMARK                            x       y       z     vdW  Elec       q    Type
REMARK                         _______ _______ _______ _____ _____    ______ ____
ROOT
ATOM      1  C   UNL     1       3.208   5.789  17.833  0.00  0.00    +0.000 A 
ATOM      2  C   UNL     1       1.999   5.105  18.055  0.00  0.00    +0.000 A 
ATOM      3  C   UNL     1       1.881   3.745  17.777  0.00  0.00    +0.000 A 
ATOM      4  C   UNL     1       2.967   3.045  17.266  0.00  0.00    +0.000 A 
ATOM      5  C   UNL     1       4.178   3.699  17.041  0.00  0.00    +0.000 A 
ATOM      6  C   UNL     1       4.334   5.072  17.322  0.00  0.00    +0.000 A 
ENDROOT
BRANCH   6   7
ATOM      7  C   UNL     1       5.723   5.664  17.089  0.00  0.00    +0.000 C 
ATOM      8  O   UNL     1       5.976   5.865  15.740  0.00  0.00    +0.000 OA
ATOM      9  C   UNL     1       7.134   5.244  15.421  0.00  0.00    +0.000 C 
ATOM     10  O   UNL     1       7.617   5.263  14.302  0.00  0.00    +0.000 OA
ATOM     11  N   UNL     1       7.695   4.603  16.457  0.00  0.00    +0.000 N 
ATOM     12  C   UNL     1       6.881   4.806  17.501  0.00  0.00    +0.000 C 
ATOM     13  O   UNL     1       7.098   4.381  18.626  0.00  0.00    +0.000 OA
ATOM     14  H   UNL     1       8.576   4.070  16.452  0.00  0.00    +0.000 HD
ENDBRANCH   6   7
BRANCH   1  15
ATOM     15  N   UNL     1       3.250   7.173  18.146  0.00  0.00    +0.000 N 
ATOM     16  H   UNL     1       3.530   7.859  17.430  0.00  0.00    +0.000 HD
ATOM     17  H   UNL     1       3.029   7.538  19.075  0.00  0.00    +0.000 HD
ENDBRANCH   1  15
TORSDOF 2
ENDMDL
MODEL 2
REMARK VINA RESULT:      -6.8      2.352      2.914
REMARK  Name = 
REMARK  2 active torsions:
REMARK  status: ('A' for Active; 'I' for Inactive)
REMARK    1  A    between atoms: N_1  and  C_2
REMARK    2  A    between atoms: C_7  and  C_8
REMARK                            x       y       z     vdW  Elec       q    Type
REMARK                         _______ _______ _______ _____ _____    ______ ____
ROOT
ATOM      1  C   UNL     1       3.007   2.719  18.914  0.00  0.00    +0.000 A 
ATOM      2  C   UNL     1       1.936   2.188  19.657  0.00  0.00    +0.000 A 
ATOM      3  C   UNL     1       1.099   3.014  20.402  0.00  0.00    +0.000 A 
ATOM      4  C   UNL     1       1.321   4.386  20.426  0.00  0.00    +0.000 A 
ATOM      5  C   UNL     1       2.372   4.938  19.695  0.00  0.00    +0.000 A 
ATOM      6  C   UNL     1       3.231   4.130  18.920  0.00  0.00    +0.000 A 
ENDROOT
BRANCH   6   7
ATOM      7  C   UNL     1       4.311   4.855  18.118  0.00  0.00    +0.000 C 
ATOM      8  O   UNL     1       4.370   4.400  16.809  0.00  0.00    +0.000 OA
ATOM      9  C   UNL     1       5.641   4.025  16.540  0.00  0.00    +0.000 C 
ATOM     10  O   UNL     1       5.998   3.596  15.456  0.00  0.00    +0.000 OA
ATOM     11  N   UNL     1       6.469   4.168  17.587  0.00  0.00    +0.000 N 
ATOM     12  C   UNL     1       5.721   4.656  18.585  0.00  0.00    +0.000 C 
ATOM     13  O   UNL     1       6.160   4.934  19.690  0.00  0.00    +0.000 OA
ATOM     14  H   UNL     1       7.476   3.954  17.614  0.00  0.00    +0.000 HD
ENDBRANCH   6   7
BRANCH   1  15
ATOM     15  N   UNL     1       3.812   1.811  18.176  0.00  0.00    +0.000 N 
ATOM     16  H   UNL     1       4.180   2.078  17.251  0.00  0.00    +0.000 HD
ATOM     17  H   UNL     1       4.038   0.872  18.511  0.00  0.00    +0.000 HD
ENDBRANCH   1  15
TORSDOF 2
ENDMDL
MODEL 3
REMARK VINA RESULT:      -6.8      1.975      2.642
REMARK  Name = 
REMARK  2 active torsions:
REMARK  status: ('A' for Active; 'I' for Inactive)
REMARK    1  A    between atoms: N_1  and  C_2
REMARK    2  A    between atoms: C_7  and  C_8
REMARK                            x       y       z     vdW  Elec       q    Type
REMARK                         _______ _______ _______ _____ _____    ______ ____
ROOT
ATOM      1  C   UNL     1       4.017   3.269  18.997  0.00  0.00    +0.000 A 
ATOM      2  C   UNL     1       3.070   2.652  19.835  0.00  0.00    +0.000 A 
ATOM      3  C   UNL     1       1.712   2.681  19.528  0.00  0.00    +0.000 A 
ATOM      4  C   UNL     1       1.273   3.333  18.382  0.00  0.00    +0.000 A 
ATOM      5  C   UNL     1       2.192   3.949  17.532  0.00  0.00    +0.000 A 
ATOM      6  C   UNL     1       3.576   3.928  17.808  0.00  0.00    +0.000 A 
ENDROOT
BRANCH   6   7
ATOM      7  C   UNL     1       4.488   4.587  16.775  0.00  0.00    +0.000 C 
ATOM      8  O   UNL     1       5.680   3.893  16.626  0.00  0.00    +0.000 OA
ATOM      9  C   UNL     1       6.706   4.754  16.808  0.00  0.00    +0.000 C 
ATOM     10  O   UNL     1       7.877   4.428  16.721  0.00  0.00    +0.000 OA
ATOM     11  N   UNL     1       6.306   6.003  17.097  0.00  0.00    +0.000 N 
ATOM     12  C   UNL     1       4.967   5.967  17.107  0.00  0.00    +0.000 C 
ATOM     13  O   UNL     1       4.263   6.945  17.312  0.00  0.00    +0.000 OA
ATOM     14  H   UNL     1       6.907   6.821  17.268  0.00  0.00    +0.000 HD
ENDBRANCH   6   7
BRANCH   1  15
ATOM     15  N   UNL     1       5.383   3.191  19.376  0.00  0.00    +0.000 N 
ATOM     16  H   UNL     1       5.935   2.349  19.157  0.00  0.00    +0.000 HD
ATOM     17  H   UNL     1       5.860   3.937  19.887  0.00  0.00    +0.000 HD
ENDBRANCH   1  15
TORSDOF 2
ENDMDL
MODEL 4
REMARK VINA RESULT:      -6.8      2.434      3.620
REMARK  Name = 
REMARK  2 active torsions:
REMARK  status: ('A' for Active; 'I' for Inactive)
REMARK    1  A    between atoms: N_1  and  C_2
REMARK    2  A    between atoms: C_7  and  C_8
REMARK                            x       y       z     vdW  Elec       q    Type
REMARK                         _______ _______ _______ _____ _____    ______ ____
ROOT
ATOM      1  C   UNL     1       2.439   2.811  18.798  0.00  0.00    +0.000 A 
ATOM      2  C   UNL     1       1.166   2.810  19.398  0.00  0.00    +0.000 A 
ATOM      3  C   UNL     1       0.793   3.810  20.293  0.00  0.00    +0.000 A 
ATOM      4  C   UNL     1       1.687   4.825  20.611  0.00  0.00    +0.000 A 
ATOM      5  C   UNL     1       2.953   4.852  20.026  0.00  0.00    +0.000 A 
ATOM      6  C   UNL     1       3.358   3.861  19.107  0.00  0.00    +0.000 A 
ENDROOT
BRANCH   6   7
ATOM      7  C   UNL     1       4.745   4.028  18.490  0.00  0.00    +0.000 C 
ATOM      8  O   UNL     1       5.738   4.062  19.458  0.00  0.00    +0.000 OA
ATOM      9  C   UNL     1       6.473   5.183  19.283  0.00  0.00    +0.000 C 
ATOM     10  O   UNL     1       7.429   5.473  19.982  0.00  0.00    +0.000 OA
ATOM     11  N   UNL     1       6.043   5.947  18.266  0.00  0.00    +0.000 N 
ATOM     12  C   UNL     1       4.985   5.308  17.748  0.00  0.00    +0.000 C 
ATOM     13  O   UNL     1       4.354   5.711  16.783  0.00  0.00    +0.000 OA
ATOM     14  H   UNL     1       6.449   6.837  17.945  0.00  0.00    +0.000 HD
ENDBRANCH   6   7
BRANCH   1  15
ATOM     15  N   UNL     1       2.742   1.760  17.892  0.00  0.00    +0.000 N 
ATOM     16  H   UNL     1       3.592   1.805  17.311  0.00  0.00    +0.000 HD
ATOM     17  H   UNL     1       2.137   0.945  17.766  0.00  0.00    +0.000 HD
ENDBRANCH   1  15
TORSDOF 2
ENDMDL
MODEL 5
REMARK VINA RESULT:      -6.7      1.978      2.569
REMARK  Name = 
REMARK  2 active torsions:
REMARK  status: ('A' for Active; 'I' for Inactive)
REMARK    1  A    between atoms: N_1  and  C_2
REMARK    2  A    between atoms: C_7  and  C_8
REMARK                            x       y       z     vdW  Elec       q    Type
REMARK                         _______ _______ _______ _____ _____    ______ ____
ROOT
ATOM      1  C   UNL     1       4.256   3.450  19.046  0.00  0.00    +0.000 A 
ATOM      2  C   UNL     1       2.868   3.346  19.257  0.00  0.00    +0.000 A 
ATOM      3  C   UNL     1       1.983   4.247  18.668  0.00  0.00    +0.000 A 
ATOM      4  C   UNL     1       2.468   5.271  17.865  0.00  0.00    +0.000 A 
ATOM      5  C   UNL     1       3.838   5.393  17.637  0.00  0.00    +0.000 A 
ATOM      6  C   UNL     1       4.761   4.491  18.208  0.00  0.00    +0.000 A 
ENDROOT
BRANCH   6   7
ATOM      7  C   UNL     1       6.229   4.692  17.840  0.00  0.00    +0.000 C 
ATOM      8  O   UNL     1       6.684   5.951  18.205  0.00  0.00    +0.000 OA
ATOM      9  C   UNL     1       7.225   6.546  17.119  0.00  0.00    +0.000 C 
ATOM     10  O   UNL     1       7.722   7.659  17.143  0.00  0.00    +0.000 OA
ATOM     11  N   UNL     1       7.158   5.791  16.011  0.00  0.00    +0.000 N 
ATOM     12  C   UNL     1       6.551   4.654  16.377  0.00  0.00    +0.000 C 
ATOM     13  O   UNL     1       6.344   3.720  15.617  0.00  0.00    +0.000 OA
ATOM     14  H   UNL     1       7.510   6.033  15.074  0.00  0.00    +0.000 HD
ENDBRANCH   6   7
BRANCH   1  15
ATOM     15  N   UNL     1       5.092   2.491  19.677  0.00  0.00    +0.000 N 
ATOM     16  H   UNL     1       5.511   1.727  19.127  0.00  0.00    +0.000 HD
ATOM     17  H   UNL     1       5.293   2.504  20.679  0.00  0.00    +0.000 HD
ENDBRANCH   1  15
TORSDOF 2
ENDMDL
MODEL 6
REMARK VINA RESULT:      -6.7      1.818      2.078
REMARK  Name = 
REMARK  2 active torsions:
REMARK  status: ('A' for Active; 'I' for Inactive)
REMARK    1  A    between atoms: N_1  and  C_2
REMARK    2  A    between atoms: C_7  and  C_8
REMARK                            x       y       z     vdW  Elec       q    Type
REMARK                         _______ _______ _______ _____ _____    ______ ____
ROOT
ATOM      1  C   UNL     1       2.457   4.809  19.670  0.00  0.00    +0.000 A 
ATOM      2  C   UNL     1       1.376   4.107  20.235  0.00  0.00    +0.000 A 
ATOM      3  C   UNL     1       0.860   2.969  19.621  0.00  0.00    +0.000 A 
ATOM      4  C   UNL     1       1.408   2.515  18.428  0.00  0.00    +0.000 A 
ATOM      5  C   UNL     1       2.484   3.190  17.850  0.00  0.00    +0.000 A 
ATOM      6  C   UNL     1       3.038   4.339  18.452  0.00  0.00    +0.000 A 
ENDROOT
BRANCH   6   7
ATOM      7  C   UNL     1       4.249   4.958  17.756  0.00  0.00    +0.000 C 
ATOM      8  O   UNL     1       4.378   4.505  16.451  0.00  0.00    +0.000 OA
ATOM      9  C   UNL     1       5.625   4.009  16.289  0.00  0.00    +0.000 C 
ATOM     10  O   UNL     1       6.031   3.552  15.234  0.00  0.00    +0.000 OA
ATOM     11  N   UNL     1       6.368   4.065  17.404  0.00  0.00    +0.000 N 
ATOM     12  C   UNL     1       5.586   4.620  18.341  0.00  0.00    +0.000 C 
ATOM     13  O   UNL     1       5.953   4.847  19.483  0.00  0.00    +0.000 OA
ATOM     14  H   UNL     1       7.343   3.753  17.515  0.00  0.00    +0.000 HD
ENDBRANCH   6   7
BRANCH   1  15
ATOM     15  N   UNL     1       2.930   5.957  20.360  0.00  0.00    +0.000 N 
ATOM     16  H   UNL     1       3.641   6.565  19.928  0.00  0.00    +0.000 HD
ATOM     17  H   UNL     1       2.610   6.212  21.296  0.00  0.00    +0.000 HD
ENDBRANCH   1  15
TORSDOF 2
ENDMDL
MODEL 7
REMARK VINA RESULT:      -6.7      2.089      3.070
REMARK  Name = 
REMARK  2 active torsions:
REMARK  status: ('A' for Active; 'I' for Inactive)
REMARK    1  A    between atoms: N_1  and  C_2
REMARK    2  A    between atoms: C_7  and  C_8
REMARK                            x       y       z     vdW  Elec       q    Type
REMARK                         _______ _______ _______ _____ _____    ______ ____
ROOT
ATOM      1  C   UNL     1       2.639   4.519  19.719  0.00  0.00    +0.000 A 
ATOM      2  C   UNL     1       1.334   4.184  20.127  0.00  0.00    +0.000 A 
ATOM      3  C   UNL     1       0.692   3.055  19.624  0.00  0.00    +0.000 A 
ATOM      4  C   UNL     1       1.338   2.244  18.700  0.00  0.00    +0.000 A 
ATOM      5  C   UNL     1       2.633   2.551  18.282  0.00  0.00    +0.000 A 
ATOM      6  C   UNL     1       3.316   3.681  18.781  0.00  0.00    +0.000 A 
ENDROOT
BRANCH   6   7
ATOM      7  C   UNL     1       4.750   3.881  18.294  0.00  0.00    +0.000 C 
ATOM      8  O   UNL     1       5.642   3.988  19.351  0.00  0.00    +0.000 OA
ATOM      9  C   UNL     1       6.349   5.131  19.204  0.00  0.00    +0.000 C 
ATOM     10  O   UNL     1       7.222   5.483  19.980  0.00  0.00    +0.000 OA
ATOM     11  N   UNL     1       5.993   5.841  18.122  0.00  0.00    +0.000 N 
ATOM     12  C   UNL     1       5.014   5.143  17.530  0.00  0.00    +0.000 C 
ATOM     13  O   UNL     1       4.467   5.487  16.493  0.00  0.00    +0.000 OA
ATOM     14  H   UNL     1       6.396   6.735  17.807  0.00  0.00    +0.000 HD
ENDBRANCH   6   7
BRANCH   1  15
ATOM     15  N   UNL     1       3.227   5.683  20.281  0.00  0.00    +0.000 N 
ATOM     16  H   UNL     1       3.086   5.906  21.277  0.00  0.00    +0.000 HD
ATOM     17  H   UNL     1       3.784   6.342  19.733  0.00  0.00    +0.000 HD
ENDBRANCH   1  15
TORSDOF 2
ENDMDL
MODEL 8
REMARK VINA RESULT:      -6.7      1.186      1.186
REMARK  Name = 
REMARK  2 active torsions:
REMARK  status: ('A' for Active; 'I' for Inactive)
REMARK    1  A    between atoms: N_1  and  C_2
REMARK    2  A    between atoms: C_7  and  C_8
REMARK                            x       y       z     vdW  Elec       q    Type
REMARK                         _______ _______ _______ _____ _____    ______ ____
ROOT
ATOM      1  C   UNL     1       2.886   5.372  19.012  0.00  0.00    +0.000 A 
ATOM      2  C   UNL     1       1.782   4.500  19.045  0.00  0.00    +0.000 A 
ATOM      3  C   UNL     1       1.684   3.432  18.157  0.00  0.00    +0.000 A 
ATOM      4  C   UNL     1       2.681   3.220  17.213  0.00  0.00    +0.000 A 
ATOM      5  C   UNL     1       3.789   4.068  17.162  0.00  0.00    +0.000 A 
ATOM      6  C   UNL     1       3.925   5.151  18.056  0.00  0.00    +0.000 A 
ENDROOT
BRANCH   6   7
ATOM      7  C   UNL     1       5.207   5.973  17.941  0.00  0.00    +0.000 C 
ATOM      8  O   UNL     1       5.627   6.089  16.623  0.00  0.00    +0.000 OA
ATOM      9  C   UNL     1       6.911   5.675  16.543  0.00  0.00    +0.000 C 
ATOM     10  O   UNL     1       7.552   5.678  15.506  0.00  0.00    +0.000 OA
ATOM     11  N   UNL     1       7.409   5.256  17.717  0.00  0.00    +0.000 N 
ATOM     12  C   UNL     1       6.419   5.398  18.608  0.00  0.00    +0.000 C 
ATOM     13  O   UNL     1       6.531   5.133  19.796  0.00  0.00    +0.000 OA
ATOM     14  H   UNL     1       8.360   4.905  17.897  0.00  0.00    +0.000 HD
ENDBRANCH   6   7
BRANCH   1  15
ATOM     15  N   UNL     1       2.916   6.434  19.955  0.00  0.00    +0.000 N 
ATOM     16  H   UNL     1       2.073   7.002  20.123  0.00  0.00    +0.000 HD
ATOM     17  H   UNL     1       3.757   6.687  20.478  0.00  0.00    +0.000 HD
ENDBRANCH   1  15
TORSDOF 2
ENDMDL
MODEL 9
REMARK VINA RESULT:      -6.6      1.321      1.784
REMARK  Name = 
REMARK  2 active torsions:
REMARK  status: ('A' for Active; 'I' for Inactive)
REMARK    1  A    between atoms: N_1  and  C_2
REMARK    2  A    between atoms: C_7  and  C_8
REMARK                            x       y       z     vdW  Elec       q    Type
REMARK                         _______ _______ _______ _____ _____    ______ ____
ROOT
ATOM      1  C   UNL     1       3.535   5.437  17.646  0.00  0.00    +0.000 A 
ATOM      2  C   UNL     1       2.173   5.167  17.871  0.00  0.00    +0.000 A 
ATOM      3  C   UNL     1       1.707   3.858  17.968  0.00  0.00    +0.000 A 
ATOM      4  C   UNL     1       2.591   2.795  17.834  0.00  0.00    +0.000 A 
ATOM      5  C   UNL     1       3.947   3.036  17.614  0.00  0.00    +0.000 A 
ATOM      6  C   UNL     1       4.454   4.349  17.523  0.00  0.00    +0.000 A 
ENDROOT
BRANCH   6   7
ATOM      7  C   UNL     1       5.964   4.487  17.339  0.00  0.00    +0.000 C 
ATOM      8  O   UNL     1       6.444   5.665  17.895  0.00  0.00    +0.000 OA
ATOM      9  C   UNL     1       7.138   6.336  16.948  0.00  0.00    +0.000 C 
ATOM     10  O   UNL     1       7.690   7.403  17.154  0.00  0.00    +0.000 OA
ATOM     11  N   UNL     1       7.155   5.712  15.760  0.00  0.00    +0.000 N 
ATOM     12  C   UNL     1       6.447   4.587  15.924  0.00  0.00    +0.000 C 
ATOM     13  O   UNL     1       6.276   3.757  15.044  0.00  0.00    +0.000 OA
ATOM     14  H   UNL     1       7.624   6.031  14.900  0.00  0.00    +0.000 HD
ENDBRANCH   6   7
BRANCH   1  15
ATOM     15  N   UNL     1       3.933   6.798  17.565  0.00  0.00    +0.000 N 
ATOM     16  H   UNL     1       4.675   7.159  18.182  0.00  0.00    +0.000 HD
ATOM     17  H   UNL     1       3.499   7.465  16.924  0.00  0.00    +0.000 HD
ENDBRANCH   1  15
TORSDOF 2
ENDMDL
