MODEL 1
REMARK VINA RESULT:      -6.7      0.000      0.000
REMARK  Name = 
REMARK  11 active torsions:
REMARK  status: ('A' for Active; 'I' for Inactive)
REMARK    1  A    between atoms: N_1  and  C_2
REMARK    2  A    between atoms: C_2  and  C_3
REMARK    3  A    between atoms: C_3  and  C_4
REMARK    4  A    between atoms: C_4  and  C_5
REMARK    5  A    between atoms: C_5  and  C_6
REMARK    6  A    between atoms: C_6  and  O_7
REMARK    7  A    between atoms: O_7  and  C_8
REMARK    8  A    between atoms: C_13  and  O_14
REMARK    9  A    between atoms: O_14  and  C_15
REMARK   10  A    between atoms: C_15  and  C_16
REMARK   11  A    between atoms: C_16  and  C_17
REMARK                            x       y       z     vdW  Elec       q    Type
REMARK                         _______ _______ _______ _____ _____    ______ ____
ROOT
ATOM      1  C   UNL     1       4.506   4.333  17.749  0.00  0.00    +0.000 A 
ATOM      2  C   UNL     1       5.256   3.939  16.625  0.00  0.00    +0.000 A 
ATOM      3  C   UNL     1       5.635   4.859  15.656  0.00  0.00    +0.000 A 
ATOM      4  C   UNL     1       5.266   6.191  15.798  0.00  0.00    +0.000 A 
ATOM      5  C   UNL     1       4.511   6.598  16.904  0.00  0.00    +0.000 A 
ATOM      6  C   UNL     1       4.100   5.680  17.883  0.00  0.00    +0.000 A 
ENDROOT
BRANCH   1   7
ATOM      7  O   UNL     1       4.269   3.266  18.583  0.00  0.00    +0.000 OA
BRANCH   7   8
ATOM      8  C   UNL     1       3.759   2.093  17.981  0.00  0.00    +0.000 C 
BRANCH   8   9
ATOM      9  C   UNL     1       2.262   2.249  17.725  0.00  0.00    +0.000 C 
BRANCH   9  10
ATOM     10  C   UNL     1       1.540   2.220  19.070  0.00  0.00    +0.000 C 
BRANCH  10  11
ATOM     11  C   UNL     1       0.837   3.526  19.420  0.00  0.00    +0.000 C 
BRANCH  11  12
ATOM     12  C   UNL     1       1.257   3.993  20.812  0.00  0.00    +0.000 C 
BRANCH  12  13
ATOM     13  N   UNL     1       2.690   3.918  20.967  0.00  0.00    +0.000 NA
ATOM     14  H   UNL     1       3.060   4.860  21.080  0.00  0.00    +0.000 HD
ATOM     15  H   UNL     1       3.109   3.545  20.115  0.00  0.00    +0.000 HD
ENDBRANCH  12  13
ENDBRANCH  11  12
ENDBRANCH  10  11
ENDBRANCH   9  10
ENDBRANCH   8   9
ENDBRANCH   7   8
ENDBRANCH   1   7
BRANCH   6  16
ATOM     16  O   UNL     1       3.430   6.105  19.009  0.00  0.00    +0.000 OA
BRANCH  16  17
ATOM     17  C   UNL     1       2.340   7.023  18.826  0.00  0.00    +0.000 C 
BRANCH  17  18
ATOM     18  C   UNL     1       1.890   7.630  20.155  0.00  0.00    +0.000 C 
BRANCH  18  19
ATOM     19  C   UNL     1       1.148   8.947  20.219  0.00  0.00    +0.000 A 
ATOM     20  C   UNL     1       1.135   9.830  19.147  0.00  0.00    +0.000 A 
ATOM     21  N   UNL     1       0.896  11.075  19.650  0.00  0.00    +0.000 N 
ATOM     22  C   UNL     1       0.253  10.956  20.853  0.00  0.00    +0.000 A 
ATOM     23  C   UNL     1      -0.432  11.930  21.590  0.00  0.00    +0.000 A 
ATOM     24  C   UNL     1      -1.010  11.534  22.794  0.00  0.00    +0.000 A 
ATOM     25  C   UNL     1      -0.832  10.242  23.273  0.00  0.00    +0.000 A 
ATOM     26  C   UNL     1      -0.072   9.302  22.550  0.00  0.00    +0.000 A 
ATOM     27  C   UNL     1       0.430   9.631  21.272  0.00  0.00    +0.000 A 
ATOM     28  H   UNL     1       1.093  11.950  19.183  0.00  0.00    +0.000 HD
ENDBRANCH  18  19
ENDBRANCH  17  18
ENDBRANCH  16  17
ENDBRANCH   6  16
TORSDOF 11
ENDMDL
MODEL 2
REMARK VINA RESULT:      -6.7      2.460      8.441
REMARK  Name = 
REMARK  11 active torsions:
REMARK  status: ('A' for Active; 'I' for Inactive)
REMARK    1  A    between atoms: N_1  and  C_2
REMARK    2  A    between atoms: C_2  and  C_3
REMARK    3  A    between atoms: C_3  and  C_4
REMARK    4  A    between atoms: C_4  and  C_5
REMARK    5  A    between atoms: C_5  and  C_6
REMARK    6  A    between atoms: C_6  and  O_7
REMARK    7  A    between atoms: O_7  and  C_8
REMARK    8  A    between atoms: C_13  and  O_14
REMARK    9  A    between atoms: O_14  and  C_15
REMARK   10  A    between atoms: C_15  and  C_16
REMARK   11  A    between atoms: C_16  and  C_17
REMARK                            x       y       z     vdW  Elec       q    Type
REMARK                         _______ _______ _______ _____ _____    ______ ____
ROOT
ATOM      1  C   UNL     1       2.006   5.137  19.898  0.00  0.00    +0.000 A 
ATOM      2  C   UNL     1       1.458   4.276  20.868  0.00  0.00    +0.000 A 
ATOM      3  C   UNL     1       0.942   3.035  20.518  0.00  0.00    +0.000 A 
ATOM      4  C   UNL     1       0.966   2.637  19.187  0.00  0.00    +0.000 A 
ATOM      5  C   UNL     1       1.497   3.485  18.208  0.00  0.00    +0.000 A 
ATOM      6  C   UNL     1       2.004   4.751  18.538  0.00  0.00    +0.000 A 
ENDROOT
BRANCH   1   7
ATOM      7  O   UNL     1       2.477   6.293  20.473  0.00  0.00    +0.000 OA
BRANCH   7   8
ATOM      8  C   UNL     1       1.819   7.492  20.114  0.00  0.00    +0.000 C 
BRANCH   8   9
ATOM      9  C   UNL     1       1.244   8.163  21.359  0.00  0.00    +0.000 C 
BRANCH   9  10
ATOM     10  C   UNL     1       0.260   9.241  20.911  0.00  0.00    +0.000 C 
BRANCH  10  11
ATOM     11  C   UNL     1       0.537   9.787  19.515  0.00  0.00    +0.000 C 
BRANCH  11  12
ATOM     12  C   UNL     1      -0.765  10.245  18.861  0.00  0.00    +0.000 C 
BRANCH  12  13
ATOM     13  N   UNL     1      -0.537  11.389  18.011  0.00  0.00    +0.000 NA
ATOM     14  H   UNL     1       0.327  11.847  18.298  0.00  0.00    +0.000 HD
ATOM     15  H   UNL     1      -1.282  12.072  18.145  0.00  0.00    +0.000 HD
ENDBRANCH  12  13
ENDBRANCH  11  12
ENDBRANCH  10  11
ENDBRANCH   9  10
ENDBRANCH   8   9
ENDBRANCH   7   8
ENDBRANCH   1   7
BRANCH   6  16
ATOM     16  O   UNL     1       2.600   5.543  17.581  0.00  0.00    +0.000 OA
BRANCH  16  17
ATOM     17  C   UNL     1       4.036   5.544  17.522  0.00  0.00    +0.000 C 
BRANCH  17  18
ATOM     18  C   UNL     1       4.564   4.370  16.698  0.00  0.00    +0.000 C 
BRANCH  18  19
ATOM     19  C   UNL     1       5.766   4.511  15.789  0.00  0.00    +0.000 A 
ATOM     20  C   UNL     1       6.955   5.074  16.234  0.00  0.00    +0.000 A 
ATOM     21  N   UNL     1       7.609   5.556  15.139  0.00  0.00    +0.000 N 
ATOM     22  C   UNL     1       7.178   4.883  14.027  0.00  0.00    +0.000 A 
ATOM     23  C   UNL     1       7.747   4.830  12.749  0.00  0.00    +0.000 A 
ATOM     24  C   UNL     1       7.101   4.052  11.790  0.00  0.00    +0.000 A 
ATOM     25  C   UNL     1       5.893   3.429  12.083  0.00  0.00    +0.000 A 
ATOM     26  C   UNL     1       5.301   3.563  13.353  0.00  0.00    +0.000 A 
ATOM     27  C   UNL     1       5.984   4.245  14.385  0.00  0.00    +0.000 A 
ATOM     28  H   UNL     1       8.348   6.247  15.148  0.00  0.00    +0.000 HD
ENDBRANCH  18  19
ENDBRANCH  17  18
ENDBRANCH  16  17
ENDBRANCH   6  16
TORSDOF 11
ENDMDL
MODEL 3
REMARK VINA RESULT:      -6.7      0.904      1.086
REMARK  Name = 
REMARK  11 active torsions:
REMARK  status: ('A' for Active; 'I' for Inactive)
REMARK    1  A    between atoms: N_1  and  C_2
REMARK    2  A    between atoms: C_2  and  C_3
REMARK    3  A    between atoms: C_3  and  C_4
REMARK    4  A    between atoms: C_4  and  C_5
REMARK    5  A    between atoms: C_5  and  C_6
REMARK    6  A    between atoms: C_6  and  O_7
REMARK    7  A    between atoms: O_7  and  C_8
REMARK    8  A    between atoms: C_13  and  O_14
REMARK    9  A    between atoms: O_14  and  C_15
REMARK   10  A    between atoms: C_15  and  C_16
REMARK   11  A    between atoms: C_16  and  C_17
REMARK                            x       y       z     vdW  Elec       q    Type
REMARK                         _______ _______ _______ _____ _____    ______ ____
ROOT
ATOM      1  C   UNL     1       4.319   4.706  17.215  0.00  0.00    +0.000 A 
ATOM      2  C   UNL     1       4.825   3.757  16.307  0.00  0.00    +0.000 A 
ATOM      3  C   UNL     1       5.558   4.147  15.193  0.00  0.00    +0.000 A 
ATOM      4  C   UNL     1       5.794   5.498  14.971  0.00  0.00    +0.000 A 
ATOM      5  C   UNL     1       5.290   6.456  15.858  0.00  0.00    +0.000 A 
ATOM      6  C   UNL     1       4.529   6.084  16.977  0.00  0.00    +0.000 A 
ENDROOT
BRANCH   1   7
ATOM      7  O   UNL     1       3.651   4.094  18.249  0.00  0.00    +0.000 OA
BRANCH   7   8
ATOM      8  C   UNL     1       2.699   3.111  17.893  0.00  0.00    +0.000 C 
BRANCH   8   9
ATOM      9  C   UNL     1       1.289   3.635  18.156  0.00  0.00    +0.000 C 
BRANCH   9  10
ATOM     10  C   UNL     1       0.871   3.203  19.560  0.00  0.00    +0.000 C 
BRANCH  10  11
ATOM     11  C   UNL     1       1.104   4.267  20.627  0.00  0.00    +0.000 C 
BRANCH  11  12
ATOM     12  C   UNL     1       2.205   3.819  21.585  0.00  0.00    +0.000 C 
BRANCH  12  13
ATOM     13  N   UNL     1       2.014   2.444  21.979  0.00  0.00    +0.000 NA
ATOM     14  H   UNL     1       1.306   2.405  22.710  0.00  0.00    +0.000 HD
ATOM     15  H   UNL     1       2.873   2.082  22.392  0.00  0.00    +0.000 HD
ENDBRANCH  12  13
ENDBRANCH  11  12
ENDBRANCH  10  11
ENDBRANCH   9  10
ENDBRANCH   8   9
ENDBRANCH   7   8
ENDBRANCH   1   7
BRANCH   6  16
ATOM     16  O   UNL     1       4.108   7.027  17.888  0.00  0.00    +0.000 OA
BRANCH  16  17
ATOM     17  C   UNL     1       2.715   7.380  17.883  0.00  0.00    +0.000 C 
BRANCH  17  18
ATOM     18  C   UNL     1       2.205   7.667  19.295  0.00  0.00    +0.000 C 
BRANCH  18  19
ATOM     19  C   UNL     1       1.295   8.839  19.591  0.00  0.00    +0.000 A 
ATOM     20  C   UNL     1       0.948   9.759  18.609  0.00  0.00    +0.000 A 
ATOM     21  N   UNL     1       0.619  10.922  19.242  0.00  0.00    +0.000 N 
ATOM     22  C   UNL     1       0.237  10.641  20.526  0.00  0.00    +0.000 A 
ATOM     23  C   UNL     1      -0.439  11.451  21.446  0.00  0.00    +0.000 A 
ATOM     24  C   UNL     1      -0.716  10.908  22.699  0.00  0.00    +0.000 A 
ATOM     25  C   UNL     1      -0.256   9.641  23.037  0.00  0.00    +0.000 A 
ATOM     26  C   UNL     1       0.491   8.875  22.120  0.00  0.00    +0.000 A 
ATOM     27  C   UNL     1       0.690   9.344  20.803  0.00  0.00    +0.000 A 
ATOM     28  H   UNL     1       0.590  11.839  18.817  0.00  0.00    +0.000 HD
ENDBRANCH  18  19
ENDBRANCH  17  18
ENDBRANCH  16  17
ENDBRANCH   6  16
TORSDOF 11
ENDMDL
MODEL 4
REMARK VINA RESULT:      -6.7      2.676      7.847
REMARK  Name = 
REMARK  11 active torsions:
REMARK  status: ('A' for Active; 'I' for Inactive)
REMARK    1  A    between atoms: N_1  and  C_2
REMARK    2  A    between atoms: C_2  and  C_3
REMARK    3  A    between atoms: C_3  and  C_4
REMARK    4  A    between atoms: C_4  and  C_5
REMARK    5  A    between atoms: C_5  and  C_6
REMARK    6  A    between atoms: C_6  and  O_7
REMARK    7  A    between atoms: O_7  and  C_8
REMARK    8  A    between atoms: C_13  and  O_14
REMARK    9  A    between atoms: O_14  and  C_15
REMARK   10  A    between atoms: C_15  and  C_16
REMARK   11  A    between atoms: C_16  and  C_17
REMARK                            x       y       z     vdW  Elec       q    Type
REMARK                         _______ _______ _______ _____ _____    ______ ____
ROOT
ATOM      1  C   UNL     1       2.269   6.355  19.733  0.00  0.00    +0.000 A 
ATOM      2  C   UNL     1       1.636   7.015  20.803  0.00  0.00    +0.000 A 
ATOM      3  C   UNL     1       1.177   8.320  20.672  0.00  0.00    +0.000 A 
ATOM      4  C   UNL     1       1.348   8.986  19.465  0.00  0.00    +0.000 A 
ATOM      5  C   UNL     1       1.985   8.349  18.393  0.00  0.00    +0.000 A 
ATOM      6  C   UNL     1       2.474   7.039  18.512  0.00  0.00    +0.000 A 
ENDROOT
BRANCH   1   7
ATOM      7  O   UNL     1       2.615   5.071  20.079  0.00  0.00    +0.000 OA
BRANCH   7   8
ATOM      8  C   UNL     1       1.667   4.343  20.836  0.00  0.00    +0.000 C 
BRANCH   8   9
ATOM      9  C   UNL     1       1.221   3.106  20.060  0.00  0.00    +0.000 C 
BRANCH   9  10
ATOM     10  C   UNL     1       1.918   3.115  18.702  0.00  0.00    +0.000 C 
BRANCH  10  11
ATOM     11  C   UNL     1       2.875   1.946  18.492  0.00  0.00    +0.000 C 
BRANCH  11  12
ATOM     12  C   UNL     1       3.861   1.859  19.654  0.00  0.00    +0.000 C 
BRANCH  12  13
ATOM     13  N   UNL     1       4.812   2.943  19.603  0.00  0.00    +0.000 NA
ATOM     14  H   UNL     1       5.153   3.038  18.648  0.00  0.00    +0.000 HD
ATOM     15  H   UNL     1       5.624   2.717  20.177  0.00  0.00    +0.000 HD
ENDBRANCH  12  13
ENDBRANCH  11  12
ENDBRANCH  10  11
ENDBRANCH   9  10
ENDBRANCH   8   9
ENDBRANCH   7   8
ENDBRANCH   1   7
BRANCH   6  16
ATOM     16  O   UNL     1       3.025   6.391  17.427  0.00  0.00    +0.000 OA
BRANCH  16  17
ATOM     17  C   UNL     1       4.334   5.820  17.589  0.00  0.00    +0.000 C 
BRANCH  17  18
ATOM     18  C   UNL     1       4.559   4.656  16.625  0.00  0.00    +0.000 C 
BRANCH  18  19
ATOM     19  C   UNL     1       5.736   4.626  15.674  0.00  0.00    +0.000 A 
ATOM     20  C   UNL     1       6.984   5.111  16.043  0.00  0.00    +0.000 A 
ATOM     21  N   UNL     1       7.639   5.455  14.896  0.00  0.00    +0.000 N 
ATOM     22  C   UNL     1       7.113   4.747  13.849  0.00  0.00    +0.000 A 
ATOM     23  C   UNL     1       7.629   4.555  12.562  0.00  0.00    +0.000 A 
ATOM     24  C   UNL     1       6.885   3.773  11.682  0.00  0.00    +0.000 A 
ATOM     25  C   UNL     1       5.639   3.281  12.054  0.00  0.00    +0.000 A 
ATOM     26  C   UNL     1       5.106   3.555  13.328  0.00  0.00    +0.000 A 
ATOM     27  C   UNL     1       5.881   4.244  14.287  0.00  0.00    +0.000 A 
ATOM     28  H   UNL     1       8.434   6.077  14.834  0.00  0.00    +0.000 HD
ENDBRANCH  18  19
ENDBRANCH  17  18
ENDBRANCH  16  17
ENDBRANCH   6  16
TORSDOF 11
ENDMDL
MODEL 5
REMARK VINA RESULT:      -6.7      3.538      6.546
REMARK  Name = 
REMARK  11 active torsions:
REMARK  status: ('A' for Active; 'I' for Inactive)
REMARK    1  A    between atoms: N_1  and  C_2
REMARK    2  A    between atoms: C_2  and  C_3
REMARK    3  A    between atoms: C_3  and  C_4
REMARK    4  A    between atoms: C_4  and  C_5
REMARK    5  A    between atoms: C_5  and  C_6
REMARK    6  A    between atoms: C_6  and  O_7
REMARK    7  A    between atoms: O_7  and  C_8
REMARK    8  A    between atoms: C_13  and  O_14
REMARK    9  A    between atoms: O_14  and  C_15
REMARK   10  A    between atoms: C_15  and  C_16
REMARK   11  A    between atoms: C_16  and  C_17
REMARK                            x       y       z     vdW  Elec       q    Type
REMARK                         _______ _______ _______ _____ _____    ______ ____
ROOT
ATOM      1  C   UNL     1       6.590   5.897  16.436  0.00  0.00    +0.000 A 
ATOM      2  C   UNL     1       7.152   4.951  15.558  0.00  0.00    +0.000 A 
ATOM      3  C   UNL     1       6.521   3.739  15.308  0.00  0.00    +0.000 A 
ATOM      4  C   UNL     1       5.315   3.455  15.937  0.00  0.00    +0.000 A 
ATOM      5  C   UNL     1       4.747   4.380  16.820  0.00  0.00    +0.000 A 
ATOM      6  C   UNL     1       5.379   5.600  17.103  0.00  0.00    +0.000 A 
ENDROOT
BRANCH   1   7
ATOM      7  O   UNL     1       7.370   7.026  16.510  0.00  0.00    +0.000 OA
BRANCH   7   8
ATOM      8  C   UNL     1       7.815   7.405  17.798  0.00  0.00    +0.000 C 
BRANCH   8   9
ATOM      9  C   UNL     1       7.932   8.924  17.882  0.00  0.00    +0.000 C 
BRANCH   9  10
ATOM     10  C   UNL     1       8.933   9.268  18.983  0.00  0.00    +0.000 C 
BRANCH  10  11
ATOM     11  C   UNL     1       9.518  10.672  18.868  0.00  0.00    +0.000 C 
BRANCH  11  12
ATOM     12  C   UNL     1       9.322  11.431  20.178  0.00  0.00    +0.000 C 
BRANCH  12  13
ATOM     13  N   UNL     1      10.589  11.668  20.828  0.00  0.00    +0.000 NA
ATOM     14  H   UNL     1      10.583  12.603  21.233  0.00  0.00    +0.000 HD
ATOM     15  H   UNL     1      11.337  11.660  20.135  0.00  0.00    +0.000 HD
ENDBRANCH  12  13
ENDBRANCH  11  12
ENDBRANCH  10  11
ENDBRANCH   9  10
ENDBRANCH   8   9
ENDBRANCH   7   8
ENDBRANCH   1   7
BRANCH   6  16
ATOM     16  O   UNL     1       4.772   6.538  17.908  0.00  0.00    +0.000 OA
BRANCH  16  17
ATOM     17  C   UNL     1       3.987   7.557  17.266  0.00  0.00    +0.000 C 
BRANCH  17  18
ATOM     18  C   UNL     1       2.619   7.711  17.930  0.00  0.00    +0.000 C 
BRANCH  18  19
ATOM     19  C   UNL     1       2.142   6.755  19.003  0.00  0.00    +0.000 A 
ATOM     20  C   UNL     1       1.999   7.155  20.325  0.00  0.00    +0.000 A 
ATOM     21  N   UNL     1       2.101   6.036  21.099  0.00  0.00    +0.000 N 
ATOM     22  C   UNL     1       1.776   4.940  20.348  0.00  0.00    +0.000 A 
ATOM     23  C   UNL     1       1.469   3.639  20.766  0.00  0.00    +0.000 A 
ATOM     24  C   UNL     1       1.161   2.704  19.781  0.00  0.00    +0.000 A 
ATOM     25  C   UNL     1       1.243   3.041  18.435  0.00  0.00    +0.000 A 
ATOM     26  C   UNL     1       1.632   4.335  18.038  0.00  0.00    +0.000 A 
ATOM     27  C   UNL     1       1.837   5.341  19.007  0.00  0.00    +0.000 A 
ATOM     28  H   UNL     1       2.311   6.019  22.088  0.00  0.00    +0.000 HD
ENDBRANCH  18  19
ENDBRANCH  17  18
ENDBRANCH  16  17
ENDBRANCH   6  16
TORSDOF 11
ENDMDL
MODEL 6
REMARK VINA RESULT:      -6.7      3.291      5.799
REMARK  Name = 
REMARK  11 active torsions:
REMARK  status: ('A' for Active; 'I' for Inactive)
REMARK    1  A    between atoms: N_1  and  C_2
REMARK    2  A    between atoms: C_2  and  C_3
REMARK    3  A    between atoms: C_3  and  C_4
REMARK    4  A    between atoms: C_4  and  C_5
REMARK    5  A    between atoms: C_5  and  C_6
REMARK    6  A    between atoms: C_6  and  O_7
REMARK    7  A    between atoms: O_7  and  C_8
REMARK    8  A    between atoms: C_13  and  O_14
REMARK    9  A    between atoms: O_14  and  C_15
REMARK   10  A    between atoms: C_15  and  C_16
REMARK   11  A    between atoms: C_16  and  C_17
REMARK                            x       y       z     vdW  Elec       q    Type
REMARK                         _______ _______ _______ _____ _____    ______ ____
ROOT
ATOM      1  C   UNL     1       6.174   4.466  16.707  0.00  0.00    +0.000 A 
ATOM      2  C   UNL     1       6.941   5.582  16.324  0.00  0.00    +0.000 A 
ATOM      3  C   UNL     1       7.317   6.548  17.248  0.00  0.00    +0.000 A 
ATOM      4  C   UNL     1       6.925   6.412  18.574  0.00  0.00    +0.000 A 
ATOM      5  C   UNL     1       6.153   5.314  18.971  0.00  0.00    +0.000 A 
ATOM      6  C   UNL     1       5.746   4.338  18.049  0.00  0.00    +0.000 A 
ENDROOT
BRANCH   1   7
ATOM      7  O   UNL     1       5.945   3.633  15.639  0.00  0.00    +0.000 OA
BRANCH   7   8
ATOM      8  C   UNL     1       6.492   4.031  14.397  0.00  0.00    +0.000 C 
BRANCH   8   9
ATOM      9  C   UNL     1       5.457   3.847  13.290  0.00  0.00    +0.000 C 
BRANCH   9  10
ATOM     10  C   UNL     1       6.163   3.276  12.063  0.00  0.00    +0.000 C 
BRANCH  10  11
ATOM     11  C   UNL     1       5.507   2.018  11.503  0.00  0.00    +0.000 C 
BRANCH  11  12
ATOM     12  C   UNL     1       6.574   1.034  11.029  0.00  0.00    +0.000 C 
BRANCH  12  13
ATOM     13  N   UNL     1       6.158  -0.327  11.268  0.00  0.00    +0.000 NA
ATOM     14  H   UNL     1       5.989  -0.451  12.265  0.00  0.00    +0.000 HD
ATOM     15  H   UNL     1       6.915  -0.966  11.024  0.00  0.00    +0.000 HD
ENDBRANCH  12  13
ENDBRANCH  11  12
ENDBRANCH  10  11
ENDBRANCH   9  10
ENDBRANCH   8   9
ENDBRANCH   7   8
ENDBRANCH   1   7
BRANCH   6  16
ATOM     16  O   UNL     1       5.058   3.220  18.465  0.00  0.00    +0.000 OA
BRANCH  16  17
ATOM     17  C   UNL     1       3.775   2.969  17.866  0.00  0.00    +0.000 C 
BRANCH  17  18
ATOM     18  C   UNL     1       2.636   3.256  18.844  0.00  0.00    +0.000 C 
BRANCH  18  19
ATOM     19  C   UNL     1       2.490   4.599  19.526  0.00  0.00    +0.000 A 
ATOM     20  C   UNL     1       2.302   4.704  20.898  0.00  0.00    +0.000 A 
ATOM     21  N   UNL     1       1.680   5.895  21.131  0.00  0.00    +0.000 N 
ATOM     22  C   UNL     1       1.939   6.747  20.092  0.00  0.00    +0.000 A 
ATOM     23  C   UNL     1       1.758   8.134  20.017  0.00  0.00    +0.000 A 
ATOM     24  C   UNL     1       2.116   8.765  18.828  0.00  0.00    +0.000 A 
ATOM     25  C   UNL     1       2.554   8.023  17.738  0.00  0.00    +0.000 A 
ATOM     26  C   UNL     1       2.652   6.620  17.812  0.00  0.00    +0.000 A 
ATOM     27  C   UNL     1       2.411   5.957  19.035  0.00  0.00    +0.000 A 
ATOM     28  H   UNL     1       1.170   6.142  21.969  0.00  0.00    +0.000 HD
ENDBRANCH  18  19
ENDBRANCH  17  18
ENDBRANCH  16  17
ENDBRANCH   6  16
TORSDOF 11
ENDMDL
MODEL 7
REMARK VINA RESULT:      -6.6      1.943      2.519
REMARK  Name = 
REMARK  11 active torsions:
REMARK  status: ('A' for Active; 'I' for Inactive)
REMARK    1  A    between atoms: N_1  and  C_2
REMARK    2  A    between atoms: C_2  and  C_3
REMARK    3  A    between atoms: C_3  and  C_4
REMARK    4  A    between atoms: C_4  and  C_5
REMARK    5  A    between atoms: C_5  and  C_6
REMARK    6  A    between atoms: C_6  and  O_7
REMARK    7  A    between atoms: O_7  and  C_8
REMARK    8  A    between atoms: C_13  and  O_14
REMARK    9  A    between atoms: O_14  and  C_15
REMARK   10  A    between atoms: C_15  and  C_16
REMARK   11  A    between atoms: C_16  and  C_17
REMARK                            x       y       z     vdW  Elec       q    Type
REMARK                         _______ _______ _______ _____ _____    ______ ____
ROOT
ATOM      1  C   UNL     1       3.486   4.549  17.399  0.00  0.00    +0.000 A 
ATOM      2  C   UNL     1       4.685   3.939  16.988  0.00  0.00    +0.000 A 
ATOM      3  C   UNL     1       5.864   4.667  16.887  0.00  0.00    +0.000 A 
ATOM      4  C   UNL     1       5.858   6.021  17.196  0.00  0.00    +0.000 A 
ATOM      5  C   UNL     1       4.672   6.647  17.596  0.00  0.00    +0.000 A 
ATOM      6  C   UNL     1       3.466   5.934  17.685  0.00  0.00    +0.000 A 
ENDROOT
BRANCH   1   7
ATOM      7  O   UNL     1       2.460   3.636  17.451  0.00  0.00    +0.000 OA
BRANCH   7   8
ATOM      8  C   UNL     1       2.817   2.298  17.737  0.00  0.00    +0.000 C 
BRANCH   8   9
ATOM      9  C   UNL     1       2.096   1.825  18.997  0.00  0.00    +0.000 C 
BRANCH   9  10
ATOM     10  C   UNL     1       0.988   2.825  19.319  0.00  0.00    +0.000 C 
BRANCH  10  11
ATOM     11  C   UNL     1       1.000   3.314  20.764  0.00  0.00    +0.000 C 
BRANCH  11  12
ATOM     12  C   UNL     1       2.341   3.969  21.087  0.00  0.00    +0.000 C 
BRANCH  12  13
ATOM     13  N   UNL     1       2.233   5.408  21.042  0.00  0.00    +0.000 NA
ATOM     14  H   UNL     1       1.828   5.680  20.147  0.00  0.00    +0.000 HD
ATOM     15  H   UNL     1       3.163   5.824  21.075  0.00  0.00    +0.000 HD
ENDBRANCH  12  13
ENDBRANCH  11  12
ENDBRANCH  10  11
ENDBRANCH   9  10
ENDBRANCH   8   9
ENDBRANCH   7   8
ENDBRANCH   1   7
BRANCH   6  16
ATOM     16  O   UNL     1       2.323   6.538  18.160  0.00  0.00    +0.000 OA
BRANCH  16  17
ATOM     17  C   UNL     1       2.420   7.913  18.568  0.00  0.00    +0.000 C 
BRANCH  17  18
ATOM     18  C   UNL     1       1.592   8.825  17.663  0.00  0.00    +0.000 C 
BRANCH  18  19
ATOM     19  C   UNL     1       0.724   9.930  18.225  0.00  0.00    +0.000 A 
ATOM     20  C   UNL     1       1.217  10.850  19.141  0.00  0.00    +0.000 A 
ATOM     21  N   UNL     1       0.152  11.329  19.847  0.00  0.00    +0.000 N 
ATOM     22  C   UNL     1      -0.985  11.175  19.101  0.00  0.00    +0.000 A 
ATOM     23  C   UNL     1      -2.246  11.758  19.279  0.00  0.00    +0.000 A 
ATOM     24  C   UNL     1      -3.239  11.433  18.358  0.00  0.00    +0.000 A 
ATOM     25  C   UNL     1      -2.997  10.499  17.358  0.00  0.00    +0.000 A 
ATOM     26  C   UNL     1      -1.743   9.867  17.247  0.00  0.00    +0.000 A 
ATOM     27  C   UNL     1      -0.678  10.257  18.089  0.00  0.00    +0.000 A 
ATOM     28  H   UNL     1       0.198  11.792  20.745  0.00  0.00    +0.000 HD
ENDBRANCH  18  19
ENDBRANCH  17  18
ENDBRANCH  16  17
ENDBRANCH   6  16
TORSDOF 11
ENDMDL
MODEL 8
REMARK VINA RESULT:      -6.6      2.592      4.303
REMARK  Name = 
REMARK  11 active torsions:
REMARK  status: ('A' for Active; 'I' for Inactive)
REMARK    1  A    between atoms: N_1  and  C_2
REMARK    2  A    between atoms: C_2  and  C_3
REMARK    3  A    between atoms: C_3  and  C_4
REMARK    4  A    between atoms: C_4  and  C_5
REMARK    5  A    between atoms: C_5  and  C_6
REMARK    6  A    between atoms: C_6  and  O_7
REMARK    7  A    between atoms: O_7  and  C_8
REMARK    8  A    between atoms: C_13  and  O_14
REMARK    9  A    between atoms: O_14  and  C_15
REMARK   10  A    between atoms: C_15  and  C_16
REMARK   11  A    between atoms: C_16  and  C_17
REMARK                            x       y       z     vdW  Elec       q    Type
REMARK                         _______ _______ _______ _____ _____    ______ ____
ROOT
ATOM      1  C   UNL     1       2.876   4.466  18.313  0.00  0.00    +0.000 A 
ATOM      2  C   UNL     1       2.641   3.284  19.040  0.00  0.00    +0.000 A 
ATOM      3  C   UNL     1       2.080   3.322  20.311  0.00  0.00    +0.000 A 
ATOM      4  C   UNL     1       1.748   4.547  20.874  0.00  0.00    +0.000 A 
ATOM      5  C   UNL     1       1.985   5.733  20.169  0.00  0.00    +0.000 A 
ATOM      6  C   UNL     1       2.570   5.718  18.893  0.00  0.00    +0.000 A 
ENDROOT
BRANCH   1   7
ATOM      7  O   UNL     1       3.410   4.187  17.077  0.00  0.00    +0.000 OA
BRANCH   7   8
ATOM      8  C   UNL     1       4.821   4.157  16.990  0.00  0.00    +0.000 C 
BRANCH   8   9
ATOM      9  C   UNL     1       5.329   5.438  16.334  0.00  0.00    +0.000 C 
BRANCH   9  10
ATOM     10  C   UNL     1       6.036   6.274  17.399  0.00  0.00    +0.000 C 
BRANCH  10  11
ATOM     11  C   UNL     1       6.346   5.506  18.680  0.00  0.00    +0.000 C 
BRANCH  11  12
ATOM     12  C   UNL     1       7.827   5.637  19.026  0.00  0.00    +0.000 C 
BRANCH  12  13
ATOM     13  N   UNL     1       8.039   5.470  20.444  0.00  0.00    +0.000 NA
ATOM     14  H   UNL     1       7.592   6.242  20.937  0.00  0.00    +0.000 HD
ATOM     15  H   UNL     1       9.035   5.534  20.653  0.00  0.00    +0.000 HD
ENDBRANCH  12  13
ENDBRANCH  11  12
ENDBRANCH  10  11
ENDBRANCH   9  10
ENDBRANCH   8   9
ENDBRANCH   7   8
ENDBRANCH   1   7
BRANCH   6  16
ATOM     16  O   UNL     1       2.722   6.883  18.174  0.00  0.00    +0.000 OA
BRANCH  16  17
ATOM     17  C   UNL     1       2.229   8.097  18.765  0.00  0.00    +0.000 C 
BRANCH  17  18
ATOM     18  C   UNL     1       1.362   8.884  17.783  0.00  0.00    +0.000 C 
BRANCH  18  19
ATOM     19  C   UNL     1       0.409   9.963  18.251  0.00  0.00    +0.000 A 
ATOM     20  C   UNL     1       0.767  10.877  19.233  0.00  0.00    +0.000 A 
ATOM     21  N   UNL     1      -0.386  11.325  19.810  0.00  0.00    +0.000 N 
ATOM     22  C   UNL     1      -1.421  11.161  18.929  0.00  0.00    +0.000 A 
ATOM     23  C   UNL     1      -2.706  11.716  18.959  0.00  0.00    +0.000 A 
ATOM     24  C   UNL     1      -3.572  11.388  17.919  0.00  0.00    +0.000 A 
ATOM     25  C   UNL     1      -3.190  10.475  16.943  0.00  0.00    +0.000 A 
ATOM     26  C   UNL     1      -1.919   9.870  16.978  0.00  0.00    +0.000 A 
ATOM     27  C   UNL     1      -0.973  10.266  17.948  0.00  0.00    +0.000 A 
ATOM     28  H   UNL     1      -0.460  11.773  20.713  0.00  0.00    +0.000 HD
ENDBRANCH  18  19
ENDBRANCH  17  18
ENDBRANCH  16  17
ENDBRANCH   6  16
TORSDOF 11
ENDMDL
MODEL 9
REMARK VINA RESULT:      -6.6      3.321      6.485
REMARK  Name = 
REMARK  11 active torsions:
REMARK  status: ('A' for Active; 'I' for Inactive)
REMARK    1  A    between atoms: N_1  and  C_2
REMARK    2  A    between atoms: C_2  and  C_3
REMARK    3  A    between atoms: C_3  and  C_4
REMARK    4  A    between atoms: C_4  and  C_5
REMARK    5  A    between atoms: C_5  and  C_6
REMARK    6  A    between atoms: C_6  and  O_7
REMARK    7  A    between atoms: O_7  and  C_8
REMARK    8  A    between atoms: C_13  and  O_14
REMARK    9  A    between atoms: O_14  and  C_15
REMARK   10  A    between atoms: C_15  and  C_16
REMARK   11  A    between atoms: C_16  and  C_17
REMARK                            x       y       z     vdW  Elec       q    Type
REMARK                         _______ _______ _______ _____ _____    ______ ____
ROOT
ATOM      1  C   UNL     1       6.125   5.211  16.051  0.00  0.00    +0.000 A 
ATOM      2  C   UNL     1       7.227   4.476  16.525  0.00  0.00    +0.000 A 
ATOM      3  C   UNL     1       7.628   4.559  17.853  0.00  0.00    +0.000 A 
ATOM      4  C   UNL     1       6.931   5.383  18.726  0.00  0.00    +0.000 A 
ATOM      5  C   UNL     1       5.838   6.130  18.269  0.00  0.00    +0.000 A 
ATOM      6  C   UNL     1       5.430   6.076  16.927  0.00  0.00    +0.000 A 
ENDROOT
BRANCH   1   7
ATOM      7  O   UNL     1       5.896   4.954  14.720  0.00  0.00    +0.000 OA
BRANCH   7   8
ATOM      8  C   UNL     1       6.915   4.263  14.024  0.00  0.00    +0.000 C 
BRANCH   8   9
ATOM      9  C   UNL     1       6.528   4.107  12.556  0.00  0.00    +0.000 C 
BRANCH   9  10
ATOM     10  C   UNL     1       5.121   3.518  12.491  0.00  0.00    +0.000 C 
BRANCH  10  11
ATOM     11  C   UNL     1       4.980   2.368  11.499  0.00  0.00    +0.000 C 
BRANCH  11  12
ATOM     12  C   UNL     1       6.341   1.725  11.242  0.00  0.00    +0.000 C 
BRANCH  12  13
ATOM     13  N   UNL     1       6.217   0.292  11.123  0.00  0.00    +0.000 NA
ATOM     14  H   UNL     1       6.526   0.010  10.194  0.00  0.00    +0.000 HD
ATOM     15  H   UNL     1       5.236   0.025  11.192  0.00  0.00    +0.000 HD
ENDBRANCH  12  13
ENDBRANCH  11  12
ENDBRANCH  10  11
ENDBRANCH   9  10
ENDBRANCH   8   9
ENDBRANCH   7   8
ENDBRANCH   1   7
BRANCH   6  16
ATOM     16  O   UNL     1       4.304   6.749  16.506  0.00  0.00    +0.000 OA
BRANCH  16  17
ATOM     17  C   UNL     1       3.786   7.778  17.365  0.00  0.00    +0.000 C 
BRANCH  17  18
ATOM     18  C   UNL     1       2.418   7.396  17.932  0.00  0.00    +0.000 C 
BRANCH  18  19
ATOM     19  C   UNL     1       2.247   6.230  18.881  0.00  0.00    +0.000 A 
ATOM     20  C   UNL     1       2.035   6.420  20.240  0.00  0.00    +0.000 A 
ATOM     21  N   UNL     1       2.457   5.290  20.878  0.00  0.00    +0.000 N 
ATOM     22  C   UNL     1       2.422   4.241  20.000  0.00  0.00    +0.000 A 
ATOM     23  C   UNL     1       2.491   2.866  20.260  0.00  0.00    +0.000 A 
ATOM     24  C   UNL     1       2.422   2.002  19.170  0.00  0.00    +0.000 A 
ATOM     25  C   UNL     1       2.375   2.502  17.874  0.00  0.00    +0.000 A 
ATOM     26  C   UNL     1       2.387   3.890  17.634  0.00  0.00    +0.000 A 
ATOM     27  C   UNL     1       2.337   4.796  18.717  0.00  0.00    +0.000 A 
ATOM     28  H   UNL     1       2.690   5.217  21.859  0.00  0.00    +0.000 HD
ENDBRANCH  18  19
ENDBRANCH  17  18
ENDBRANCH  16  17
ENDBRANCH   6  16
TORSDOF 11
ENDMDL
