MODEL 1
REMARK VINA RESULT:      -8.4      0.000      0.000
REMARK  Name = 
REMARK  4 active torsions:
REMARK  status: ('A' for Active; 'I' for Inactive)
REMARK    1  A    between atoms: C_4  and  C_5
REMARK    2  A    between atoms: C_8  and  C_9
REMARK    3  A    between atoms: N_23  and  C_24
REMARK    4  A    between atoms: C_24  and  C_25
REMARK                            x       y       z     vdW  Elec       q    Type
REMARK                         _______ _______ _______ _____ _____    ______ ____
ROOT
ATOM      1  O   UNL     1       0.859   9.679  23.264  0.00  0.00    +0.000 OA
ATOM      2  C   UNL     1       0.950   9.444  22.063  0.00  0.00    +0.000 A 
ATOM      3  N   UNL     1       1.473   8.266  21.596  0.00  0.00    +0.000 N 
ATOM      4  C   UNL     1       1.617   7.968  20.250  0.00  0.00    +0.000 A 
ATOM      5  N   UNL     1       1.309   8.792  19.291  0.00  0.00    +0.000 NA
ATOM      6  C   UNL     1       0.778   9.972  19.709  0.00  0.00    +0.000 A 
ATOM      7  S   UNL     1       0.308  11.200  18.612  0.00  0.00    +0.000 S 
ATOM      8  C   UNL     1      -0.205  12.216  19.879  0.00  0.00    +0.000 A 
ATOM      9  C   UNL     1      -0.071  11.621  21.119  0.00  0.00    +0.000 A 
ATOM     10  C   UNL     1       0.547  10.350  21.018  0.00  0.00    +0.000 A 
ATOM     11  C   UNL     1      -0.490  12.331  22.369  0.00  0.00    +0.000 C 
ATOM     12  C   UNL     1      -1.307  13.594  22.022  0.00  0.00    +0.000 C 
ATOM     13  N   UNL     1      -0.744  14.409  20.914  0.00  0.00    +0.000 NA
ATOM     14  C   UNL     1      -0.757  13.602  19.659  0.00  0.00    +0.000 C 
ATOM     15  H   UNL     1       1.803   7.643  22.315  0.00  0.00    +0.000 HD
ENDROOT
BRANCH   4  16
ATOM     16  C   UNL     1       2.171   6.622  19.962  0.00  0.00    +0.000 A 
ATOM     17  C   UNL     1       3.082   6.441  18.913  0.00  0.00    +0.000 A 
ATOM     18  C   UNL     1       3.575   5.168  18.627  0.00  0.00    +0.000 A 
ATOM     19  C   UNL     1       3.175   4.062  19.393  0.00  0.00    +0.000 A 
ATOM     20  C   UNL     1       2.283   4.258  20.461  0.00  0.00    +0.000 A 
ATOM     21  C   UNL     1       1.786   5.534  20.748  0.00  0.00    +0.000 A 
BRANCH  19  22
ATOM     22  C   UNL     1       3.701   2.682  19.081  0.00  0.00    +0.000 C 
ATOM     23  F   UNL     1       4.748   2.311  19.870  0.00  0.00    +0.000 F 
ATOM     24  F   UNL     1       2.754   1.717  19.235  0.00  0.00    +0.000 F 
ATOM     25  F   UNL     1       4.145   2.574  17.799  0.00  0.00    +0.000 F 
ENDBRANCH  19  22
ENDBRANCH   4  16
BRANCH  13  26
ATOM     26  C   UNL     1       0.627  14.894  21.187  0.00  0.00    +0.000 C 
BRANCH  26  27
ATOM     27  C   UNL     1       1.327  15.546  20.010  0.00  0.00    +0.000 A 
ATOM     28  C   UNL     1       2.440  14.925  19.418  0.00  0.00    +0.000 A 
ATOM     29  C   UNL     1       3.079  15.508  18.322  0.00  0.00    +0.000 A 
ATOM     30  C   UNL     1       2.610  16.710  17.800  0.00  0.00    +0.000 A 
ATOM     31  C   UNL     1       1.503  17.333  18.376  0.00  0.00    +0.000 A 
ATOM     32  C   UNL     1       0.865  16.756  19.476  0.00  0.00    +0.000 A 
ENDBRANCH  26  27
ENDBRANCH  13  26
TORSDOF 4
ENDMDL
MODEL 2
REMARK VINA RESULT:      -8.3      0.065      1.100
REMARK  Name = 
REMARK  4 active torsions:
REMARK  status: ('A' for Active; 'I' for Inactive)
REMARK    1  A    between atoms: C_4  and  C_5
REMARK    2  A    between atoms: C_8  and  C_9
REMARK    3  A    between atoms: N_23  and  C_24
REMARK    4  A    between atoms: C_24  and  C_25
REMARK                            x       y       z     vdW  Elec       q    Type
REMARK                         _______ _______ _______ _____ _____    ______ ____
ROOT
ATOM      1  O   UNL     1       0.878   9.679  23.238  0.00  0.00    +0.000 OA
ATOM      2  C   UNL     1       0.959   9.451  22.035  0.00  0.00    +0.000 A 
ATOM      3  N   UNL     1       1.487   8.281  21.557  0.00  0.00    +0.000 N 
ATOM      4  C   UNL     1       1.621   7.990  20.208  0.00  0.00    +0.000 A 
ATOM      5  N   UNL     1       1.296   8.816  19.257  0.00  0.00    +0.000 NA
ATOM      6  C   UNL     1       0.759   9.989  19.686  0.00  0.00    +0.000 A 
ATOM      7  S   UNL     1       0.268  11.219  18.600  0.00  0.00    +0.000 S 
ATOM      8  C   UNL     1      -0.242  12.224  19.877  0.00  0.00    +0.000 A 
ATOM      9  C   UNL     1      -0.091  11.624  21.112  0.00  0.00    +0.000 A 
ATOM     10  C   UNL     1       0.538  10.359  20.999  0.00  0.00    +0.000 A 
ATOM     11  C   UNL     1      -0.503  12.324  22.370  0.00  0.00    +0.000 C 
ATOM     12  C   UNL     1      -1.335  13.581  22.037  0.00  0.00    +0.000 C 
ATOM     13  N   UNL     1      -0.789  14.407  20.928  0.00  0.00    +0.000 NA
ATOM     14  C   UNL     1      -0.808  13.606  19.670  0.00  0.00    +0.000 C 
ATOM     15  H   UNL     1       1.830   7.657  22.270  0.00  0.00    +0.000 HD
ENDROOT
BRANCH   4  16
ATOM     16  C   UNL     1       2.183   6.651  19.908  0.00  0.00    +0.000 A 
ATOM     17  C   UNL     1       3.035   6.470  18.810  0.00  0.00    +0.000 A 
ATOM     18  C   UNL     1       3.535   5.203  18.514  0.00  0.00    +0.000 A 
ATOM     19  C   UNL     1       3.203   4.102  19.318  0.00  0.00    +0.000 A 
ATOM     20  C   UNL     1       2.370   4.297  20.433  0.00  0.00    +0.000 A 
ATOM     21  C   UNL     1       1.866   5.568  20.731  0.00  0.00    +0.000 A 
BRANCH  19  22
ATOM     22  C   UNL     1       3.736   2.727  18.996  0.00  0.00    +0.000 C 
ATOM     23  F   UNL     1       4.199   2.612  17.719  0.00  0.00    +0.000 F 
ATOM     24  F   UNL     1       4.771   2.368  19.803  0.00  0.00    +0.000 F 
ATOM     25  F   UNL     1       2.792   1.758  19.138  0.00  0.00    +0.000 F 
ENDBRANCH  19  22
ENDBRANCH   4  16
BRANCH  13  26
ATOM     26  C   UNL     1       0.580  14.902  21.191  0.00  0.00    +0.000 C 
BRANCH  26  27
ATOM     27  C   UNL     1       1.282  15.520  19.997  0.00  0.00    +0.000 A 
ATOM     28  C   UNL     1       0.837  16.745  19.471  0.00  0.00    +0.000 A 
ATOM     29  C   UNL     1       1.488  17.332  18.385  0.00  0.00    +0.000 A 
ATOM     30  C   UNL     1       2.596  16.707  17.817  0.00  0.00    +0.000 A 
ATOM     31  C   UNL     1       3.051  15.494  18.333  0.00  0.00    +0.000 A 
ATOM     32  C   UNL     1       2.398  14.903  19.416  0.00  0.00    +0.000 A 
ENDBRANCH  26  27
ENDBRANCH  13  26
TORSDOF 4
ENDMDL
MODEL 3
REMARK VINA RESULT:      -8.3      1.519      2.210
REMARK  Name = 
REMARK  4 active torsions:
REMARK  status: ('A' for Active; 'I' for Inactive)
REMARK    1  A    between atoms: C_4  and  C_5
REMARK    2  A    between atoms: C_8  and  C_9
REMARK    3  A    between atoms: N_23  and  C_24
REMARK    4  A    between atoms: C_24  and  C_25
REMARK                            x       y       z     vdW  Elec       q    Type
REMARK                         _______ _______ _______ _____ _____    ______ ____
ROOT
ATOM      1  O   UNL     1       0.958   9.704  23.253  0.00  0.00    +0.000 OA
ATOM      2  C   UNL     1       0.829   9.544  22.044  0.00  0.00    +0.000 A 
ATOM      3  N   UNL     1       1.551   8.601  21.358  0.00  0.00    +0.000 N 
ATOM      4  C   UNL     1       1.455   8.402  19.990  0.00  0.00    +0.000 A 
ATOM      5  N   UNL     1       0.699   9.116  19.208  0.00  0.00    +0.000 NA
ATOM      6  C   UNL     1      -0.043  10.060  19.847  0.00  0.00    +0.000 A 
ATOM      7  S   UNL     1      -1.100  11.112  19.006  0.00  0.00    +0.000 S 
ATOM      8  C   UNL     1      -1.577  11.881  20.449  0.00  0.00    +0.000 A 
ATOM      9  C   UNL     1      -0.984  11.321  21.565  0.00  0.00    +0.000 A 
ATOM     10  C   UNL     1      -0.059  10.309  21.206  0.00  0.00    +0.000 A 
ATOM     11  C   UNL     1      -1.287  11.828  22.941  0.00  0.00    +0.000 C 
ATOM     12  C   UNL     1      -2.499  12.784  22.906  0.00  0.00    +0.000 C 
ATOM     13  N   UNL     1      -2.480  13.766  21.791  0.00  0.00    +0.000 NA
ATOM     14  C   UNL     1      -2.550  13.032  20.494  0.00  0.00    +0.000 C 
ATOM     15  H   UNL     1       2.211   8.091  21.923  0.00  0.00    +0.000 HD
ENDROOT
BRANCH   4  16
ATOM     16  C   UNL     1       2.298   7.304  19.456  0.00  0.00    +0.000 A 
ATOM     17  C   UNL     1       2.957   7.451  18.228  0.00  0.00    +0.000 A 
ATOM     18  C   UNL     1       3.722   6.404  17.716  0.00  0.00    +0.000 A 
ATOM     19  C   UNL     1       3.851   5.202  18.429  0.00  0.00    +0.000 A 
ATOM     20  C   UNL     1       3.209   5.074  19.673  0.00  0.00    +0.000 A 
ATOM     21  C   UNL     1       2.439   6.123  20.187  0.00  0.00    +0.000 A 
BRANCH  19  22
ATOM     22  C   UNL     1       4.672   4.064  17.874  0.00  0.00    +0.000 C 
ATOM     23  F   UNL     1       4.703   4.033  16.512  0.00  0.00    +0.000 F 
ATOM     24  F   UNL     1       5.971   4.114  18.277  0.00  0.00    +0.000 F 
ATOM     25  F   UNL     1       4.202   2.847  18.262  0.00  0.00    +0.000 F 
ENDBRANCH  19  22
ENDBRANCH   4  16
BRANCH  13  26
ATOM     26  C   UNL     1      -1.290  14.645  21.810  0.00  0.00    +0.000 C 
BRANCH  26  27
ATOM     27  C   UNL     1      -1.160  15.579  20.621  0.00  0.00    +0.000 A 
ATOM     28  C   UNL     1      -2.063  16.642  20.456  0.00  0.00    +0.000 A 
ATOM     29  C   UNL     1      -1.940  17.519  19.376  0.00  0.00    +0.000 A 
ATOM     30  C   UNL     1      -0.909  17.350  18.456  0.00  0.00    +0.000 A 
ATOM     31  C   UNL     1      -0.002  16.302  18.613  0.00  0.00    +0.000 A 
ATOM     32  C   UNL     1      -0.127  15.420  19.689  0.00  0.00    +0.000 A 
ENDBRANCH  26  27
ENDBRANCH  13  26
TORSDOF 4
ENDMDL
MODEL 4
REMARK VINA RESULT:      -8.3      1.524      2.188
REMARK  Name = 
REMARK  4 active torsions:
REMARK  status: ('A' for Active; 'I' for Inactive)
REMARK    1  A    between atoms: C_4  and  C_5
REMARK    2  A    between atoms: C_8  and  C_9
REMARK    3  A    between atoms: N_23  and  C_24
REMARK    4  A    between atoms: C_24  and  C_25
REMARK                            x       y       z     vdW  Elec       q    Type
REMARK                         _______ _______ _______ _____ _____    ______ ____
ROOT
ATOM      1  O   UNL     1       0.931   9.658  23.300  0.00  0.00    +0.000 OA
ATOM      2  C   UNL     1       0.801   9.514  22.089  0.00  0.00    +0.000 A 
ATOM      3  N   UNL     1       1.517   8.575  21.393  0.00  0.00    +0.000 N 
ATOM      4  C   UNL     1       1.421   8.393  20.022  0.00  0.00    +0.000 A 
ATOM      5  N   UNL     1       0.672   9.123  19.248  0.00  0.00    +0.000 NA
ATOM      6  C   UNL     1      -0.063  10.064  19.898  0.00  0.00    +0.000 A 
ATOM      7  S   UNL     1      -1.111  11.135  19.068  0.00  0.00    +0.000 S 
ATOM      8  C   UNL     1      -1.583  11.890  20.520  0.00  0.00    +0.000 A 
ATOM      9  C   UNL     1      -0.997  11.312  21.630  0.00  0.00    +0.000 A 
ATOM     10  C   UNL     1      -0.079  10.297  21.260  0.00  0.00    +0.000 A 
ATOM     11  C   UNL     1      -1.297  11.805  23.012  0.00  0.00    +0.000 C 
ATOM     12  C   UNL     1      -2.501  12.770  22.987  0.00  0.00    +0.000 C 
ATOM     13  N   UNL     1      -2.474  13.766  21.884  0.00  0.00    +0.000 NA
ATOM     14  C   UNL     1      -2.547  13.048  20.578  0.00  0.00    +0.000 C 
ATOM     15  H   UNL     1       2.172   8.052  21.952  0.00  0.00    +0.000 HD
ENDROOT
BRANCH   4  16
ATOM     16  C   UNL     1       2.256   7.295  19.476  0.00  0.00    +0.000 A 
ATOM     17  C   UNL     1       2.373   6.083  20.167  0.00  0.00    +0.000 A 
ATOM     18  C   UNL     1       3.185   5.066  19.665  0.00  0.00    +0.000 A 
ATOM     19  C   UNL     1       3.879   5.242  18.458  0.00  0.00    +0.000 A 
ATOM     20  C   UNL     1       3.733   6.451  17.757  0.00  0.00    +0.000 A 
ATOM     21  C   UNL     1       2.922   7.472  18.260  0.00  0.00    +0.000 A 
BRANCH  19  22
ATOM     22  C   UNL     1       4.764   4.146  17.915  0.00  0.00    +0.000 C 
ATOM     23  F   UNL     1       4.299   2.893  18.182  0.00  0.00    +0.000 F 
ATOM     24  F   UNL     1       4.907   4.213  16.564  0.00  0.00    +0.000 F 
ATOM     25  F   UNL     1       6.022   4.193  18.431  0.00  0.00    +0.000 F 
ENDBRANCH  19  22
ENDBRANCH   4  16
BRANCH  13  26
ATOM     26  C   UNL     1      -1.276  14.635  21.915  0.00  0.00    +0.000 C 
BRANCH  26  27
ATOM     27  C   UNL     1      -1.127  15.569  20.730  0.00  0.00    +0.000 A 
ATOM     28  C   UNL     1      -0.097  15.367  19.796  0.00  0.00    +0.000 A 
ATOM     29  C   UNL     1       0.037  16.210  18.690  0.00  0.00    +0.000 A 
ATOM     30  C   UNL     1      -0.860  17.257  18.501  0.00  0.00    +0.000 A 
ATOM     31  C   UNL     1      -1.891  17.465  19.418  0.00  0.00    +0.000 A 
ATOM     32  C   UNL     1      -2.023  16.627  20.527  0.00  0.00    +0.000 A 
ENDBRANCH  26  27
ENDBRANCH  13  26
TORSDOF 4
ENDMDL
MODEL 5
REMARK VINA RESULT:      -8.2      0.107      1.097
REMARK  Name = 
REMARK  4 active torsions:
REMARK  status: ('A' for Active; 'I' for Inactive)
REMARK    1  A    between atoms: C_4  and  C_5
REMARK    2  A    between atoms: C_8  and  C_9
REMARK    3  A    between atoms: N_23  and  C_24
REMARK    4  A    between atoms: C_24  and  C_25
REMARK                            x       y       z     vdW  Elec       q    Type
REMARK                         _______ _______ _______ _____ _____    ______ ____
ROOT
ATOM      1  O   UNL     1       0.803   9.691  23.281  0.00  0.00    +0.000 OA
ATOM      2  C   UNL     1       0.897   9.465  22.079  0.00  0.00    +0.000 A 
ATOM      3  N   UNL     1       1.422   8.291  21.604  0.00  0.00    +0.000 N 
ATOM      4  C   UNL     1       1.570   8.003  20.256  0.00  0.00    +0.000 A 
ATOM      5  N   UNL     1       1.264   8.835  19.303  0.00  0.00    +0.000 NA
ATOM      6  C   UNL     1       0.732  10.011  19.728  0.00  0.00    +0.000 A 
ATOM      7  S   UNL     1       0.266  11.248  18.639  0.00  0.00    +0.000 S 
ATOM      8  C   UNL     1      -0.251  12.254  19.912  0.00  0.00    +0.000 A 
ATOM      9  C   UNL     1      -0.121  11.650  21.148  0.00  0.00    +0.000 A 
ATOM     10  C   UNL     1       0.498  10.379  21.039  0.00  0.00    +0.000 A 
ATOM     11  C   UNL     1      -0.544  12.349  22.403  0.00  0.00    +0.000 C 
ATOM     12  C   UNL     1      -1.360  13.615  22.063  0.00  0.00    +0.000 C 
ATOM     13  N   UNL     1      -0.794  14.439  20.963  0.00  0.00    +0.000 NA
ATOM     14  C   UNL     1      -0.803  13.641  19.702  0.00  0.00    +0.000 C 
ATOM     15  H   UNL     1       1.750   7.663  22.319  0.00  0.00    +0.000 HD
ENDROOT
BRANCH   4  16
ATOM     16  C   UNL     1       2.125   6.660  19.959  0.00  0.00    +0.000 A 
ATOM     17  C   UNL     1       1.836   5.574  20.796  0.00  0.00    +0.000 A 
ATOM     18  C   UNL     1       2.386   4.320  20.531  0.00  0.00    +0.000 A 
ATOM     19  C   UNL     1       3.221   4.132  19.418  0.00  0.00    +0.000 A 
ATOM     20  C   UNL     1       3.482   5.220  18.568  0.00  0.00    +0.000 A 
ATOM     21  C   UNL     1       2.933   6.479  18.834  0.00  0.00    +0.000 A 
BRANCH  19  22
ATOM     22  C   UNL     1       3.823   2.778  19.131  0.00  0.00    +0.000 C 
ATOM     23  F   UNL     1       4.372   2.682  17.888  0.00  0.00    +0.000 F 
ATOM     24  F   UNL     1       4.815   2.454  20.005  0.00  0.00    +0.000 F 
ATOM     25  F   UNL     1       2.906   1.775  19.211  0.00  0.00    +0.000 F 
ENDBRANCH  19  22
ENDBRANCH   4  16
BRANCH  13  26
ATOM     26  C   UNL     1       0.577  14.922  21.244  0.00  0.00    +0.000 C 
BRANCH  26  27
ATOM     27  C   UNL     1       1.284  15.575  20.072  0.00  0.00    +0.000 A 
ATOM     28  C   UNL     1       2.386  14.944  19.471  0.00  0.00    +0.000 A 
ATOM     29  C   UNL     1       3.031  15.527  18.379  0.00  0.00    +0.000 A 
ATOM     30  C   UNL     1       2.579  16.742  17.870  0.00  0.00    +0.000 A 
ATOM     31  C   UNL     1       1.482  17.375  18.454  0.00  0.00    +0.000 A 
ATOM     32  C   UNL     1       0.838  16.796  19.550  0.00  0.00    +0.000 A 
ENDBRANCH  26  27
ENDBRANCH  13  26
TORSDOF 4
ENDMDL
MODEL 6
REMARK VINA RESULT:      -8.2      2.853      4.934
REMARK  Name = 
REMARK  4 active torsions:
REMARK  status: ('A' for Active; 'I' for Inactive)
REMARK    1  A    between atoms: C_4  and  C_5
REMARK    2  A    between atoms: C_8  and  C_9
REMARK    3  A    between atoms: N_23  and  C_24
REMARK    4  A    between atoms: C_24  and  C_25
REMARK                            x       y       z     vdW  Elec       q    Type
REMARK                         _______ _______ _______ _____ _____    ______ ____
ROOT
ATOM      1  O   UNL     1       1.250  11.761  18.307  0.00  0.00    +0.000 OA
ATOM      2  C   UNL     1       1.246  10.723  18.960  0.00  0.00    +0.000 A 
ATOM      3  N   UNL     1       1.884   9.591  18.522  0.00  0.00    +0.000 N 
ATOM      4  C   UNL     1       1.886   8.391  19.215  0.00  0.00    +0.000 A 
ATOM      5  N   UNL     1       1.248   8.202  20.333  0.00  0.00    +0.000 NA
ATOM      6  C   UNL     1       0.607   9.302  20.810  0.00  0.00    +0.000 A 
ATOM      7  S   UNL     1      -0.297   9.272  22.265  0.00  0.00    +0.000 S 
ATOM      8  C   UNL     1      -0.706  10.918  22.113  0.00  0.00    +0.000 A 
ATOM      9  C   UNL     1      -0.129  11.504  21.003  0.00  0.00    +0.000 A 
ATOM     10  C   UNL     1       0.581  10.554  20.227  0.00  0.00    +0.000 A 
ATOM     11  C   UNL     1      -0.336  12.955  20.696  0.00  0.00    +0.000 C 
ATOM     12  C   UNL     1      -0.987  13.671  21.899  0.00  0.00    +0.000 C 
ATOM     13  N   UNL     1      -2.108  12.926  22.529  0.00  0.00    +0.000 NA
ATOM     14  C   UNL     1      -1.587  11.648  23.095  0.00  0.00    +0.000 C 
ATOM     15  H   UNL     1       2.313   9.681  17.615  0.00  0.00    +0.000 HD
ENDROOT
BRANCH   4  16
ATOM     16  C   UNL     1       2.669   7.302  18.581  0.00  0.00    +0.000 A 
ATOM     17  C   UNL     1       3.635   7.598  17.610  0.00  0.00    +0.000 A 
ATOM     18  C   UNL     1       4.346   6.568  16.994  0.00  0.00    +0.000 A 
ATOM     19  C   UNL     1       4.111   5.231  17.349  0.00  0.00    +0.000 A 
ATOM     20  C   UNL     1       3.161   4.946  18.344  0.00  0.00    +0.000 A 
ATOM     21  C   UNL     1       2.445   5.977  18.962  0.00  0.00    +0.000 A 
BRANCH  19  22
ATOM     22  C   UNL     1       4.874   4.114  16.680  0.00  0.00    +0.000 C 
ATOM     23  F   UNL     1       6.198   4.093  17.002  0.00  0.00    +0.000 F 
ATOM     24  F   UNL     1       4.390   2.884  17.005  0.00  0.00    +0.000 F 
ATOM     25  F   UNL     1       4.823   4.193  15.322  0.00  0.00    +0.000 F 
ENDBRANCH  19  22
ENDBRANCH   4  16
BRANCH  13  26
ATOM     26  C   UNL     1      -3.220  12.646  21.592  0.00  0.00    +0.000 C 
BRANCH  26  27
ATOM     27  C   UNL     1      -4.607  12.702  22.203  0.00  0.00    +0.000 A 
ATOM     28  C   UNL     1      -4.766  12.975  23.572  0.00  0.00    +0.000 A 
ATOM     29  C   UNL     1      -6.040  13.048  24.140  0.00  0.00    +0.000 A 
ATOM     30  C   UNL     1      -7.167  12.857  23.346  0.00  0.00    +0.000 A 
ATOM     31  C   UNL     1      -7.023  12.591  21.985  0.00  0.00    +0.000 A 
ATOM     32  C   UNL     1      -5.750  12.512  21.416  0.00  0.00    +0.000 A 
ENDBRANCH  26  27
ENDBRANCH  13  26
TORSDOF 4
ENDMDL
MODEL 7
REMARK VINA RESULT:      -8.2      1.232      1.677
REMARK  Name = 
REMARK  4 active torsions:
REMARK  status: ('A' for Active; 'I' for Inactive)
REMARK    1  A    between atoms: C_4  and  C_5
REMARK    2  A    between atoms: C_8  and  C_9
REMARK    3  A    between atoms: N_23  and  C_24
REMARK    4  A    between atoms: C_24  and  C_25
REMARK                            x       y       z     vdW  Elec       q    Type
REMARK                         _______ _______ _______ _____ _____    ______ ____
ROOT
ATOM      1  O   UNL     1       0.827   9.631  23.404  0.00  0.00    +0.000 OA
ATOM      2  C   UNL     1       0.757   9.463  22.191  0.00  0.00    +0.000 A 
ATOM      3  N   UNL     1       1.448   8.462  21.559  0.00  0.00    +0.000 N 
ATOM      4  C   UNL     1       1.418   8.251  20.189  0.00  0.00    +0.000 A 
ATOM      5  N   UNL     1       0.763   9.007  19.357  0.00  0.00    +0.000 NA
ATOM      6  C   UNL     1       0.056  10.010  19.941  0.00  0.00    +0.000 A 
ATOM      7  S   UNL     1      -0.871  11.124  19.029  0.00  0.00    +0.000 S 
ATOM      8  C   UNL     1      -1.374  11.945  20.433  0.00  0.00    +0.000 A 
ATOM      9  C   UNL     1      -0.890  11.360  21.588  0.00  0.00    +0.000 A 
ATOM     10  C   UNL     1      -0.022  10.279  21.294  0.00  0.00    +0.000 A 
ATOM     11  C   UNL     1      -1.235  11.907  22.938  0.00  0.00    +0.000 C 
ATOM     12  C   UNL     1      -2.370  12.947  22.823  0.00  0.00    +0.000 C 
ATOM     13  N   UNL     1      -2.215  13.910  21.701  0.00  0.00    +0.000 NA
ATOM     14  C   UNL     1      -2.262  13.164  20.409  0.00  0.00    +0.000 C 
ATOM     15  H   UNL     1       2.034   7.913  22.167  0.00  0.00    +0.000 HD
ENDROOT
BRANCH   4  16
ATOM     16  C   UNL     1       2.208   7.088  19.717  0.00  0.00    +0.000 A 
ATOM     17  C   UNL     1       2.962   7.175  18.539  0.00  0.00    +0.000 A 
ATOM     18  C   UNL     1       3.677   6.069  18.082  0.00  0.00    +0.000 A 
ATOM     19  C   UNL     1       3.661   4.865  18.804  0.00  0.00    +0.000 A 
ATOM     20  C   UNL     1       2.925   4.795  19.999  0.00  0.00    +0.000 A 
ATOM     21  C   UNL     1       2.205   5.903  20.457  0.00  0.00    +0.000 A 
BRANCH  19  22
ATOM     22  C   UNL     1       4.429   3.663  18.309  0.00  0.00    +0.000 C 
ATOM     23  F   UNL     1       3.710   2.873  17.463  0.00  0.00    +0.000 F 
ATOM     24  F   UNL     1       5.557   4.009  17.630  0.00  0.00    +0.000 F 
ATOM     25  F   UNL     1       4.832   2.852  19.324  0.00  0.00    +0.000 F 
ENDBRANCH  19  22
ENDBRANCH   4  16
BRANCH  13  26
ATOM     26  C   UNL     1      -0.967  14.701  21.781  0.00  0.00    +0.000 C 
BRANCH  26  27
ATOM     27  C   UNL     1      -0.669  15.561  20.568  0.00  0.00    +0.000 A 
ATOM     28  C   UNL     1       0.478  15.318  19.793  0.00  0.00    +0.000 A 
ATOM     29  C   UNL     1       0.750  16.091  18.663  0.00  0.00    +0.000 A 
ATOM     30  C   UNL     1      -0.122  17.110  18.290  0.00  0.00    +0.000 A 
ATOM     31  C   UNL     1      -1.267  17.357  19.047  0.00  0.00    +0.000 A 
ATOM     32  C   UNL     1      -1.539  16.589  20.181  0.00  0.00    +0.000 A 
ENDBRANCH  26  27
ENDBRANCH  13  26
TORSDOF 4
ENDMDL
MODEL 8
REMARK VINA RESULT:      -8.2      0.142      1.421
REMARK  Name = 
REMARK  4 active torsions:
REMARK  status: ('A' for Active; 'I' for Inactive)
REMARK    1  A    between atoms: C_4  and  C_5
REMARK    2  A    between atoms: C_8  and  C_9
REMARK    3  A    between atoms: N_23  and  C_24
REMARK    4  A    between atoms: C_24  and  C_25
REMARK                            x       y       z     vdW  Elec       q    Type
REMARK                         _______ _______ _______ _____ _____    ______ ____
ROOT
ATOM      1  O   UNL     1       0.865   9.672  23.249  0.00  0.00    +0.000 OA
ATOM      2  C   UNL     1       0.951   9.452  22.046  0.00  0.00    +0.000 A 
ATOM      3  N   UNL     1       1.472   8.280  21.561  0.00  0.00    +0.000 N 
ATOM      4  C   UNL     1       1.611   7.999  20.211  0.00  0.00    +0.000 A 
ATOM      5  N   UNL     1       1.300   8.835  19.265  0.00  0.00    +0.000 NA
ATOM      6  C   UNL     1       0.771  10.010  19.699  0.00  0.00    +0.000 A 
ATOM      7  S   UNL     1       0.299  11.252  18.619  0.00  0.00    +0.000 S 
ATOM      8  C   UNL     1      -0.209  12.252  19.901  0.00  0.00    +0.000 A 
ATOM      9  C   UNL     1      -0.072  11.641  21.132  0.00  0.00    +0.000 A 
ATOM     10  C   UNL     1       0.546  10.371  21.013  0.00  0.00    +0.000 A 
ATOM     11  C   UNL     1      -0.486  12.335  22.393  0.00  0.00    +0.000 C 
ATOM     12  C   UNL     1      -1.303  13.603  22.065  0.00  0.00    +0.000 C 
ATOM     13  N   UNL     1      -0.743  14.432  20.966  0.00  0.00    +0.000 NA
ATOM     14  C   UNL     1      -0.761  13.641  19.701  0.00  0.00    +0.000 C 
ATOM     15  H   UNL     1       1.804   7.647  22.272  0.00  0.00    +0.000 HD
ENDROOT
BRANCH   4  16
ATOM     16  C   UNL     1       2.163   6.656  19.905  0.00  0.00    +0.000 A 
ATOM     17  C   UNL     1       1.910   5.575  20.758  0.00  0.00    +0.000 A 
ATOM     18  C   UNL     1       2.458   4.322  20.482  0.00  0.00    +0.000 A 
ATOM     19  C   UNL     1       3.253   4.130  19.342  0.00  0.00    +0.000 A 
ATOM     20  C   UNL     1       3.478   5.214  18.476  0.00  0.00    +0.000 A 
ATOM     21  C   UNL     1       2.932   6.472  18.753  0.00  0.00    +0.000 A 
BRANCH  19  22
ATOM     22  C   UNL     1       3.853   2.778  19.044  0.00  0.00    +0.000 C 
ATOM     23  F   UNL     1       2.928   1.781  18.962  0.00  0.00    +0.000 F 
ATOM     24  F   UNL     1       4.532   2.758  17.864  0.00  0.00    +0.000 F 
ATOM     25  F   UNL     1       4.741   2.383  19.997  0.00  0.00    +0.000 F 
ENDBRANCH  19  22
ENDBRANCH   4  16
BRANCH  13  26
ATOM     26  C   UNL     1       0.629  14.913  21.240  0.00  0.00    +0.000 C 
BRANCH  26  27
ATOM     27  C   UNL     1       1.359  15.496  20.046  0.00  0.00    +0.000 A 
ATOM     28  C   UNL     1       0.941  16.717  19.489  0.00  0.00    +0.000 A 
ATOM     29  C   UNL     1       1.618  17.273  18.402  0.00  0.00    +0.000 A 
ATOM     30  C   UNL     1       2.725  16.621  17.864  0.00  0.00    +0.000 A 
ATOM     31  C   UNL     1       3.154  15.412  18.412  0.00  0.00    +0.000 A 
ATOM     32  C   UNL     1       2.474  14.851  19.496  0.00  0.00    +0.000 A 
ENDBRANCH  26  27
ENDBRANCH  13  26
TORSDOF 4
ENDMDL
MODEL 9
REMARK VINA RESULT:      -8.2      3.012      5.036
REMARK  Name = 
REMARK  4 active torsions:
REMARK  status: ('A' for Active; 'I' for Inactive)
REMARK    1  A    between atoms: C_4  and  C_5
REMARK    2  A    between atoms: C_8  and  C_9
REMARK    3  A    between atoms: N_23  and  C_24
REMARK    4  A    between atoms: C_24  and  C_25
REMARK                            x       y       z     vdW  Elec       q    Type
REMARK                         _______ _______ _______ _____ _____    ______ ____
ROOT
ATOM      1  O   UNL     1       0.303  11.561  18.424  0.00  0.00    +0.000 OA
ATOM      2  C   UNL     1       0.489  10.677  19.254  0.00  0.00    +0.000 A 
ATOM      3  N   UNL     1       1.224   9.557  18.963  0.00  0.00    +0.000 N 
ATOM      4  C   UNL     1       1.440   8.523  19.860  0.00  0.00    +0.000 A 
ATOM      5  N   UNL     1       0.933   8.490  21.058  0.00  0.00    +0.000 NA
ATOM      6  C   UNL     1       0.203   9.586  21.393  0.00  0.00    +0.000 A 
ATOM      7  S   UNL     1      -0.557   9.744  22.920  0.00  0.00    +0.000 S 
ATOM      8  C   UNL     1      -1.183  11.275  22.515  0.00  0.00    +0.000 A 
ATOM      9  C   UNL     1      -0.786  11.691  21.259  0.00  0.00    +0.000 A 
ATOM     10  C   UNL     1      -0.034  10.689  20.596  0.00  0.00    +0.000 A 
ATOM     11  C   UNL     1      -1.203  13.023  20.715  0.00  0.00    +0.000 C 
ATOM     12  C   UNL     1      -1.830  13.886  21.831  0.00  0.00    +0.000 C 
ATOM     13  N   UNL     1      -2.786  13.163  22.708  0.00  0.00    +0.000 NA
ATOM     14  C   UNL     1      -2.058  12.084  23.438  0.00  0.00    +0.000 C 
ATOM     15  H   UNL     1       1.556   9.513  18.012  0.00  0.00    +0.000 HD
ENDROOT
BRANCH   4  16
ATOM     16  C   UNL     1       2.295   7.422  19.353  0.00  0.00    +0.000 A 
ATOM     17  C   UNL     1       2.982   7.560  18.139  0.00  0.00    +0.000 A 
ATOM     18  C   UNL     1       3.759   6.510  17.652  0.00  0.00    +0.000 A 
ATOM     19  C   UNL     1       3.872   5.313  18.377  0.00  0.00    +0.000 A 
ATOM     20  C   UNL     1       3.202   5.195  19.607  0.00  0.00    +0.000 A 
ATOM     21  C   UNL     1       2.421   6.246  20.096  0.00  0.00    +0.000 A 
BRANCH  19  22
ATOM     22  C   UNL     1       4.706   4.172  17.849  0.00  0.00    +0.000 C 
ATOM     23  F   UNL     1       5.920   4.061  18.459  0.00  0.00    +0.000 F 
ATOM     24  F   UNL     1       4.097   2.965  18.005  0.00  0.00    +0.000 F 
ATOM     25  F   UNL     1       4.969   4.294  16.519  0.00  0.00    +0.000 F 
ENDBRANCH  19  22
ENDBRANCH   4  16
BRANCH  13  26
ATOM     26  C   UNL     1      -3.932  12.587  21.970  0.00  0.00    +0.000 C 
BRANCH  26  27
ATOM     27  C   UNL     1      -5.299  13.042  22.443  0.00  0.00    +0.000 A 
ATOM     28  C   UNL     1      -6.206  13.617  21.536  0.00  0.00    +0.000 A 
ATOM     29  C   UNL     1      -7.474  14.022  21.958  0.00  0.00    +0.000 A 
ATOM     30  C   UNL     1      -7.854  13.849  23.286  0.00  0.00    +0.000 A 
ATOM     31  C   UNL     1      -6.965  13.274  24.195  0.00  0.00    +0.000 A 
ATOM     32  C   UNL     1      -5.694  12.874  23.776  0.00  0.00    +0.000 A 
ENDBRANCH  26  27
ENDBRANCH  13  26
TORSDOF 4
ENDMDL
