MODEL 1
REMARK VINA RESULT:      -7.4      0.000      0.000
REMARK  Name = 
REMARK  2 active torsions:
REMARK  status: ('A' for Active; 'I' for Inactive)
REMARK    1  A    between atoms: C_2  and  C_13
REMARK    2  A    between atoms: N_3  and  C_4
REMARK                            x       y       z     vdW  Elec       q    Type
REMARK                         _______ _______ _______ _____ _____    ______ ____
ROOT
ATOM      1  O   UNL     1       7.854   6.851  16.428  0.00  0.00    +0.000 OA
ATOM      2  C   UNL     1       7.010   7.211  17.241  0.00  0.00    +0.000 C 
ATOM      3  N   UNL     1       7.124   8.367  17.973  0.00  0.00    +0.000 N 
ATOM      4  H   UNL     1       6.465   8.537  18.717  0.00  0.00    +0.000 HD
ENDROOT
BRANCH   2   5
ATOM      5  C   UNL     1       5.816   6.434  17.503  0.00  0.00    +0.000 A 
ATOM      6  C   UNL     1       4.452   6.743  17.392  0.00  0.00    +0.000 A 
ATOM      7  C   UNL     1       3.786   5.601  17.815  0.00  0.00    +0.000 A 
ATOM      8  C   UNL     1       2.441   5.267  17.964  0.00  0.00    +0.000 A 
ATOM      9  C   UNL     1       2.388   3.971  18.450  0.00  0.00    +0.000 A 
ATOM     10 CL   UNL     1       0.971   3.075  18.829  0.00  0.00    +0.000 Cl
ATOM     11  S   UNL     1       3.934   3.241  18.680  0.00  0.00    +0.000 S 
ATOM     12  C   UNL     1       4.656   4.641  18.147  0.00  0.00    +0.000 A 
ATOM     13  N   UNL     1       5.906   5.111  17.945  0.00  0.00    +0.000 N 
ATOM     14  H   UNL     1       6.779   4.619  18.092  0.00  0.00    +0.000 HD
ENDBRANCH   2   5
BRANCH   3  15
ATOM     15  C   UNL     1       8.284   9.237  17.874  0.00  0.00    +0.000 C 
ATOM     16  C   UNL     1       7.899  10.666  17.437  0.00  0.00    +0.000 C 
ATOM     17  C   UNL     1       9.011  11.468  18.033  0.00  0.00    +0.000 A 
ATOM     18  C   UNL     1       9.382  12.765  17.720  0.00  0.00    +0.000 A 
ATOM     19  C   UNL     1      10.444  13.335  18.424  0.00  0.00    +0.000 A 
ATOM     20  C   UNL     1      11.106  12.612  19.430  0.00  0.00    +0.000 A 
ATOM     21  C   UNL     1      10.713  11.310  19.747  0.00  0.00    +0.000 A 
ATOM     22  C   UNL     1       9.667  10.746  19.036  0.00  0.00    +0.000 A 
ATOM     23  C   UNL     1       9.053   9.389  19.207  0.00  0.00    +0.000 C 
ENDBRANCH   3  15
TORSDOF 2
ENDMDL
MODEL 2
REMARK VINA RESULT:      -7.4      4.026      8.657
REMARK  Name = 
REMARK  2 active torsions:
REMARK  status: ('A' for Active; 'I' for Inactive)
REMARK    1  A    between atoms: C_2  and  C_13
REMARK    2  A    between atoms: N_3  and  C_4
REMARK                            x       y       z     vdW  Elec       q    Type
REMARK                         _______ _______ _______ _____ _____    ______ ____
ROOT
ATOM      1  O   UNL     1       7.694   6.843  16.419  0.00  0.00    +0.000 OA
ATOM      2  C   UNL     1       7.240   7.533  17.326  0.00  0.00    +0.000 C 
ATOM      3  N   UNL     1       6.002   7.320  17.878  0.00  0.00    +0.000 N 
ATOM      4  H   UNL     1       5.636   8.001  18.525  0.00  0.00    +0.000 HD
ENDROOT
BRANCH   2   5
ATOM      5  C   UNL     1       7.981   8.644  17.887  0.00  0.00    +0.000 A 
ATOM      6  C   UNL     1       8.841   8.736  18.992  0.00  0.00    +0.000 A 
ATOM      7  C   UNL     1       9.219  10.070  19.046  0.00  0.00    +0.000 A 
ATOM      8  C   UNL     1      10.030  10.810  19.905  0.00  0.00    +0.000 A 
ATOM      9  C   UNL     1      10.015  12.122  19.461  0.00  0.00    +0.000 A 
ATOM     10 CL   UNL     1      10.837  13.454  20.171  0.00  0.00    +0.000 Cl
ATOM     11  S   UNL     1       9.054  12.378  18.052  0.00  0.00    +0.000 S 
ATOM     12  C   UNL     1       8.660  10.762  18.047  0.00  0.00    +0.000 A 
ATOM     13  N   UNL     1       7.915   9.914  17.306  0.00  0.00    +0.000 N 
ATOM     14  H   UNL     1       7.379  10.132  16.475  0.00  0.00    +0.000 HD
ENDBRANCH   2   5
BRANCH   3  15
ATOM     15  C   UNL     1       5.105   6.282  17.397  0.00  0.00    +0.000 C 
ATOM     16  C   UNL     1       5.487   4.890  17.945  0.00  0.00    +0.000 C 
ATOM     17  C   UNL     1       4.169   4.186  17.911  0.00  0.00    +0.000 A 
ATOM     18  C   UNL     1       3.934   2.823  17.985  0.00  0.00    +0.000 A 
ATOM     19  C   UNL     1       2.611   2.379  17.960  0.00  0.00    +0.000 A 
ATOM     20  C   UNL     1       1.551   3.296  17.873  0.00  0.00    +0.000 A 
ATOM     21  C   UNL     1       1.799   4.670  17.813  0.00  0.00    +0.000 A 
ATOM     22  C   UNL     1       3.114   5.102  17.826  0.00  0.00    +0.000 A 
ATOM     23  C   UNL     1       3.629   6.509  17.798  0.00  0.00    +0.000 C 
ENDBRANCH   3  15
TORSDOF 2
ENDMDL
MODEL 3
REMARK VINA RESULT:      -7.3      3.986      8.618
REMARK  Name = 
REMARK  2 active torsions:
REMARK  status: ('A' for Active; 'I' for Inactive)
REMARK    1  A    between atoms: C_2  and  C_13
REMARK    2  A    between atoms: N_3  and  C_4
REMARK                            x       y       z     vdW  Elec       q    Type
REMARK                         _______ _______ _______ _____ _____    ______ ____
ROOT
ATOM      1  O   UNL     1       7.860   6.685  16.378  0.00  0.00    +0.000 OA
ATOM      2  C   UNL     1       7.501   7.216  17.424  0.00  0.00    +0.000 C 
ATOM      3  N   UNL     1       6.583   6.648  18.273  0.00  0.00    +0.000 N 
ATOM      4  H   UNL     1       6.233   7.194  19.044  0.00  0.00    +0.000 HD
ENDROOT
BRANCH   2   5
ATOM      5  C   UNL     1       8.016   8.501  17.848  0.00  0.00    +0.000 A 
ATOM      6  C   UNL     1       7.919   9.783  17.285  0.00  0.00    +0.000 A 
ATOM      7  C   UNL     1       8.647  10.607  18.132  0.00  0.00    +0.000 A 
ATOM      8  C   UNL     1       8.955  11.966  18.128  0.00  0.00    +0.000 A 
ATOM      9  C   UNL     1       9.744  12.215  19.240  0.00  0.00    +0.000 A 
ATOM     10 CL   UNL     1      10.415  13.728  19.701  0.00  0.00    +0.000 Cl
ATOM     11  S   UNL     1      10.047  10.825  20.214  0.00  0.00    +0.000 S 
ATOM     12  C   UNL     1       9.147   9.908  19.158  0.00  0.00    +0.000 A 
ATOM     13  N   UNL     1       8.760   8.621  19.025  0.00  0.00    +0.000 N 
ATOM     14  H   UNL     1       8.966   7.850  19.648  0.00  0.00    +0.000 HD
ENDBRANCH   2   5
BRANCH   3  15
ATOM     15  C   UNL     1       5.927   5.386  17.974  0.00  0.00    +0.000 C 
ATOM     16  C   UNL     1       5.706   4.535  19.243  0.00  0.00    +0.000 C 
ATOM     17  C   UNL     1       4.518   3.718  18.849  0.00  0.00    +0.000 A 
ATOM     18  C   UNL     1       4.050   2.560  19.447  0.00  0.00    +0.000 A 
ATOM     19  C   UNL     1       2.897   1.968  18.928  0.00  0.00    +0.000 A 
ATOM     20  C   UNL     1       2.228   2.544  17.835  0.00  0.00    +0.000 A 
ATOM     21  C   UNL     1       2.701   3.721  17.249  0.00  0.00    +0.000 A 
ATOM     22  C   UNL     1       3.852   4.295  17.762  0.00  0.00    +0.000 A 
ATOM     23  C   UNL     1       4.533   5.556  17.325  0.00  0.00    +0.000 C 
ENDBRANCH   3  15
TORSDOF 2
ENDMDL
MODEL 4
REMARK VINA RESULT:      -7.2      7.203      9.367
REMARK  Name = 
REMARK  2 active torsions:
REMARK  status: ('A' for Active; 'I' for Inactive)
REMARK    1  A    between atoms: C_2  and  C_13
REMARK    2  A    between atoms: N_3  and  C_4
REMARK                            x       y       z     vdW  Elec       q    Type
REMARK                         _______ _______ _______ _____ _____    ______ ____
ROOT
ATOM      1  O   UNL     1       2.127   8.603  18.783  0.00  0.00    +0.000 OA
ATOM      2  C   UNL     1       1.665   8.282  19.872  0.00  0.00    +0.000 C 
ATOM      3  N   UNL     1       1.889   7.054  20.446  0.00  0.00    +0.000 N 
ATOM      4  H   UNL     1       1.374   6.806  21.276  0.00  0.00    +0.000 HD
ENDROOT
BRANCH   2   5
ATOM      5  C   UNL     1       0.833   9.179  20.647  0.00  0.00    +0.000 A 
ATOM      6  C   UNL     1       0.346   9.108  21.961  0.00  0.00    +0.000 A 
ATOM      7  C   UNL     1      -0.425  10.251  22.124  0.00  0.00    +0.000 A 
ATOM      8  C   UNL     1      -1.187  10.760  23.173  0.00  0.00    +0.000 A 
ATOM      9  C   UNL     1      -1.753  11.946  22.736  0.00  0.00    +0.000 A 
ATOM     10 CL   UNL     1      -2.800  12.973  23.632  0.00  0.00    +0.000 Cl
ATOM     11  S   UNL     1      -1.327  12.377  21.122  0.00  0.00    +0.000 S 
ATOM     12  C   UNL     1      -0.411  10.993  21.011  0.00  0.00    +0.000 A 
ATOM     13  N   UNL     1       0.368  10.377  20.097  0.00  0.00    +0.000 N 
ATOM     14  H   UNL     1       0.587  10.696  19.161  0.00  0.00    +0.000 HD
ENDBRANCH   2   5
BRANCH   3  15
ATOM     15  C   UNL     1       2.657   6.016  19.780  0.00  0.00    +0.000 C 
ATOM     16  C   UNL     1       2.780   4.743  20.645  0.00  0.00    +0.000 C 
ATOM     17  C   UNL     1       2.960   3.690  19.601  0.00  0.00    +0.000 A 
ATOM     18  C   UNL     1       3.431   2.399  19.771  0.00  0.00    +0.000 A 
ATOM     19  C   UNL     1       3.495   1.567  18.653  0.00  0.00    +0.000 A 
ATOM     20  C   UNL     1       3.079   2.028  17.393  0.00  0.00    +0.000 A 
ATOM     21  C   UNL     1       2.592   3.328  17.235  0.00  0.00    +0.000 A 
ATOM     22  C   UNL     1       2.543   4.151  18.347  0.00  0.00    +0.000 A 
ATOM     23  C   UNL     1       2.042   5.561  18.436  0.00  0.00    +0.000 C 
ENDBRANCH   3  15
TORSDOF 2
ENDMDL
MODEL 5
REMARK VINA RESULT:      -7.1      6.018      7.570
REMARK  Name = 
REMARK  2 active torsions:
REMARK  status: ('A' for Active; 'I' for Inactive)
REMARK    1  A    between atoms: C_2  and  C_13
REMARK    2  A    between atoms: N_3  and  C_4
REMARK                            x       y       z     vdW  Elec       q    Type
REMARK                         _______ _______ _______ _____ _____    ______ ____
ROOT
ATOM      1  O   UNL     1       2.815   7.839  18.206  0.00  0.00    +0.000 OA
ATOM      2  C   UNL     1       2.477   7.479  19.329  0.00  0.00    +0.000 C 
ATOM      3  N   UNL     1       2.884   6.292  19.887  0.00  0.00    +0.000 N 
ATOM      4  H   UNL     1       2.465   5.996  20.754  0.00  0.00    +0.000 HD
ENDROOT
BRANCH   2   5
ATOM      5  C   UNL     1       1.606   8.282  20.161  0.00  0.00    +0.000 A 
ATOM      6  C   UNL     1       1.142   8.111  21.474  0.00  0.00    +0.000 A 
ATOM      7  C   UNL     1       0.311   9.197  21.710  0.00  0.00    +0.000 A 
ATOM      8  C   UNL     1      -0.465   9.602  22.794  0.00  0.00    +0.000 A 
ATOM      9  C   UNL     1      -1.103  10.777  22.431  0.00  0.00    +0.000 A 
ATOM     10 CL   UNL     1      -2.194  11.691  23.394  0.00  0.00    +0.000 Cl
ATOM     11  S   UNL     1      -0.725  11.320  20.838  0.00  0.00    +0.000 S 
ATOM     12  C   UNL     1       0.266   9.999  20.640  0.00  0.00    +0.000 A 
ATOM     13  N   UNL     1       1.066   9.480  19.684  0.00  0.00    +0.000 N 
ATOM     14  H   UNL     1       1.253   9.862  18.765  0.00  0.00    +0.000 HD
ENDBRANCH   2   5
BRANCH   3  15
ATOM     15  C   UNL     1       3.716   5.342  19.168  0.00  0.00    +0.000 C 
ATOM     16  C   UNL     1       3.303   5.219  17.685  0.00  0.00    +0.000 C 
ATOM     17  C   UNL     1       4.589   4.793  17.053  0.00  0.00    +0.000 A 
ATOM     18  C   UNL     1       4.772   4.228  15.803  0.00  0.00    +0.000 A 
ATOM     19  C   UNL     1       6.074   3.928  15.398  0.00  0.00    +0.000 A 
ATOM     20  C   UNL     1       7.166   4.207  16.237  0.00  0.00    +0.000 A 
ATOM     21  C   UNL     1       6.970   4.792  17.491  0.00  0.00    +0.000 A 
ATOM     22  C   UNL     1       5.675   5.074  17.890  0.00  0.00    +0.000 A 
ATOM     23  C   UNL     1       5.216   5.717  19.164  0.00  0.00    +0.000 C 
ENDBRANCH   3  15
TORSDOF 2
ENDMDL
MODEL 6
REMARK VINA RESULT:      -7.1      6.858      9.070
REMARK  Name = 
REMARK  2 active torsions:
REMARK  status: ('A' for Active; 'I' for Inactive)
REMARK    1  A    between atoms: C_2  and  C_13
REMARK    2  A    between atoms: N_3  and  C_4
REMARK                            x       y       z     vdW  Elec       q    Type
REMARK                         _______ _______ _______ _____ _____    ______ ____
ROOT
ATOM      1  O   UNL     1       2.456   8.730  17.228  0.00  0.00    +0.000 OA
ATOM      2  C   UNL     1       1.948   8.668  18.343  0.00  0.00    +0.000 C 
ATOM      3  N   UNL     1       2.093   7.582  19.169  0.00  0.00    +0.000 N 
ATOM      4  H   UNL     1       1.544   7.539  20.013  0.00  0.00    +0.000 HD
ENDROOT
BRANCH   2   5
ATOM      5  C   UNL     1       1.143   9.746  18.879  0.00  0.00    +0.000 A 
ATOM      6  C   UNL     1       0.357   9.843  20.037  0.00  0.00    +0.000 A 
ATOM      7  C   UNL     1      -0.199  11.114  19.992  0.00  0.00    +0.000 A 
ATOM      8  C   UNL     1      -1.076  11.814  20.818  0.00  0.00    +0.000 A 
ATOM      9  C   UNL     1      -1.288  13.055  20.239  0.00  0.00    +0.000 A 
ATOM     10 CL   UNL     1      -2.302  14.306  20.840  0.00  0.00    +0.000 Cl
ATOM     11  S   UNL     1      -0.422  13.304  18.770  0.00  0.00    +0.000 S 
ATOM     12  C   UNL     1       0.216  11.774  18.904  0.00  0.00    +0.000 A 
ATOM     13  N   UNL     1       1.056  10.973  18.215  0.00  0.00    +0.000 N 
ATOM     14  H   UNL     1       1.545  11.190  17.355  0.00  0.00    +0.000 HD
ENDBRANCH   2   5
BRANCH   3  15
ATOM     15  C   UNL     1       2.824   6.392  18.766  0.00  0.00    +0.000 C 
ATOM     16  C   UNL     1       3.272   5.551  19.981  0.00  0.00    +0.000 C 
ATOM     17  C   UNL     1       3.355   4.184  19.380  0.00  0.00    +0.000 A 
ATOM     18  C   UNL     1       4.001   3.071  19.893  0.00  0.00    +0.000 A 
ATOM     19  C   UNL     1       3.930   1.878  19.173  0.00  0.00    +0.000 A 
ATOM     20  C   UNL     1       3.210   1.810  17.969  0.00  0.00    +0.000 A 
ATOM     21  C   UNL     1       2.550   2.936  17.468  0.00  0.00    +0.000 A 
ATOM     22  C   UNL     1       2.636   4.119  18.182  0.00  0.00    +0.000 A 
ATOM     23  C   UNL     1       2.001   5.440  17.867  0.00  0.00    +0.000 C 
ENDBRANCH   3  15
TORSDOF 2
ENDMDL
MODEL 7
REMARK VINA RESULT:      -7.1      2.771      4.140
REMARK  Name = 
REMARK  2 active torsions:
REMARK  status: ('A' for Active; 'I' for Inactive)
REMARK    1  A    between atoms: C_2  and  C_13
REMARK    2  A    between atoms: N_3  and  C_4
REMARK                            x       y       z     vdW  Elec       q    Type
REMARK                         _______ _______ _______ _____ _____    ______ ____
ROOT
ATOM      1  O   UNL     1       9.346  10.296  20.117  0.00  0.00    +0.000 OA
ATOM      2  C   UNL     1       9.085  10.152  18.927  0.00  0.00    +0.000 C 
ATOM      3  N   UNL     1       9.392  11.093  17.976  0.00  0.00    +0.000 N 
ATOM      4  H   UNL     1       9.033  10.973  17.042  0.00  0.00    +0.000 HD
ENDROOT
BRANCH   2   5
ATOM      5  C   UNL     1       8.420   8.966  18.426  0.00  0.00    +0.000 A 
ATOM      6  C   UNL     1       7.506   8.775  17.380  0.00  0.00    +0.000 A 
ATOM      7  C   UNL     1       7.202   7.421  17.407  0.00  0.00    +0.000 A 
ATOM      8  C   UNL     1       6.358   6.605  16.657  0.00  0.00    +0.000 A 
ATOM      9  C   UNL     1       6.461   5.321  17.168  0.00  0.00    +0.000 A 
ATOM     10 CL   UNL     1       5.615   3.929  16.619  0.00  0.00    +0.000 Cl
ATOM     11  S   UNL     1       7.561   5.174  18.487  0.00  0.00    +0.000 S 
ATOM     12  C   UNL     1       7.883   6.803  18.379  0.00  0.00    +0.000 A 
ATOM     13  N   UNL     1       8.655   7.716  19.006  0.00  0.00    +0.000 N 
ATOM     14  H   UNL     1       9.294   7.557  19.775  0.00  0.00    +0.000 HD
ENDBRANCH   2   5
BRANCH   3  15
ATOM     15  C   UNL     1      10.012  12.364  18.313  0.00  0.00    +0.000 C 
ATOM     16  C   UNL     1      11.008  12.826  17.229  0.00  0.00    +0.000 C 
ATOM     17  C   UNL     1      10.979  14.309  17.412  0.00  0.00    +0.000 A 
ATOM     18  C   UNL     1      11.892  15.239  16.944  0.00  0.00    +0.000 A 
ATOM     19  C   UNL     1      11.656  16.589  17.211  0.00  0.00    +0.000 A 
ATOM     20  C   UNL     1      10.514  16.987  17.926  0.00  0.00    +0.000 A 
ATOM     21  C   UNL     1       9.592  16.041  18.381  0.00  0.00    +0.000 A 
ATOM     22  C   UNL     1       9.840  14.704  18.122  0.00  0.00    +0.000 A 
ATOM     23  C   UNL     1       8.996  13.518  18.481  0.00  0.00    +0.000 C 
ENDBRANCH   3  15
TORSDOF 2
ENDMDL
MODEL 8
REMARK VINA RESULT:      -7.0      5.909      7.441
REMARK  Name = 
REMARK  2 active torsions:
REMARK  status: ('A' for Active; 'I' for Inactive)
REMARK    1  A    between atoms: C_2  and  C_13
REMARK    2  A    between atoms: N_3  and  C_4
REMARK                            x       y       z     vdW  Elec       q    Type
REMARK                         _______ _______ _______ _____ _____    ______ ____
ROOT
ATOM      1  O   UNL     1       3.028   7.943  18.122  0.00  0.00    +0.000 OA
ATOM      2  C   UNL     1       2.570   7.573  19.197  0.00  0.00    +0.000 C 
ATOM      3  N   UNL     1       2.879   6.361  19.763  0.00  0.00    +0.000 N 
ATOM      4  H   UNL     1       2.368   6.062  20.579  0.00  0.00    +0.000 HD
ENDROOT
BRANCH   2   5
ATOM      5  C   UNL     1       1.651   8.392  19.962  0.00  0.00    +0.000 A 
ATOM      6  C   UNL     1       0.822   9.463  19.597  0.00  0.00    +0.000 A 
ATOM      7  C   UNL     1       0.202   9.859  20.773  0.00  0.00    +0.000 A 
ATOM      8  C   UNL     1      -0.707  10.864  21.095  0.00  0.00    +0.000 A 
ATOM      9  C   UNL     1      -0.951  10.783  22.456  0.00  0.00    +0.000 A 
ATOM     10 CL   UNL     1      -1.986  11.801  23.375  0.00  0.00    +0.000 Cl
ATOM     11  S   UNL     1      -0.097   9.512  23.250  0.00  0.00    +0.000 S 
ATOM     12  C   UNL     1       0.593   9.089  21.796  0.00  0.00    +0.000 A 
ATOM     13  N   UNL     1       1.461   8.167  21.329  0.00  0.00    +0.000 N 
ATOM     14  H   UNL     1       1.922   7.434  21.854  0.00  0.00    +0.000 HD
ENDBRANCH   2   5
BRANCH   3  15
ATOM     15  C   UNL     1       3.742   5.395  19.104  0.00  0.00    +0.000 C 
ATOM     16  C   UNL     1       3.371   5.209  17.617  0.00  0.00    +0.000 C 
ATOM     17  C   UNL     1       4.679   4.777  17.037  0.00  0.00    +0.000 A 
ATOM     18  C   UNL     1       4.904   4.166  15.815  0.00  0.00    +0.000 A 
ATOM     19  C   UNL     1       6.220   3.869  15.457  0.00  0.00    +0.000 A 
ATOM     20  C   UNL     1       7.285   4.195  16.313  0.00  0.00    +0.000 A 
ATOM     21  C   UNL     1       7.048   4.825  17.538  0.00  0.00    +0.000 A 
ATOM     22  C   UNL     1       5.738   5.105  17.891  0.00  0.00    +0.000 A 
ATOM     23  C   UNL     1       5.237   5.790  19.126  0.00  0.00    +0.000 C 
ENDBRANCH   3  15
TORSDOF 2
ENDMDL
MODEL 9
REMARK VINA RESULT:      -7.0      7.306      9.698
REMARK  Name = 
REMARK  2 active torsions:
REMARK  status: ('A' for Active; 'I' for Inactive)
REMARK    1  A    between atoms: C_2  and  C_13
REMARK    2  A    between atoms: N_3  and  C_4
REMARK                            x       y       z     vdW  Elec       q    Type
REMARK                         _______ _______ _______ _____ _____    ______ ____
ROOT
ATOM      1  O   UNL     1       1.901   9.383  22.676  0.00  0.00    +0.000 OA
ATOM      2  C   UNL     1       0.963   9.458  21.889  0.00  0.00    +0.000 C 
ATOM      3  N   UNL     1       0.875   8.685  20.758  0.00  0.00    +0.000 N 
ATOM      4  H   UNL     1       0.150   8.888  20.087  0.00  0.00    +0.000 HD
ENDROOT
BRANCH   2   5
ATOM      5  C   UNL     1      -0.134  10.382  22.089  0.00  0.00    +0.000 A 
ATOM      6  C   UNL     1      -1.002  10.587  23.172  0.00  0.00    +0.000 A 
ATOM      7  C   UNL     1      -1.867  11.591  22.758  0.00  0.00    +0.000 A 
ATOM      8  C   UNL     1      -2.955  12.231  23.347  0.00  0.00    +0.000 A 
ATOM      9  C   UNL     1      -3.441  13.149  22.430  0.00  0.00    +0.000 A 
ATOM     10 CL   UNL     1      -4.789  14.194  22.642  0.00  0.00    +0.000 Cl
ATOM     11  S   UNL     1      -2.562  13.196  20.947  0.00  0.00    +0.000 S 
ATOM     12  C   UNL     1      -1.559  12.001  21.522  0.00  0.00    +0.000 A 
ATOM     13  N   UNL     1      -0.489  11.297  21.094  0.00  0.00    +0.000 N 
ATOM     14  H   UNL     1      -0.011  11.385  20.206  0.00  0.00    +0.000 HD
ENDBRANCH   2   5
BRANCH   3  15
ATOM     15  C   UNL     1       1.916   7.745  20.377  0.00  0.00    +0.000 C 
ATOM     16  C   UNL     1       1.508   6.284  20.665  0.00  0.00    +0.000 C 
ATOM     17  C   UNL     1       2.322   5.544  19.653  0.00  0.00    +0.000 A 
ATOM     18  C   UNL     1       2.618   4.191  19.629  0.00  0.00    +0.000 A 
ATOM     19  C   UNL     1       3.381   3.701  18.568  0.00  0.00    +0.000 A 
ATOM     20  C   UNL     1       3.823   4.560  17.548  0.00  0.00    +0.000 A 
ATOM     21  C   UNL     1       3.505   5.921  17.575  0.00  0.00    +0.000 A 
ATOM     22  C   UNL     1       2.758   6.401  18.637  0.00  0.00    +0.000 A 
ATOM     23  C   UNL     1       2.275   7.800  18.874  0.00  0.00    +0.000 C 
ENDBRANCH   3  15
TORSDOF 2
ENDMDL
