MODEL 1
REMARK VINA RESULT:      -8.3      0.000      0.000
REMARK  Name = 
REMARK  15 active torsions:
REMARK  status: ('A' for Active; 'I' for Inactive)
REMARK    1  A    between atoms: C_1  and  O_2
REMARK    2  A    between atoms: O_2  and  C_3
REMARK    3  A    between atoms: C_7  and  C_8
REMARK    4  A    between atoms: C_8  and  N_9
REMARK    5  A    between atoms: N_9  and  C_10
REMARK    6  A    between atoms: C_10  and  C_11
REMARK    7  A    between atoms: C_11  and  C_12
REMARK    8  A    between atoms: C_12  and  N_13
REMARK    9  A    between atoms: N_13  and  C_14
REMARK   10  A    between atoms: C_20  and  C_21
REMARK   11  A    between atoms: C_24  and  C_25
REMARK   12  A    between atoms: C_25  and  C_26
REMARK   13  A    between atoms: C_25  and  C_27
REMARK   14  A    between atoms: C_25  and  C_28
REMARK   15  A    between atoms: C_34  and  O_35
REMARK                            x       y       z     vdW  Elec       q    Type
REMARK                         _______ _______ _______ _____ _____    ______ ____
ROOT
ATOM      1  C   UNL     1       2.133   7.149  19.950  0.00  0.00    +0.000 A 
ATOM      2  C   UNL     1       2.645   7.213  18.649  0.00  0.00    +0.000 A 
ATOM      3  C   UNL     1       2.410   8.329  17.878  0.00  0.00    +0.000 A 
ATOM      4  N   UNL     1       1.675   9.373  18.291  0.00  0.00    +0.000 NA
ATOM      5  C   UNL     1       1.152   9.317  19.519  0.00  0.00    +0.000 A 
ATOM      6  C   UNL     1       0.385  10.397  19.920  0.00  0.00    +0.000 A 
ATOM      7  C   UNL     1      -0.196  10.501  21.193  0.00  0.00    +0.000 A 
ATOM      8  C   UNL     1      -0.017   9.422  22.065  0.00  0.00    +0.000 A 
ATOM      9  C   UNL     1       0.724   8.302  21.678  0.00  0.00    +0.000 A 
ATOM     10  C   UNL     1       1.341   8.234  20.405  0.00  0.00    +0.000 A 
ENDROOT
BRANCH   7  11
ATOM     11  C   UNL     1      -0.935  11.717  21.587  0.00  0.00    +0.000 A 
ATOM     12  C   UNL     1      -1.203  12.018  22.928  0.00  0.00    +0.000 A 
ATOM     13  C   UNL     1      -1.862  13.198  23.293  0.00  0.00    +0.000 A 
ATOM     14  C   UNL     1      -2.296  14.122  22.332  0.00  0.00    +0.000 A 
ATOM     15  C   UNL     1      -2.059  13.804  20.987  0.00  0.00    +0.000 A 
ATOM     16  C   UNL     1      -1.385  12.634  20.625  0.00  0.00    +0.000 A 
BRANCH  14  17
ATOM     17  C   UNL     1      -2.983  15.444  22.701  0.00  0.00    +0.000 C 
ATOM     18  C   UNL     1      -3.712  15.391  24.061  0.00  0.00    +0.000 C 
ATOM     19  C   UNL     1      -1.924  16.565  22.787  0.00  0.00    +0.000 C 
ATOM     20  C   UNL     1      -4.028  15.817  21.629  0.00  0.00    +0.000 C 
ENDBRANCH  14  17
ENDBRANCH   7  11
BRANCH   1  21
ATOM     21  N   UNL     1       2.310   6.003  20.755  0.00  0.00    +0.000 N 
ATOM     22  H   UNL     1       3.299   5.793  20.883  0.00  0.00    +0.000 HD
BRANCH  21  23
ATOM     23  C   UNL     1       1.484   4.835  20.480  0.00  0.00    +0.000 C 
BRANCH  23  24
ATOM     24  C   UNL     1       1.898   3.665  21.359  0.00  0.00    +0.000 C 
BRANCH  24  25
ATOM     25  C   UNL     1       2.972   2.846  20.642  0.00  0.00    +0.000 C 
BRANCH  25  26
ATOM     26  N   UNL     1       3.492   3.639  19.536  0.00  0.00    +0.000 NA
ATOM     27  H   UNL     1       3.051   3.328  18.666  0.00  0.00    +0.000 HD
BRANCH  26  28
ATOM     28  C   UNL     1       4.942   3.490  19.380  0.00  0.00    +0.000 C 
BRANCH  28  33
ATOM     29  C   UNL     1       7.019   6.437  18.019  0.00  0.00    +0.000 A 
ATOM     30  C   UNL     1       6.372   6.633  16.793  0.00  0.00    +0.000 A 
ATOM     31  C   UNL     1       5.319   5.810  16.393  0.00  0.00    +0.000 A 
ATOM     32  C   UNL     1       4.873   4.793  17.234  0.00  0.00    +0.000 A 
ATOM     33  C   UNL     1       5.482   4.585  18.480  0.00  0.00    +0.000 A 
ATOM     34  C   UNL     1       6.591   5.389  18.842  0.00  0.00    +0.000 A 
BRANCH  29  36
ATOM     35  C   UNL     1       7.880   8.648  17.692  0.00  0.00    +0.000 C 
ATOM     36  O   UNL     1       8.015   7.349  18.252  0.00  0.00    +0.000 OA
ENDBRANCH  29  36
BRANCH  34  37
ATOM     37  O   UNL     1       7.251   5.133  20.020  0.00  0.00    +0.000 OA
ATOM     38  H   UNL     1       7.031   4.216  20.297  0.00  0.00    +0.000 HD
ENDBRANCH  34  37
ENDBRANCH  28  33
ENDBRANCH  26  28
ENDBRANCH  25  26
ENDBRANCH  24  25
ENDBRANCH  23  24
ENDBRANCH  21  23
ENDBRANCH   1  21
TORSDOF 11
ENDMDL
MODEL 2
REMARK VINA RESULT:      -8.1      1.247      1.568
REMARK  Name = 
REMARK  15 active torsions:
REMARK  status: ('A' for Active; 'I' for Inactive)
REMARK    1  A    between atoms: C_1  and  O_2
REMARK    2  A    between atoms: O_2  and  C_3
REMARK    3  A    between atoms: C_7  and  C_8
REMARK    4  A    between atoms: C_8  and  N_9
REMARK    5  A    between atoms: N_9  and  C_10
REMARK    6  A    between atoms: C_10  and  C_11
REMARK    7  A    between atoms: C_11  and  C_12
REMARK    8  A    between atoms: C_12  and  N_13
REMARK    9  A    between atoms: N_13  and  C_14
REMARK   10  A    between atoms: C_20  and  C_21
REMARK   11  A    between atoms: C_24  and  C_25
REMARK   12  A    between atoms: C_25  and  C_26
REMARK   13  A    between atoms: C_25  and  C_27
REMARK   14  A    between atoms: C_25  and  C_28
REMARK   15  A    between atoms: C_34  and  O_35
REMARK                            x       y       z     vdW  Elec       q    Type
REMARK                         _______ _______ _______ _____ _____    ______ ____
ROOT
ATOM      1  C   UNL     1       2.562   6.727  19.638  0.00  0.00    +0.000 A 
ATOM      2  C   UNL     1       2.799   6.786  18.259  0.00  0.00    +0.000 A 
ATOM      3  C   UNL     1       2.383   7.885  17.542  0.00  0.00    +0.000 A 
ATOM      4  N   UNL     1       1.719   8.917  18.086  0.00  0.00    +0.000 NA
ATOM      5  C   UNL     1       1.458   8.866  19.396  0.00  0.00    +0.000 A 
ATOM      6  C   UNL     1       0.760   9.933  19.934  0.00  0.00    +0.000 A 
ATOM      7  C   UNL     1       0.446  10.041  21.296  0.00  0.00    +0.000 A 
ATOM      8  C   UNL     1       0.826   8.979  22.124  0.00  0.00    +0.000 A 
ATOM      9  C   UNL     1       1.503   7.872  21.605  0.00  0.00    +0.000 A 
ATOM     10  C   UNL     1       1.851   7.800  20.234  0.00  0.00    +0.000 A 
ENDROOT
BRANCH   7  11
ATOM     11  C   UNL     1      -0.229  11.244  21.822  0.00  0.00    +0.000 A 
ATOM     12  C   UNL     1      -1.261  11.162  22.764  0.00  0.00    +0.000 A 
ATOM     13  C   UNL     1      -1.861  12.312  23.291  0.00  0.00    +0.000 A 
ATOM     14  C   UNL     1      -1.466  13.595  22.886  0.00  0.00    +0.000 A 
ATOM     15  C   UNL     1      -0.457  13.677  21.915  0.00  0.00    +0.000 A 
ATOM     16  C   UNL     1       0.153  12.528  21.404  0.00  0.00    +0.000 A 
BRANCH  14  17
ATOM     17  C   UNL     1      -2.073  14.876  23.475  0.00  0.00    +0.000 C 
ATOM     18  C   UNL     1      -2.791  14.645  24.823  0.00  0.00    +0.000 C 
ATOM     19  C   UNL     1      -0.952  15.909  23.720  0.00  0.00    +0.000 C 
ATOM     20  C   UNL     1      -3.106  15.473  22.496  0.00  0.00    +0.000 C 
ENDBRANCH  14  17
ENDBRANCH   7  11
BRANCH   1  21
ATOM     21  N   UNL     1       2.929   5.598  20.401  0.00  0.00    +0.000 N 
ATOM     22  H   UNL     1       3.765   5.155  20.023  0.00  0.00    +0.000 HD
BRANCH  21  23
ATOM     23  C   UNL     1       1.883   4.662  20.790  0.00  0.00    +0.000 C 
BRANCH  23  24
ATOM     24  C   UNL     1       0.918   4.426  19.638  0.00  0.00    +0.000 C 
BRANCH  24  25
ATOM     25  C   UNL     1       1.010   2.967  19.189  0.00  0.00    +0.000 C 
BRANCH  25  26
ATOM     26  N   UNL     1       2.374   2.504  19.410  0.00  0.00    +0.000 NA
ATOM     27  H   UNL     1       2.907   3.246  19.874  0.00  0.00    +0.000 HD
BRANCH  26  28
ATOM     28  C   UNL     1       3.059   2.179  18.155  0.00  0.00    +0.000 C 
BRANCH  28  33
ATOM     29  C   UNL     1       5.969   4.677  18.537  0.00  0.00    +0.000 A 
ATOM     30  C   UNL     1       5.986   5.215  17.246  0.00  0.00    +0.000 A 
ATOM     31  C   UNL     1       5.110   4.758  16.261  0.00  0.00    +0.000 A 
ATOM     32  C   UNL     1       4.177   3.771  16.565  0.00  0.00    +0.000 A 
ATOM     33  C   UNL     1       4.115   3.226  17.856  0.00  0.00    +0.000 A 
ATOM     34  C   UNL     1       5.053   3.657  18.825  0.00  0.00    +0.000 A 
BRANCH  29  36
ATOM     35  C   UNL     1       7.804   6.190  18.819  0.00  0.00    +0.000 C 
ATOM     36  O   UNL     1       6.884   5.259  19.374  0.00  0.00    +0.000 OA
ENDBRANCH  29  36
BRANCH  34  37
ATOM     37  O   UNL     1       5.060   3.065  20.066  0.00  0.00    +0.000 OA
ATOM     38  H   UNL     1       4.334   3.463  20.595  0.00  0.00    +0.000 HD
ENDBRANCH  34  37
ENDBRANCH  28  33
ENDBRANCH  26  28
ENDBRANCH  25  26
ENDBRANCH  24  25
ENDBRANCH  23  24
ENDBRANCH  21  23
ENDBRANCH   1  21
TORSDOF 11
ENDMDL
MODEL 3
REMARK VINA RESULT:      -8.0      0.971      1.284
REMARK  Name = 
REMARK  15 active torsions:
REMARK  status: ('A' for Active; 'I' for Inactive)
REMARK    1  A    between atoms: C_1  and  O_2
REMARK    2  A    between atoms: O_2  and  C_3
REMARK    3  A    between atoms: C_7  and  C_8
REMARK    4  A    between atoms: C_8  and  N_9
REMARK    5  A    between atoms: N_9  and  C_10
REMARK    6  A    between atoms: C_10  and  C_11
REMARK    7  A    between atoms: C_11  and  C_12
REMARK    8  A    between atoms: C_12  and  N_13
REMARK    9  A    between atoms: N_13  and  C_14
REMARK   10  A    between atoms: C_20  and  C_21
REMARK   11  A    between atoms: C_24  and  C_25
REMARK   12  A    between atoms: C_25  and  C_26
REMARK   13  A    between atoms: C_25  and  C_27
REMARK   14  A    between atoms: C_25  and  C_28
REMARK   15  A    between atoms: C_34  and  O_35
REMARK                            x       y       z     vdW  Elec       q    Type
REMARK                         _______ _______ _______ _____ _____    ______ ____
ROOT
ATOM      1  C   UNL     1       2.330   6.824  19.776  0.00  0.00    +0.000 A 
ATOM      2  C   UNL     1       2.866   6.899  18.485  0.00  0.00    +0.000 A 
ATOM      3  C   UNL     1       2.658   8.028  17.725  0.00  0.00    +0.000 A 
ATOM      4  N   UNL     1       1.929   9.075  18.138  0.00  0.00    +0.000 NA
ATOM      5  C   UNL     1       1.383   9.010  19.357  0.00  0.00    +0.000 A 
ATOM      6  C   UNL     1       0.623  10.095  19.758  0.00  0.00    +0.000 A 
ATOM      7  C   UNL     1       0.021  10.190  21.021  0.00  0.00    +0.000 A 
ATOM      8  C   UNL     1       0.171   9.098  21.882  0.00  0.00    +0.000 A 
ATOM      9  C   UNL     1       0.905   7.974  21.494  0.00  0.00    +0.000 A 
ATOM     10  C   UNL     1       1.543   7.914  20.231  0.00  0.00    +0.000 A 
ENDROOT
BRANCH   7  11
ATOM     11  C   UNL     1      -0.709  11.410  21.419  0.00  0.00    +0.000 A 
ATOM     12  C   UNL     1      -1.004  11.693  22.757  0.00  0.00    +0.000 A 
ATOM     13  C   UNL     1      -1.654  12.877  23.126  0.00  0.00    +0.000 A 
ATOM     14  C   UNL     1      -2.053  13.822  22.171  0.00  0.00    +0.000 A 
ATOM     15  C   UNL     1      -1.790  13.522  20.827  0.00  0.00    +0.000 A 
ATOM     16  C   UNL     1      -1.125  12.348  20.461  0.00  0.00    +0.000 A 
BRANCH  14  17
ATOM     17  C   UNL     1      -2.730  15.148  22.545  0.00  0.00    +0.000 C 
ATOM     18  C   UNL     1      -2.186  16.354  21.747  0.00  0.00    +0.000 C 
ATOM     19  C   UNL     1      -4.244  15.050  22.261  0.00  0.00    +0.000 C 
ATOM     20  C   UNL     1      -2.514  15.450  24.043  0.00  0.00    +0.000 C 
ENDBRANCH  14  17
ENDBRANCH   7  11
BRANCH   1  21
ATOM     21  N   UNL     1       2.478   5.666  20.569  0.00  0.00    +0.000 N 
ATOM     22  H   UNL     1       3.425   5.297  20.506  0.00  0.00    +0.000 HD
BRANCH  21  23
ATOM     23  C   UNL     1       1.437   4.650  20.505  0.00  0.00    +0.000 C 
BRANCH  23  24
ATOM     24  C   UNL     1       2.012   3.318  20.048  0.00  0.00    +0.000 C 
BRANCH  24  25
ATOM     25  C   UNL     1       1.843   3.184  18.534  0.00  0.00    +0.000 C 
BRANCH  25  26
ATOM     26  N   UNL     1       3.082   2.654  17.980  0.00  0.00    +0.000 NA
ATOM     27  H   UNL     1       3.128   1.648  18.168  0.00  0.00    +0.000 HD
BRANCH  26  28
ATOM     28  C   UNL     1       4.268   3.275  18.578  0.00  0.00    +0.000 C 
BRANCH  28  33
ATOM     29  C   UNL     1       6.770   5.642  16.850  0.00  0.00    +0.000 A 
ATOM     30  C   UNL     1       6.371   5.474  15.519  0.00  0.00    +0.000 A 
ATOM     31  C   UNL     1       5.348   4.588  15.179  0.00  0.00    +0.000 A 
ATOM     32  C   UNL     1       4.683   3.877  16.175  0.00  0.00    +0.000 A 
ATOM     33  C   UNL     1       5.041   4.040  17.521  0.00  0.00    +0.000 A 
ATOM     34  C   UNL     1       6.124   4.896  17.843  0.00  0.00    +0.000 A 
BRANCH  29  36
ATOM     35  C   UNL     1       7.431   7.860  17.467  0.00  0.00    +0.000 C 
ATOM     36  O   UNL     1       7.773   6.564  16.997  0.00  0.00    +0.000 OA
ENDBRANCH  29  36
BRANCH  34  37
ATOM     37  O   UNL     1       6.541   4.992  19.149  0.00  0.00    +0.000 OA
ATOM     38  H   UNL     1       7.234   4.311  19.296  0.00  0.00    +0.000 HD
ENDBRANCH  34  37
ENDBRANCH  28  33
ENDBRANCH  26  28
ENDBRANCH  25  26
ENDBRANCH  24  25
ENDBRANCH  23  24
ENDBRANCH  21  23
ENDBRANCH   1  21
TORSDOF 11
ENDMDL
MODEL 4
REMARK VINA RESULT:      -8.0      1.343      2.023
REMARK  Name = 
REMARK  15 active torsions:
REMARK  status: ('A' for Active; 'I' for Inactive)
REMARK    1  A    between atoms: C_1  and  O_2
REMARK    2  A    between atoms: O_2  and  C_3
REMARK    3  A    between atoms: C_7  and  C_8
REMARK    4  A    between atoms: C_8  and  N_9
REMARK    5  A    between atoms: N_9  and  C_10
REMARK    6  A    between atoms: C_10  and  C_11
REMARK    7  A    between atoms: C_11  and  C_12
REMARK    8  A    between atoms: C_12  and  N_13
REMARK    9  A    between atoms: N_13  and  C_14
REMARK   10  A    between atoms: C_20  and  C_21
REMARK   11  A    between atoms: C_24  and  C_25
REMARK   12  A    between atoms: C_25  and  C_26
REMARK   13  A    between atoms: C_25  and  C_27
REMARK   14  A    between atoms: C_25  and  C_28
REMARK   15  A    between atoms: C_34  and  O_35
REMARK                            x       y       z     vdW  Elec       q    Type
REMARK                         _______ _______ _______ _____ _____    ______ ____
ROOT
ATOM      1  C   UNL     1       2.380   6.945  19.734  0.00  0.00    +0.000 A 
ATOM      2  C   UNL     1       2.877   7.057  18.430  0.00  0.00    +0.000 A 
ATOM      3  C   UNL     1       2.595   8.181  17.687  0.00  0.00    +0.000 A 
ATOM      4  N   UNL     1       1.827   9.188  18.130  0.00  0.00    +0.000 NA
ATOM      5  C   UNL     1       1.318   9.086  19.362  0.00  0.00    +0.000 A 
ATOM      6  C   UNL     1       0.517  10.129  19.793  0.00  0.00    +0.000 A 
ATOM      7  C   UNL     1      -0.055  10.183  21.073  0.00  0.00    +0.000 A 
ATOM      8  C   UNL     1       0.170   9.092  21.919  0.00  0.00    +0.000 A 
ATOM      9  C   UNL     1       0.948   8.009  21.500  0.00  0.00    +0.000 A 
ATOM     10  C   UNL     1       1.554   7.991  20.221  0.00  0.00    +0.000 A 
ENDROOT
BRANCH   7  11
ATOM     11  C   UNL     1      -0.833  11.363  21.501  0.00  0.00    +0.000 A 
ATOM     12  C   UNL     1      -1.132  12.411  20.623  0.00  0.00    +0.000 A 
ATOM     13  C   UNL     1      -1.911  13.502  21.028  0.00  0.00    +0.000 A 
ATOM     14  C   UNL     1      -2.412  13.600  22.333  0.00  0.00    +0.000 A 
ATOM     15  C   UNL     1      -2.083  12.568  23.223  0.00  0.00    +0.000 A 
ATOM     16  C   UNL     1      -1.320  11.471  22.813  0.00  0.00    +0.000 A 
BRANCH  14  17
ATOM     17  C   UNL     1      -3.305  14.760  22.797  0.00  0.00    +0.000 C 
ATOM     18  C   UNL     1      -2.529  16.081  22.997  0.00  0.00    +0.000 C 
ATOM     19  C   UNL     1      -4.397  15.021  21.737  0.00  0.00    +0.000 C 
ATOM     20  C   UNL     1      -3.977  14.409  24.140  0.00  0.00    +0.000 C 
ENDBRANCH  14  17
ENDBRANCH   7  11
BRANCH   1  21
ATOM     21  N   UNL     1       2.605   5.789  20.512  0.00  0.00    +0.000 N 
ATOM     22  H   UNL     1       3.520   5.386  20.314  0.00  0.00    +0.000 HD
BRANCH  21  23
ATOM     23  C   UNL     1       1.532   4.809  20.614  0.00  0.00    +0.000 C 
BRANCH  23  24
ATOM     24  C   UNL     1       1.845   3.579  19.777  0.00  0.00    +0.000 C 
BRANCH  24  25
ATOM     25  C   UNL     1       2.871   2.713  20.509  0.00  0.00    +0.000 C 
BRANCH  25  26
ATOM     26  N   UNL     1       4.184   2.968  19.931  0.00  0.00    +0.000 NA
ATOM     27  H   UNL     1       4.592   3.793  20.380  0.00  0.00    +0.000 HD
BRANCH  26  28
ATOM     28  C   UNL     1       4.113   3.233  18.490  0.00  0.00    +0.000 C 
BRANCH  28  33
ATOM     29  C   UNL     1       6.464   5.468  16.410  0.00  0.00    +0.000 A 
ATOM     30  C   UNL     1       7.210   6.048  17.443  0.00  0.00    +0.000 A 
ATOM     31  C   UNL     1       6.937   5.759  18.781  0.00  0.00    +0.000 A 
ATOM     32  C   UNL     1       5.929   4.856  19.106  0.00  0.00    +0.000 A 
ATOM     33  C   UNL     1       5.178   4.238  18.095  0.00  0.00    +0.000 A 
ATOM     34  C   UNL     1       5.426   4.590  16.746  0.00  0.00    +0.000 A 
BRANCH  29  36
ATOM     35  C   UNL     1       7.205   4.837  14.222  0.00  0.00    +0.000 C 
ATOM     36  O   UNL     1       6.885   5.852  15.164  0.00  0.00    +0.000 OA
ENDBRANCH  29  36
BRANCH  34  37
ATOM     37  O   UNL     1       4.635   4.059  15.755  0.00  0.00    +0.000 OA
ATOM     38  H   UNL     1       4.158   3.286  16.131  0.00  0.00    +0.000 HD
ENDBRANCH  34  37
ENDBRANCH  28  33
ENDBRANCH  26  28
ENDBRANCH  25  26
ENDBRANCH  24  25
ENDBRANCH  23  24
ENDBRANCH  21  23
ENDBRANCH   1  21
TORSDOF 11
ENDMDL
MODEL 5
REMARK VINA RESULT:      -7.8      1.061      1.465
REMARK  Name = 
REMARK  15 active torsions:
REMARK  status: ('A' for Active; 'I' for Inactive)
REMARK    1  A    between atoms: C_1  and  O_2
REMARK    2  A    between atoms: O_2  and  C_3
REMARK    3  A    between atoms: C_7  and  C_8
REMARK    4  A    between atoms: C_8  and  N_9
REMARK    5  A    between atoms: N_9  and  C_10
REMARK    6  A    between atoms: C_10  and  C_11
REMARK    7  A    between atoms: C_11  and  C_12
REMARK    8  A    between atoms: C_12  and  N_13
REMARK    9  A    between atoms: N_13  and  C_14
REMARK   10  A    between atoms: C_20  and  C_21
REMARK   11  A    between atoms: C_24  and  C_25
REMARK   12  A    between atoms: C_25  and  C_26
REMARK   13  A    between atoms: C_25  and  C_27
REMARK   14  A    between atoms: C_25  and  C_28
REMARK   15  A    between atoms: C_34  and  O_35
REMARK                            x       y       z     vdW  Elec       q    Type
REMARK                         _______ _______ _______ _____ _____    ______ ____
ROOT
ATOM      1  C   UNL     1       2.242   7.465  19.632  0.00  0.00    +0.000 A 
ATOM      2  C   UNL     1       2.700   7.652  18.322  0.00  0.00    +0.000 A 
ATOM      3  C   UNL     1       2.330   8.780  17.625  0.00  0.00    +0.000 A 
ATOM      4  N   UNL     1       1.510   9.720  18.119  0.00  0.00    +0.000 NA
ATOM      5  C   UNL     1       1.038   9.544  19.356  0.00  0.00    +0.000 A 
ATOM      6  C   UNL     1       0.182  10.518  19.841  0.00  0.00    +0.000 A 
ATOM      7  C   UNL     1      -0.362  10.492  21.133  0.00  0.00    +0.000 A 
ATOM      8  C   UNL     1      -0.049   9.390  21.936  0.00  0.00    +0.000 A 
ATOM      9  C   UNL     1       0.786   8.374  21.463  0.00  0.00    +0.000 A 
ATOM     10  C   UNL     1       1.363   8.438  20.171  0.00  0.00    +0.000 A 
ENDROOT
BRANCH   7  11
ATOM     11  C   UNL     1      -1.204  11.605  21.619  0.00  0.00    +0.000 A 
ATOM     12  C   UNL     1      -1.238  11.971  22.970  0.00  0.00    +0.000 A 
ATOM     13  C   UNL     1      -2.003  13.058  23.411  0.00  0.00    +0.000 A 
ATOM     14  C   UNL     1      -2.779  13.816  22.523  0.00  0.00    +0.000 A 
ATOM     15  C   UNL     1      -2.772  13.427  21.176  0.00  0.00    +0.000 A 
ATOM     16  C   UNL     1      -1.994  12.354  20.734  0.00  0.00    +0.000 A 
BRANCH  14  17
ATOM     17  C   UNL     1      -3.593  15.040  22.967  0.00  0.00    +0.000 C 
ATOM     18  C   UNL     1      -3.653  15.205  24.502  0.00  0.00    +0.000 C 
ATOM     19  C   UNL     1      -2.953  16.320  22.388  0.00  0.00    +0.000 C 
ATOM     20  C   UNL     1      -5.045  14.924  22.457  0.00  0.00    +0.000 C 
ENDBRANCH  14  17
ENDBRANCH   7  11
BRANCH   1  21
ATOM     21  N   UNL     1       2.559   6.300  20.363  0.00  0.00    +0.000 N 
ATOM     22  H   UNL     1       3.566   6.159  20.412  0.00  0.00    +0.000 HD
BRANCH  21  23
ATOM     23  C   UNL     1       1.800   5.087  20.087  0.00  0.00    +0.000 C 
BRANCH  23  24
ATOM     24  C   UNL     1       2.634   3.851  20.389  0.00  0.00    +0.000 C 
BRANCH  24  25
ATOM     25  C   UNL     1       3.309   3.368  19.106  0.00  0.00    +0.000 C 
BRANCH  25  26
ATOM     26  N   UNL     1       3.196   4.420  18.104  0.00  0.00    +0.000 NA
ATOM     27  H   UNL     1       2.323   4.293  17.584  0.00  0.00    +0.000 HD
BRANCH  26  28
ATOM     28  C   UNL     1       4.299   4.387  17.138  0.00  0.00    +0.000 C 
BRANCH  28  33
ATOM     29  C   UNL     1       7.182   6.914  17.530  0.00  0.00    +0.000 A 
ATOM     30  C   UNL     1       7.738   6.451  18.728  0.00  0.00    +0.000 A 
ATOM     31  C   UNL     1       7.176   5.376  19.417  0.00  0.00    +0.000 A 
ATOM     32  C   UNL     1       6.060   4.725  18.898  0.00  0.00    +0.000 A 
ATOM     33  C   UNL     1       5.492   5.147  17.687  0.00  0.00    +0.000 A 
ATOM     34  C   UNL     1       6.037   6.279  17.033  0.00  0.00    +0.000 A 
BRANCH  29  36
ATOM     35  C   UNL     1       7.995   9.157  17.747  0.00  0.00    +0.000 C 
ATOM     36  O   UNL     1       7.876   7.963  16.985  0.00  0.00    +0.000 OA
ENDBRANCH  29  36
BRANCH  34  37
ATOM     37  O   UNL     1       5.432   6.756  15.895  0.00  0.00    +0.000 OA
ATOM     38  H   UNL     1       4.584   6.272  15.779  0.00  0.00    +0.000 HD
ENDBRANCH  34  37
ENDBRANCH  28  33
ENDBRANCH  26  28
ENDBRANCH  25  26
ENDBRANCH  24  25
ENDBRANCH  23  24
ENDBRANCH  21  23
ENDBRANCH   1  21
TORSDOF 11
ENDMDL
MODEL 6
REMARK VINA RESULT:      -7.7      1.500      1.929
REMARK  Name = 
REMARK  15 active torsions:
REMARK  status: ('A' for Active; 'I' for Inactive)
REMARK    1  A    between atoms: C_1  and  O_2
REMARK    2  A    between atoms: O_2  and  C_3
REMARK    3  A    between atoms: C_7  and  C_8
REMARK    4  A    between atoms: C_8  and  N_9
REMARK    5  A    between atoms: N_9  and  C_10
REMARK    6  A    between atoms: C_10  and  C_11
REMARK    7  A    between atoms: C_11  and  C_12
REMARK    8  A    between atoms: C_12  and  N_13
REMARK    9  A    between atoms: N_13  and  C_14
REMARK   10  A    between atoms: C_20  and  C_21
REMARK   11  A    between atoms: C_24  and  C_25
REMARK   12  A    between atoms: C_25  and  C_26
REMARK   13  A    between atoms: C_25  and  C_27
REMARK   14  A    between atoms: C_25  and  C_28
REMARK   15  A    between atoms: C_34  and  O_35
REMARK                            x       y       z     vdW  Elec       q    Type
REMARK                         _______ _______ _______ _____ _____    ______ ____
ROOT
ATOM      1  C   UNL     1       2.610   6.786  19.563  0.00  0.00    +0.000 A 
ATOM      2  C   UNL     1       3.097   6.923  18.257  0.00  0.00    +0.000 A 
ATOM      3  C   UNL     1       2.782   8.045  17.526  0.00  0.00    +0.000 A 
ATOM      4  N   UNL     1       1.990   9.028  17.981  0.00  0.00    +0.000 NA
ATOM      5  C   UNL     1       1.491   8.902  19.215  0.00  0.00    +0.000 A 
ATOM      6  C   UNL     1       0.665   9.920  19.659  0.00  0.00    +0.000 A 
ATOM      7  C   UNL     1       0.099   9.948  20.942  0.00  0.00    +0.000 A 
ATOM      8  C   UNL     1       0.357   8.856  21.778  0.00  0.00    +0.000 A 
ATOM      9  C   UNL     1       1.160   7.797  21.345  0.00  0.00    +0.000 A 
ATOM     10  C   UNL     1       1.760   7.806  20.063  0.00  0.00    +0.000 A 
ENDROOT
BRANCH   7  11
ATOM     11  C   UNL     1      -0.707  11.103  21.385  0.00  0.00    +0.000 A 
ATOM     12  C   UNL     1      -1.343  11.955  20.474  0.00  0.00    +0.000 A 
ATOM     13  C   UNL     1      -2.145  13.019  20.907  0.00  0.00    +0.000 A 
ATOM     14  C   UNL     1      -2.332  13.287  22.270  0.00  0.00    +0.000 A 
ATOM     15  C   UNL     1      -1.666  12.456  23.182  0.00  0.00    +0.000 A 
ATOM     16  C   UNL     1      -0.881  11.383  22.750  0.00  0.00    +0.000 A 
BRANCH  14  17
ATOM     17  C   UNL     1      -3.238  14.418  22.778  0.00  0.00    +0.000 C 
ATOM     18  C   UNL     1      -4.009  14.046  24.063  0.00  0.00    +0.000 C 
ATOM     19  C   UNL     1      -2.378  15.660  23.097  0.00  0.00    +0.000 C 
ATOM     20  C   UNL     1      -4.280  14.786  21.702  0.00  0.00    +0.000 C 
ENDBRANCH  14  17
ENDBRANCH   7  11
BRANCH   1  21
ATOM     21  N   UNL     1       2.870   5.630  20.329  0.00  0.00    +0.000 N 
ATOM     22  H   UNL     1       3.783   5.238  20.105  0.00  0.00    +0.000 HD
BRANCH  21  23
ATOM     23  C   UNL     1       1.811   4.638  20.458  0.00  0.00    +0.000 C 
BRANCH  23  24
ATOM     24  C   UNL     1       2.271   3.289  19.928  0.00  0.00    +0.000 C 
BRANCH  24  25
ATOM     25  C   UNL     1       3.758   3.104  20.230  0.00  0.00    +0.000 C 
BRANCH  25  26
ATOM     26  N   UNL     1       4.461   2.904  18.969  0.00  0.00    +0.000 NA
ATOM     27  H   UNL     1       4.927   1.992  18.988  0.00  0.00    +0.000 HD
BRANCH  26  28
ATOM     28  C   UNL     1       5.486   3.925  18.737  0.00  0.00    +0.000 C 
BRANCH  28  33
ATOM     29  C   UNL     1       6.870   4.979  15.297  0.00  0.00    +0.000 A 
ATOM     30  C   UNL     1       5.723   4.790  14.517  0.00  0.00    +0.000 A 
ATOM     31  C   UNL     1       4.543   4.295  15.073  0.00  0.00    +0.000 A 
ATOM     32  C   UNL     1       4.483   4.011  16.435  0.00  0.00    +0.000 A 
ATOM     33  C   UNL     1       5.605   4.212  17.252  0.00  0.00    +0.000 A 
ATOM     34  C   UNL     1       6.813   4.655  16.659  0.00  0.00    +0.000 A 
BRANCH  29  36
ATOM     35  C   UNL     1       7.978   5.236  13.190  0.00  0.00    +0.000 C 
ATOM     36  O   UNL     1       7.925   5.488  14.587  0.00  0.00    +0.000 OA
ENDBRANCH  29  36
BRANCH  34  37
ATOM     37  O   UNL     1       7.943   4.767  17.434  0.00  0.00    +0.000 OA
ATOM     38  H   UNL     1       8.285   5.684  17.338  0.00  0.00    +0.000 HD
ENDBRANCH  34  37
ENDBRANCH  28  33
ENDBRANCH  26  28
ENDBRANCH  25  26
ENDBRANCH  24  25
ENDBRANCH  23  24
ENDBRANCH  21  23
ENDBRANCH   1  21
TORSDOF 11
ENDMDL
MODEL 7
REMARK VINA RESULT:      -7.7      1.506      1.922
REMARK  Name = 
REMARK  15 active torsions:
REMARK  status: ('A' for Active; 'I' for Inactive)
REMARK    1  A    between atoms: C_1  and  O_2
REMARK    2  A    between atoms: O_2  and  C_3
REMARK    3  A    between atoms: C_7  and  C_8
REMARK    4  A    between atoms: C_8  and  N_9
REMARK    5  A    between atoms: N_9  and  C_10
REMARK    6  A    between atoms: C_10  and  C_11
REMARK    7  A    between atoms: C_11  and  C_12
REMARK    8  A    between atoms: C_12  and  N_13
REMARK    9  A    between atoms: N_13  and  C_14
REMARK   10  A    between atoms: C_20  and  C_21
REMARK   11  A    between atoms: C_24  and  C_25
REMARK   12  A    between atoms: C_25  and  C_26
REMARK   13  A    between atoms: C_25  and  C_27
REMARK   14  A    between atoms: C_25  and  C_28
REMARK   15  A    between atoms: C_34  and  O_35
REMARK                            x       y       z     vdW  Elec       q    Type
REMARK                         _______ _______ _______ _____ _____    ______ ____
ROOT
ATOM      1  C   UNL     1       2.069   7.115  19.699  0.00  0.00    +0.000 A 
ATOM      2  C   UNL     1       2.541   7.336  18.400  0.00  0.00    +0.000 A 
ATOM      3  C   UNL     1       2.365   8.567  17.811  0.00  0.00    +0.000 A 
ATOM      4  N   UNL     1       1.724   9.587  18.402  0.00  0.00    +0.000 NA
ATOM      5  C   UNL     1       1.239   9.386  19.631  0.00  0.00    +0.000 A 
ATOM      6  C   UNL     1       0.569  10.445  20.218  0.00  0.00    +0.000 A 
ATOM      7  C   UNL     1       0.040  10.399  21.516  0.00  0.00    +0.000 A 
ATOM      8  C   UNL     1       0.166   9.193  22.214  0.00  0.00    +0.000 A 
ATOM      9  C   UNL     1       0.809   8.095  21.636  0.00  0.00    +0.000 A 
ATOM     10  C   UNL     1       1.376   8.173  20.341  0.00  0.00    +0.000 A 
ENDROOT
BRANCH   7  11
ATOM     11  C   UNL     1      -0.593  11.592  22.115  0.00  0.00    +0.000 A 
ATOM     12  C   UNL     1      -1.705  11.494  22.959  0.00  0.00    +0.000 A 
ATOM     13  C   UNL     1      -2.267  12.627  23.559  0.00  0.00    +0.000 A 
ATOM     14  C   UNL     1      -1.750  13.910  23.330  0.00  0.00    +0.000 A 
ATOM     15  C   UNL     1      -0.657  14.012  22.457  0.00  0.00    +0.000 A 
ATOM     16  C   UNL     1      -0.086  12.878  21.872  0.00  0.00    +0.000 A 
BRANCH  14  17
ATOM     17  C   UNL     1      -2.315  15.167  24.006  0.00  0.00    +0.000 C 
ATOM     18  C   UNL     1      -3.835  15.086  24.267  0.00  0.00    +0.000 C 
ATOM     19  C   UNL     1      -1.621  15.371  25.371  0.00  0.00    +0.000 C 
ATOM     20  C   UNL     1      -2.062  16.405  23.120  0.00  0.00    +0.000 C 
ENDBRANCH  14  17
ENDBRANCH   7  11
BRANCH   1  21
ATOM     21  N   UNL     1       2.187   5.853  20.321  0.00  0.00    +0.000 N 
ATOM     22  H   UNL     1       3.137   5.494  20.246  0.00  0.00    +0.000 HD
BRANCH  21  23
ATOM     23  C   UNL     1       1.153   4.861  20.064  0.00  0.00    +0.000 C 
BRANCH  23  24
ATOM     24  C   UNL     1       1.274   3.694  21.032  0.00  0.00    +0.000 C 
BRANCH  24  25
ATOM     25  C   UNL     1       2.703   3.630  21.573  0.00  0.00    +0.000 C 
BRANCH  25  26
ATOM     26  N   UNL     1       3.200   2.272  21.395  0.00  0.00    +0.000 NA
ATOM     27  H   UNL     1       3.381   1.860  22.315  0.00  0.00    +0.000 HD
BRANCH  26  28
ATOM     28  C   UNL     1       4.452   2.234  20.634  0.00  0.00    +0.000 C 
BRANCH  28  33
ATOM     29  C   UNL     1       4.764   4.536  17.559  0.00  0.00    +0.000 A 
ATOM     30  C   UNL     1       3.753   3.993  16.757  0.00  0.00    +0.000 A 
ATOM     31  C   UNL     1       3.015   2.886  17.176  0.00  0.00    +0.000 A 
ATOM     32  C   UNL     1       3.257   2.322  18.426  0.00  0.00    +0.000 A 
ATOM     33  C   UNL     1       4.245   2.856  19.265  0.00  0.00    +0.000 A 
ATOM     34  C   UNL     1       5.028   3.940  18.798  0.00  0.00    +0.000 A 
BRANCH  29  36
ATOM     35  C   UNL     1       5.428   5.705  15.577  0.00  0.00    +0.000 C 
ATOM     36  O   UNL     1       5.368   5.629  16.994  0.00  0.00    +0.000 OA
ENDBRANCH  29  36
BRANCH  34  37
ATOM     37  O   UNL     1       6.059   4.411  19.576  0.00  0.00    +0.000 OA
ATOM     38  H   UNL     1       6.754   4.763  18.975  0.00  0.00    +0.000 HD
ENDBRANCH  34  37
ENDBRANCH  28  33
ENDBRANCH  26  28
ENDBRANCH  25  26
ENDBRANCH  24  25
ENDBRANCH  23  24
ENDBRANCH  21  23
ENDBRANCH   1  21
TORSDOF 11
ENDMDL
MODEL 8
REMARK VINA RESULT:      -7.7      1.882      2.428
REMARK  Name = 
REMARK  15 active torsions:
REMARK  status: ('A' for Active; 'I' for Inactive)
REMARK    1  A    between atoms: C_1  and  O_2
REMARK    2  A    between atoms: O_2  and  C_3
REMARK    3  A    between atoms: C_7  and  C_8
REMARK    4  A    between atoms: C_8  and  N_9
REMARK    5  A    between atoms: N_9  and  C_10
REMARK    6  A    between atoms: C_10  and  C_11
REMARK    7  A    between atoms: C_11  and  C_12
REMARK    8  A    between atoms: C_12  and  N_13
REMARK    9  A    between atoms: N_13  and  C_14
REMARK   10  A    between atoms: C_20  and  C_21
REMARK   11  A    between atoms: C_24  and  C_25
REMARK   12  A    between atoms: C_25  and  C_26
REMARK   13  A    between atoms: C_25  and  C_27
REMARK   14  A    between atoms: C_25  and  C_28
REMARK   15  A    between atoms: C_34  and  O_35
REMARK                            x       y       z     vdW  Elec       q    Type
REMARK                         _______ _______ _______ _____ _____    ______ ____
ROOT
ATOM      1  C   UNL     1       2.047   7.157  19.866  0.00  0.00    +0.000 A 
ATOM      2  C   UNL     1       2.682   6.710  18.701  0.00  0.00    +0.000 A 
ATOM      3  C   UNL     1       2.834   7.567  17.635  0.00  0.00    +0.000 A 
ATOM      4  N   UNL     1       2.372   8.827  17.626  0.00  0.00    +0.000 NA
ATOM      5  C   UNL     1       1.736   9.263  18.718  0.00  0.00    +0.000 A 
ATOM      6  C   UNL     1       1.254  10.560  18.682  0.00  0.00    +0.000 A 
ATOM      7  C   UNL     1       0.602  11.170  19.763  0.00  0.00    +0.000 A 
ATOM      8  C   UNL     1       0.395  10.391  20.906  0.00  0.00    +0.000 A 
ATOM      9  C   UNL     1       0.841   9.067  20.961  0.00  0.00    +0.000 A 
ATOM     10  C   UNL     1       1.537   8.481  19.876  0.00  0.00    +0.000 A 
ENDROOT
BRANCH   7  11
ATOM     11  C   UNL     1       0.184  12.585  19.690  0.00  0.00    +0.000 A 
ATOM     12  C   UNL     1      -1.045  13.021  20.199  0.00  0.00    +0.000 A 
ATOM     13  C   UNL     1      -1.409  14.373  20.168  0.00  0.00    +0.000 A 
ATOM     14  C   UNL     1      -0.566  15.345  19.612  0.00  0.00    +0.000 A 
ATOM     15  C   UNL     1       0.650  14.904  19.071  0.00  0.00    +0.000 A 
ATOM     16  C   UNL     1       1.020  13.557  19.119  0.00  0.00    +0.000 A 
BRANCH  14  17
ATOM     17  C   UNL     1      -0.915  16.840  19.601  0.00  0.00    +0.000 C 
ATOM     18  C   UNL     1       0.068  17.700  20.426  0.00  0.00    +0.000 C 
ATOM     19  C   UNL     1      -0.882  17.364  18.149  0.00  0.00    +0.000 C 
ATOM     20  C   UNL     1      -2.326  17.060  20.187  0.00  0.00    +0.000 C 
ENDBRANCH  14  17
ENDBRANCH   7  11
BRANCH   1  21
ATOM     21  N   UNL     1       1.828   6.296  20.963  0.00  0.00    +0.000 N 
ATOM     22  H   UNL     1       2.112   6.734  21.837  0.00  0.00    +0.000 HD
BRANCH  21  23
ATOM     23  C   UNL     1       2.234   4.903  20.835  0.00  0.00    +0.000 C 
BRANCH  23  24
ATOM     24  C   UNL     1       1.093   4.057  20.292  0.00  0.00    +0.000 C 
BRANCH  24  25
ATOM     25  C   UNL     1       1.647   2.731  19.769  0.00  0.00    +0.000 C 
BRANCH  25  26
ATOM     26  N   UNL     1       1.936   2.884  18.349  0.00  0.00    +0.000 NA
ATOM     27  H   UNL     1       1.230   2.376  17.808  0.00  0.00    +0.000 HD
BRANCH  26  28
ATOM     28  C   UNL     1       3.250   2.341  17.989  0.00  0.00    +0.000 C 
BRANCH  28  33
ATOM     29  C   UNL     1       5.948   5.054  18.447  0.00  0.00    +0.000 A 
ATOM     30  C   UNL     1       5.935   5.616  17.165  0.00  0.00    +0.000 A 
ATOM     31  C   UNL     1       5.108   5.108  16.163  0.00  0.00    +0.000 A 
ATOM     32  C   UNL     1       4.253   4.044  16.439  0.00  0.00    +0.000 A 
ATOM     33  C   UNL     1       4.222   3.474  17.720  0.00  0.00    +0.000 A 
ATOM     34  C   UNL     1       5.113   3.960  18.707  0.00  0.00    +0.000 A 
BRANCH  29  36
ATOM     35  C   UNL     1       8.182   5.341  19.262  0.00  0.00    +0.000 C 
ATOM     36  O   UNL     1       6.806   5.692  19.304  0.00  0.00    +0.000 OA
ENDBRANCH  29  36
BRANCH  34  37
ATOM     37  O   UNL     1       5.155   3.348  19.937  0.00  0.00    +0.000 OA
ATOM     38  H   UNL     1       4.417   2.699  19.977  0.00  0.00    +0.000 HD
ENDBRANCH  34  37
ENDBRANCH  28  33
ENDBRANCH  26  28
ENDBRANCH  25  26
ENDBRANCH  24  25
ENDBRANCH  23  24
ENDBRANCH  21  23
ENDBRANCH   1  21
TORSDOF 11
ENDMDL
MODEL 9
REMARK VINA RESULT:      -7.7      4.403      9.988
REMARK  Name = 
REMARK  15 active torsions:
REMARK  status: ('A' for Active; 'I' for Inactive)
REMARK    1  A    between atoms: C_1  and  O_2
REMARK    2  A    between atoms: O_2  and  C_3
REMARK    3  A    between atoms: C_7  and  C_8
REMARK    4  A    between atoms: C_8  and  N_9
REMARK    5  A    between atoms: N_9  and  C_10
REMARK    6  A    between atoms: C_10  and  C_11
REMARK    7  A    between atoms: C_11  and  C_12
REMARK    8  A    between atoms: C_12  and  N_13
REMARK    9  A    between atoms: N_13  and  C_14
REMARK   10  A    between atoms: C_20  and  C_21
REMARK   11  A    between atoms: C_24  and  C_25
REMARK   12  A    between atoms: C_25  and  C_26
REMARK   13  A    between atoms: C_25  and  C_27
REMARK   14  A    between atoms: C_25  and  C_28
REMARK   15  A    between atoms: C_34  and  O_35
REMARK                            x       y       z     vdW  Elec       q    Type
REMARK                         _______ _______ _______ _____ _____    ______ ____
ROOT
ATOM      1  C   UNL     1      -0.934  12.773  20.731  0.00  0.00    +0.000 A 
ATOM      2  C   UNL     1      -0.774  13.823  19.818  0.00  0.00    +0.000 A 
ATOM      3  C   UNL     1       0.009  13.642  18.701  0.00  0.00    +0.000 A 
ATOM      4  N   UNL     1       0.674  12.507  18.439  0.00  0.00    +0.000 NA
ATOM      5  C   UNL     1       0.558  11.503  19.313  0.00  0.00    +0.000 A 
ATOM      6  C   UNL     1       1.264  10.346  19.032  0.00  0.00    +0.000 A 
ATOM      7  C   UNL     1       1.212   9.196  19.833  0.00  0.00    +0.000 A 
ATOM      8  C   UNL     1       0.439   9.265  20.997  0.00  0.00    +0.000 A 
ATOM      9  C   UNL     1      -0.259  10.430  21.327  0.00  0.00    +0.000 A 
ATOM     10  C   UNL     1      -0.230  11.567  20.483  0.00  0.00    +0.000 A 
ENDROOT
BRANCH   7  11
ATOM     11  C   UNL     1       1.924   7.966  19.433  0.00  0.00    +0.000 A 
ATOM     12  C   UNL     1       2.660   7.890  18.245  0.00  0.00    +0.000 A 
ATOM     13  C   UNL     1       3.370   6.733  17.900  0.00  0.00    +0.000 A 
ATOM     14  C   UNL     1       3.363   5.597  18.721  0.00  0.00    +0.000 A 
ATOM     15  C   UNL     1       2.597   5.661  19.894  0.00  0.00    +0.000 A 
ATOM     16  C   UNL     1       1.903   6.822  20.246  0.00  0.00    +0.000 A 
BRANCH  14  17
ATOM     17  C   UNL     1       4.165   4.330  18.394  0.00  0.00    +0.000 C 
ATOM     18  C   UNL     1       5.689   4.573  18.338  0.00  0.00    +0.000 C 
ATOM     19  C   UNL     1       3.906   3.264  19.481  0.00  0.00    +0.000 C 
ATOM     20  C   UNL     1       3.735   3.768  17.022  0.00  0.00    +0.000 C 
ENDBRANCH  14  17
ENDBRANCH   7  11
BRANCH   1  21
ATOM     21  N   UNL     1      -1.689  12.933  21.913  0.00  0.00    +0.000 N 
ATOM     22  H   UNL     1      -2.080  12.045  22.222  0.00  0.00    +0.000 HD
BRANCH  21  23
ATOM     23  C   UNL     1      -2.618  14.053  21.989  0.00  0.00    +0.000 C 
BRANCH  23  24
ATOM     24  C   UNL     1      -3.956  13.604  22.556  0.00  0.00    +0.000 C 
BRANCH  24  25
ATOM     25  C   UNL     1      -4.562  12.537  21.642  0.00  0.00    +0.000 C 
BRANCH  25  26
ATOM     26  N   UNL     1      -4.293  12.911  20.260  0.00  0.00    +0.000 NA
ATOM     27  H   UNL     1      -4.535  13.898  20.128  0.00  0.00    +0.000 HD
BRANCH  26  28
ATOM     28  C   UNL     1      -5.085  12.125  19.309  0.00  0.00    +0.000 C 
BRANCH  28  33
ATOM     29  C   UNL     1      -3.493  10.993  15.987  0.00  0.00    +0.000 A 
ATOM     30  C   UNL     1      -2.491  10.151  16.483  0.00  0.00    +0.000 A 
ATOM     31  C   UNL     1      -2.303   9.983  17.855  0.00  0.00    +0.000 A 
ATOM     32  C   UNL     1      -3.141  10.633  18.757  0.00  0.00    +0.000 A 
ATOM     33  C   UNL     1      -4.171  11.465  18.294  0.00  0.00    +0.000 A 
ATOM     34  C   UNL     1      -4.308  11.674  16.900  0.00  0.00    +0.000 A 
BRANCH  29  36
ATOM     35  C   UNL     1      -3.008   9.914  13.905  0.00  0.00    +0.000 C 
ATOM     36  O   UNL     1      -3.542  11.021  14.618  0.00  0.00    +0.000 OA
ENDBRANCH  29  36
BRANCH  34  37
ATOM     37  O   UNL     1      -5.256  12.557  16.441  0.00  0.00    +0.000 OA
ATOM     38  H   UNL     1      -4.972  13.464  16.695  0.00  0.00    +0.000 HD
ENDBRANCH  34  37
ENDBRANCH  28  33
ENDBRANCH  26  28
ENDBRANCH  25  26
ENDBRANCH  24  25
ENDBRANCH  23  24
ENDBRANCH  21  23
ENDBRANCH   1  21
TORSDOF 11
ENDMDL
