MODEL 1
REMARK VINA RESULT:      -8.1      0.000      0.000
REMARK  Name = 
REMARK  6 active torsions:
REMARK  status: ('A' for Active; 'I' for Inactive)
REMARK    1  A    between atoms: C_1  and  C_2
REMARK    2  A    between atoms: C_9  and  N_10
REMARK    3  A    between atoms: N_10  and  C_11
REMARK    4  A    between atoms: C_11  and  N_13
REMARK    5  A    between atoms: C_14  and  C_16
REMARK    6  A    between atoms: N_20  and  C_21
REMARK                            x       y       z     vdW  Elec       q    Type
REMARK                         _______ _______ _______ _____ _____    ______ ____
ROOT
ATOM      1  N   UNL     1       2.578   6.290  20.362  0.00  0.00    +0.000 N 
ATOM      2  H   UNL     1       2.545   6.473  21.370  0.00  0.00    +0.000 HD
ENDROOT
BRANCH   1  11
ATOM      3  C   UNL     1      -0.017   9.331  23.418  0.00  0.00    +0.000 C 
ATOM      4  C   UNL     1       0.416   9.453  21.986  0.00  0.00    +0.000 A 
ATOM      5  C   UNL     1       0.018  10.546  21.229  0.00  0.00    +0.000 A 
ATOM      6  C   UNL     1       0.415  10.609  19.901  0.00  0.00    +0.000 A 
ATOM      7  C   UNL     1       1.175   9.574  19.351  0.00  0.00    +0.000 A 
ATOM      8  C   UNL     1       1.567   9.628  18.004  0.00  0.00    +0.000 A 
ATOM      9  C   UNL     1       2.305   8.594  17.448  0.00  0.00    +0.000 A 
ATOM     10  C   UNL     1       2.634   7.491  18.226  0.00  0.00    +0.000 A 
ATOM     11  C   UNL     1       2.225   7.413  19.566  0.00  0.00    +0.000 A 
ATOM     12  C   UNL     1       1.523   8.475  20.170  0.00  0.00    +0.000 A 
ATOM     13  N   UNL     1       1.157   8.435  21.476  0.00  0.00    +0.000 NA
ENDBRANCH   1  11
BRANCH   1  14
ATOM     14  C   UNL     1       2.748   4.979  19.986  0.00  0.00    +0.000 C 
ATOM     15  S   UNL     1       2.036   3.619  20.661  0.00  0.00    +0.000 S 
BRANCH  14  16
ATOM     16  N   UNL     1       3.599   4.756  18.925  0.00  0.00    +0.000 N 
ATOM     17  C   UNL     1       4.830   4.131  18.938  0.00  0.00    +0.000 C 
ATOM     18  O   UNL     1       5.171   3.383  19.854  0.00  0.00    +0.000 OA
ATOM     19  H   UNL     1       3.285   5.164  18.056  0.00  0.00    +0.000 HD
BRANCH  17  20
ATOM     20  C   UNL     1       5.645   4.346  17.763  0.00  0.00    +0.000 A 
ATOM     21  C   UNL     1       5.461   3.986  16.438  0.00  0.00    +0.000 A 
ATOM     22  C   UNL     1       6.563   4.519  15.748  0.00  0.00    +0.000 A 
ATOM     23  N   UNL     1       7.405   5.155  16.561  0.00  0.00    +0.000 NA
ATOM     24  N   UNL     1       6.831   5.046  17.774  0.00  0.00    +0.000 N 
ATOM     25  C   UNL     1       7.504   5.608  18.926  0.00  0.00    +0.000 C 
ENDBRANCH  17  20
ENDBRANCH  14  16
ENDBRANCH   1  14
TORSDOF 4
ENDMDL
MODEL 2
REMARK VINA RESULT:      -8.0      2.720      7.795
REMARK  Name = 
REMARK  6 active torsions:
REMARK  status: ('A' for Active; 'I' for Inactive)
REMARK    1  A    between atoms: C_1  and  C_2
REMARK    2  A    between atoms: C_9  and  N_10
REMARK    3  A    between atoms: N_10  and  C_11
REMARK    4  A    between atoms: C_11  and  N_13
REMARK    5  A    between atoms: C_14  and  C_16
REMARK    6  A    between atoms: N_20  and  C_21
REMARK                            x       y       z     vdW  Elec       q    Type
REMARK                         _______ _______ _______ _____ _____    ______ ____
ROOT
ATOM      1  N   UNL     1       2.408   7.158  20.185  0.00  0.00    +0.000 N 
ATOM      2  H   UNL     1       3.206   7.303  20.811  0.00  0.00    +0.000 HD
ENDROOT
BRANCH   1  11
ATOM      3  C   UNL     1       5.488   6.204  16.322  0.00  0.00    +0.000 C 
ATOM      4  C   UNL     1       4.528   5.348  17.095  0.00  0.00    +0.000 A 
ATOM      5  C   UNL     1       4.306   4.032  16.714  0.00  0.00    +0.000 A 
ATOM      6  C   UNL     1       3.390   3.281  17.436  0.00  0.00    +0.000 A 
ATOM      7  C   UNL     1       2.699   3.862  18.502  0.00  0.00    +0.000 A 
ATOM      8  C   UNL     1       1.761   3.110  19.227  0.00  0.00    +0.000 A 
ATOM      9  C   UNL     1       1.057   3.687  20.273  0.00  0.00    +0.000 A 
ATOM     10  C   UNL     1       1.269   5.024  20.585  0.00  0.00    +0.000 A 
ATOM     11  C   UNL     1       2.184   5.795  19.851  0.00  0.00    +0.000 A 
ATOM     12  C   UNL     1       2.951   5.217  18.820  0.00  0.00    +0.000 A 
ATOM     13  N   UNL     1       3.870   5.936  18.128  0.00  0.00    +0.000 NA
ENDBRANCH   1  11
BRANCH   1  14
ATOM     14  C   UNL     1       1.851   8.288  19.635  0.00  0.00    +0.000 C 
ATOM     15  S   UNL     1       1.834   8.740  18.020  0.00  0.00    +0.000 S 
BRANCH  14  16
ATOM     16  N   UNL     1       1.229   9.148  20.514  0.00  0.00    +0.000 N 
ATOM     17  C   UNL     1       0.043   8.959  21.195  0.00  0.00    +0.000 C 
ATOM     18  O   UNL     1      -0.441   7.840  21.363  0.00  0.00    +0.000 OA
ATOM     19  H   UNL     1       1.689  10.042  20.606  0.00  0.00    +0.000 HD
BRANCH  17  20
ATOM     20  C   UNL     1      -0.538  10.153  21.769  0.00  0.00    +0.000 A 
ATOM     21  C   UNL     1      -0.753  10.530  23.084  0.00  0.00    +0.000 A 
ATOM     22  C   UNL     1      -1.299  11.823  23.019  0.00  0.00    +0.000 A 
ATOM     23  N   UNL     1      -1.445  12.244  21.763  0.00  0.00    +0.000 NA
ATOM     24  N   UNL     1      -0.975  11.224  21.021  0.00  0.00    +0.000 N 
ATOM     25  C   UNL     1      -1.011  11.326  19.578  0.00  0.00    +0.000 C 
ENDBRANCH  17  20
ENDBRANCH  14  16
ENDBRANCH   1  14
TORSDOF 4
ENDMDL
MODEL 3
REMARK VINA RESULT:      -7.9      3.088      7.338
REMARK  Name = 
REMARK  6 active torsions:
REMARK  status: ('A' for Active; 'I' for Inactive)
REMARK    1  A    between atoms: C_1  and  C_2
REMARK    2  A    between atoms: C_9  and  N_10
REMARK    3  A    between atoms: N_10  and  C_11
REMARK    4  A    between atoms: C_11  and  N_13
REMARK    5  A    between atoms: C_14  and  C_16
REMARK    6  A    between atoms: N_20  and  C_21
REMARK                            x       y       z     vdW  Elec       q    Type
REMARK                         _______ _______ _______ _____ _____    ______ ____
ROOT
ATOM      1  N   UNL     1       2.304   7.575  20.170  0.00  0.00    +0.000 N 
ATOM      2  H   UNL     1       3.143   7.973  19.736  0.00  0.00    +0.000 HD
ENDROOT
BRANCH   1  11
ATOM      3  C   UNL     1       5.261   6.551  16.230  0.00  0.00    +0.000 C 
ATOM      4  C   UNL     1       4.381   5.695  17.094  0.00  0.00    +0.000 A 
ATOM      5  C   UNL     1       4.213   4.349  16.799  0.00  0.00    +0.000 A 
ATOM      6  C   UNL     1       3.370   3.597  17.603  0.00  0.00    +0.000 A 
ATOM      7  C   UNL     1       2.696   4.204  18.666  0.00  0.00    +0.000 A 
ATOM      8  C   UNL     1       1.832   3.450  19.474  0.00  0.00    +0.000 A 
ATOM      9  C   UNL     1       1.144   4.052  20.517  0.00  0.00    +0.000 A 
ATOM     10  C   UNL     1       1.298   5.414  20.743  0.00  0.00    +0.000 A 
ATOM     11  C   UNL     1       2.138   6.185  19.925  0.00  0.00    +0.000 A 
ATOM     12  C   UNL     1       2.890   5.587  18.894  0.00  0.00    +0.000 A 
ATOM     13  N   UNL     1       3.739   6.309  18.121  0.00  0.00    +0.000 NA
ENDBRANCH   1  11
BRANCH   1  14
ATOM     14  C   UNL     1       1.416   8.471  20.715  0.00  0.00    +0.000 C 
ATOM     15  S   UNL     1       1.355   9.019  22.299  0.00  0.00    +0.000 S 
BRANCH  14  16
ATOM     16  N   UNL     1       0.468   8.985  19.857  0.00  0.00    +0.000 N 
ATOM     17  C   UNL     1       0.670   9.657  18.667  0.00  0.00    +0.000 C 
ATOM     18  O   UNL     1       1.731   9.580  18.048  0.00  0.00    +0.000 OA
ATOM     19  H   UNL     1      -0.479   8.898  20.195  0.00  0.00    +0.000 HD
BRANCH  17  20
ATOM     20  C   UNL     1      -0.477  10.377  18.162  0.00  0.00    +0.000 A 
ATOM     21  C   UNL     1      -1.536   9.976  17.363  0.00  0.00    +0.000 A 
ATOM     22  C   UNL     1      -2.370  11.103  17.253  0.00  0.00    +0.000 A 
ATOM     23  N   UNL     1      -1.883  12.154  17.910  0.00  0.00    +0.000 NA
ATOM     24  N   UNL     1      -0.741  11.696  18.458  0.00  0.00    +0.000 N 
ATOM     25  C   UNL     1       0.082  12.600  19.232  0.00  0.00    +0.000 C 
ENDBRANCH  17  20
ENDBRANCH  14  16
ENDBRANCH   1  14
TORSDOF 4
ENDMDL
MODEL 4
REMARK VINA RESULT:      -7.8      2.894      5.009
REMARK  Name = 
REMARK  6 active torsions:
REMARK  status: ('A' for Active; 'I' for Inactive)
REMARK    1  A    between atoms: C_1  and  C_2
REMARK    2  A    between atoms: C_9  and  N_10
REMARK    3  A    between atoms: N_10  and  C_11
REMARK    4  A    between atoms: C_11  and  N_13
REMARK    5  A    between atoms: C_14  and  C_16
REMARK    6  A    between atoms: N_20  and  C_21
REMARK                            x       y       z     vdW  Elec       q    Type
REMARK                         _______ _______ _______ _____ _____    ______ ____
ROOT
ATOM      1  N   UNL     1       5.121   5.221  17.930  0.00  0.00    +0.000 N 
ATOM      2  H   UNL     1       4.831   6.167  18.195  0.00  0.00    +0.000 HD
ENDROOT
BRANCH   1  11
ATOM      3  C   UNL     1       1.697   7.490  20.836  0.00  0.00    +0.000 C 
ATOM      4  C   UNL     1       1.797   6.103  20.272  0.00  0.00    +0.000 A 
ATOM      5  C   UNL     1       0.852   5.144  20.609  0.00  0.00    +0.000 A 
ATOM      6  C   UNL     1       0.993   3.866  20.090  0.00  0.00    +0.000 A 
ATOM      7  C   UNL     1       2.082   3.564  19.269  0.00  0.00    +0.000 A 
ATOM      8  C   UNL     1       2.236   2.268  18.753  0.00  0.00    +0.000 A 
ATOM      9  C   UNL     1       3.326   1.957  17.954  0.00  0.00    +0.000 A 
ATOM     10  C   UNL     1       4.280   2.931  17.687  0.00  0.00    +0.000 A 
ATOM     11  C   UNL     1       4.152   4.223  18.219  0.00  0.00    +0.000 A 
ATOM     12  C   UNL     1       3.025   4.579  18.987  0.00  0.00    +0.000 A 
ATOM     13  N   UNL     1       2.864   5.835  19.474  0.00  0.00    +0.000 NA
ENDBRANCH   1  11
BRANCH   1  14
ATOM     14  C   UNL     1       6.433   5.070  17.549  0.00  0.00    +0.000 C 
ATOM     15  S   UNL     1       7.803   5.250  18.499  0.00  0.00    +0.000 S 
BRANCH  14  16
ATOM     16  N   UNL     1       6.648   4.726  16.231  0.00  0.00    +0.000 N 
ATOM     17  C   UNL     1       6.090   5.292  15.101  0.00  0.00    +0.000 C 
ATOM     18  O   UNL     1       5.583   6.413  15.117  0.00  0.00    +0.000 OA
ATOM     19  H   UNL     1       7.244   3.920  16.111  0.00  0.00    +0.000 HD
BRANCH  17  20
ATOM     20  C   UNL     1       6.225   4.514  13.890  0.00  0.00    +0.000 A 
ATOM     21  C   UNL     1       5.470   3.471  13.378  0.00  0.00    +0.000 A 
ATOM     22  C   UNL     1       6.057   3.157  12.140  0.00  0.00    +0.000 A 
ATOM     23  N   UNL     1       7.117   3.919  11.879  0.00  0.00    +0.000 NA
ATOM     24  N   UNL     1       7.202   4.737  12.945  0.00  0.00    +0.000 N 
ATOM     25  C   UNL     1       8.282   5.697  13.014  0.00  0.00    +0.000 C 
ENDBRANCH  17  20
ENDBRANCH  14  16
ENDBRANCH   1  14
TORSDOF 4
ENDMDL
MODEL 5
REMARK VINA RESULT:      -7.7      2.745      4.847
REMARK  Name = 
REMARK  6 active torsions:
REMARK  status: ('A' for Active; 'I' for Inactive)
REMARK    1  A    between atoms: C_1  and  C_2
REMARK    2  A    between atoms: C_9  and  N_10
REMARK    3  A    between atoms: N_10  and  C_11
REMARK    4  A    between atoms: C_11  and  N_13
REMARK    5  A    between atoms: C_14  and  C_16
REMARK    6  A    between atoms: N_20  and  C_21
REMARK                            x       y       z     vdW  Elec       q    Type
REMARK                         _______ _______ _______ _____ _____    ______ ____
ROOT
ATOM      1  N   UNL     1       4.430   3.496  17.836  0.00  0.00    +0.000 N 
ATOM      2  H   UNL     1       3.919   3.014  17.090  0.00  0.00    +0.000 HD
ENDROOT
BRANCH   1  11
ATOM      3  C   UNL     1       2.743   8.236  17.776  0.00  0.00    +0.000 C 
ATOM      4  C   UNL     1       2.552   7.098  18.737  0.00  0.00    +0.000 A 
ATOM      5  C   UNL     1       1.850   7.294  19.917  0.00  0.00    +0.000 A 
ATOM      6  C   UNL     1       1.719   6.227  20.793  0.00  0.00    +0.000 A 
ATOM      7  C   UNL     1       2.309   4.998  20.487  0.00  0.00    +0.000 A 
ATOM      8  C   UNL     1       2.191   3.919  21.376  0.00  0.00    +0.000 A 
ATOM      9  C   UNL     1       2.792   2.703  21.087  0.00  0.00    +0.000 A 
ATOM     10  C   UNL     1       3.534   2.566  19.920  0.00  0.00    +0.000 A 
ATOM     11  C   UNL     1       3.683   3.645  19.036  0.00  0.00    +0.000 A 
ATOM     12  C   UNL     1       3.036   4.873  19.280  0.00  0.00    +0.000 A 
ATOM     13  N   UNL     1       3.134   5.914  18.414  0.00  0.00    +0.000 NA
ENDBRANCH   1  11
BRANCH   1  14
ATOM     14  C   UNL     1       5.625   4.073  17.482  0.00  0.00    +0.000 C 
ATOM     15  S   UNL     1       6.664   4.960  18.456  0.00  0.00    +0.000 S 
BRANCH  14  16
ATOM     16  N   UNL     1       6.021   3.898  16.173  0.00  0.00    +0.000 N 
ATOM     17  C   UNL     1       5.864   4.769  15.112  0.00  0.00    +0.000 C 
ATOM     18  O   UNL     1       5.651   5.969  15.281  0.00  0.00    +0.000 OA
ATOM     19  H   UNL     1       6.416   2.989  15.984  0.00  0.00    +0.000 HD
BRANCH  17  20
ATOM     20  C   UNL     1       6.057   4.187  13.802  0.00  0.00    +0.000 A 
ATOM     21  C   UNL     1       5.321   3.251  13.094  0.00  0.00    +0.000 A 
ATOM     22  C   UNL     1       5.971   3.124  11.854  0.00  0.00    +0.000 A 
ATOM     23  N   UNL     1       7.051   3.899  11.771  0.00  0.00    +0.000 NA
ATOM     24  N   UNL     1       7.085   4.539  12.955  0.00  0.00    +0.000 N 
ATOM     25  C   UNL     1       8.169   5.457  13.231  0.00  0.00    +0.000 C 
ENDBRANCH  17  20
ENDBRANCH  14  16
ENDBRANCH   1  14
TORSDOF 4
ENDMDL
MODEL 6
REMARK VINA RESULT:      -7.6      3.048      4.693
REMARK  Name = 
REMARK  6 active torsions:
REMARK  status: ('A' for Active; 'I' for Inactive)
REMARK    1  A    between atoms: C_1  and  C_2
REMARK    2  A    between atoms: C_9  and  N_10
REMARK    3  A    between atoms: N_10  and  C_11
REMARK    4  A    between atoms: C_11  and  N_13
REMARK    5  A    between atoms: C_14  and  C_16
REMARK    6  A    between atoms: N_20  and  C_21
REMARK                            x       y       z     vdW  Elec       q    Type
REMARK                         _______ _______ _______ _____ _____    ______ ____
ROOT
ATOM      1  N   UNL     1       5.188   4.550  17.786  0.00  0.00    +0.000 N 
ATOM      2  H   UNL     1       4.796   3.608  17.687  0.00  0.00    +0.000 HD
ENDROOT
BRANCH   1  11
ATOM      3  C   UNL     1       2.493   2.542  21.531  0.00  0.00    +0.000 C 
ATOM      4  C   UNL     1       2.453   3.879  20.849  0.00  0.00    +0.000 A 
ATOM      5  C   UNL     1       1.472   4.801  21.183  0.00  0.00    +0.000 A 
ATOM      6  C   UNL     1       1.451   6.015  20.512  0.00  0.00    +0.000 A 
ATOM      7  C   UNL     1       2.388   6.272  19.508  0.00  0.00    +0.000 A 
ATOM      8  C   UNL     1       2.361   7.494  18.817  0.00  0.00    +0.000 A 
ATOM      9  C   UNL     1       3.275   7.747  17.806  0.00  0.00    +0.000 A 
ATOM     10  C   UNL     1       4.205   6.773  17.463  0.00  0.00    +0.000 A 
ATOM     11  C   UNL     1       4.225   5.537  18.128  0.00  0.00    +0.000 A 
ATOM     12  C   UNL     1       3.343   5.277  19.196  0.00  0.00    +0.000 A 
ATOM     13  N   UNL     1       3.376   4.105  19.878  0.00  0.00    +0.000 NA
ENDBRANCH   1  11
BRANCH   1  14
ATOM     14  C   UNL     1       6.490   4.714  17.377  0.00  0.00    +0.000 C 
ATOM     15  S   UNL     1       7.803   5.191  18.305  0.00  0.00    +0.000 S 
BRANCH  14  16
ATOM     16  N   UNL     1       6.748   4.450  16.049  0.00  0.00    +0.000 N 
ATOM     17  C   UNL     1       6.253   5.106  14.938  0.00  0.00    +0.000 C 
ATOM     18  O   UNL     1       5.779   6.240  15.009  0.00  0.00    +0.000 OA
ATOM     19  H   UNL     1       7.324   3.636  15.898  0.00  0.00    +0.000 HD
BRANCH  17  20
ATOM     20  C   UNL     1       6.414   4.405  13.684  0.00  0.00    +0.000 A 
ATOM     21  C   UNL     1       5.701   3.363  13.115  0.00  0.00    +0.000 A 
ATOM     22  C   UNL     1       6.294   3.145  11.859  0.00  0.00    +0.000 A 
ATOM     23  N   UNL     1       7.320   3.965  11.639  0.00  0.00    +0.000 NA
ATOM     24  N   UNL     1       7.375   4.724  12.750  0.00  0.00    +0.000 N 
ATOM     25  C   UNL     1       8.414   5.724  12.871  0.00  0.00    +0.000 C 
ENDBRANCH  17  20
ENDBRANCH  14  16
ENDBRANCH   1  14
TORSDOF 4
ENDMDL
MODEL 7
REMARK VINA RESULT:      -7.5      2.878      7.836
REMARK  Name = 
REMARK  6 active torsions:
REMARK  status: ('A' for Active; 'I' for Inactive)
REMARK    1  A    between atoms: C_1  and  C_2
REMARK    2  A    between atoms: C_9  and  N_10
REMARK    3  A    between atoms: N_10  and  C_11
REMARK    4  A    between atoms: C_11  and  N_13
REMARK    5  A    between atoms: C_14  and  C_16
REMARK    6  A    between atoms: N_20  and  C_21
REMARK                            x       y       z     vdW  Elec       q    Type
REMARK                         _______ _______ _______ _____ _____    ______ ____
ROOT
ATOM      1  N   UNL     1       2.385   7.295  20.105  0.00  0.00    +0.000 N 
ATOM      2  H   UNL     1       3.169   7.435  20.749  0.00  0.00    +0.000 HD
ENDROOT
BRANCH   1  11
ATOM      3  C   UNL     1       5.510   6.215  16.311  0.00  0.00    +0.000 C 
ATOM      4  C   UNL     1       4.519   5.392  17.082  0.00  0.00    +0.000 A 
ATOM      5  C   UNL     1       4.277   4.074  16.719  0.00  0.00    +0.000 A 
ATOM      6  C   UNL     1       3.335   3.354  17.437  0.00  0.00    +0.000 A 
ATOM      7  C   UNL     1       2.638   3.966  18.482  0.00  0.00    +0.000 A 
ATOM      8  C   UNL     1       1.673   3.245  19.203  0.00  0.00    +0.000 A 
ATOM      9  C   UNL     1       0.964   3.854  20.227  0.00  0.00    +0.000 A 
ATOM     10  C   UNL     1       1.196   5.191  20.521  0.00  0.00    +0.000 A 
ATOM     11  C   UNL     1       2.139   5.931  19.790  0.00  0.00    +0.000 A 
ATOM     12  C   UNL     1       2.911   5.321  18.782  0.00  0.00    +0.000 A 
ATOM     13  N   UNL     1       3.857   6.010  18.094  0.00  0.00    +0.000 NA
ENDBRANCH   1  11
BRANCH   1  14
ATOM     14  C   UNL     1       1.868   8.426  19.520  0.00  0.00    +0.000 C 
ATOM     15  S   UNL     1       1.844   8.818  17.890  0.00  0.00    +0.000 S 
BRANCH  14  16
ATOM     16  N   UNL     1       1.297   9.345  20.375  0.00  0.00    +0.000 N 
ATOM     17  C   UNL     1       0.078   9.982  20.249  0.00  0.00    +0.000 C 
ATOM     18  O   UNL     1      -0.813   9.547  19.520  0.00  0.00    +0.000 OA
ATOM     19  H   UNL     1       1.892   9.611  21.146  0.00  0.00    +0.000 HD
BRANCH  17  20
ATOM     20  C   UNL     1      -0.105  11.138  21.098  0.00  0.00    +0.000 A 
ATOM     21  C   UNL     1      -0.004  12.495  20.839  0.00  0.00    +0.000 A 
ATOM     22  C   UNL     1      -0.349  13.134  22.043  0.00  0.00    +0.000 A 
ATOM     23  N   UNL     1      -0.631  12.263  23.010  0.00  0.00    +0.000 NA
ATOM     24  N   UNL     1      -0.484  11.061  22.420  0.00  0.00    +0.000 N 
ATOM     25  C   UNL     1      -0.686   9.861  23.203  0.00  0.00    +0.000 C 
ENDBRANCH  17  20
ENDBRANCH  14  16
ENDBRANCH   1  14
TORSDOF 4
ENDMDL
MODEL 8
REMARK VINA RESULT:      -7.4      1.857      7.125
REMARK  Name = 
REMARK  6 active torsions:
REMARK  status: ('A' for Active; 'I' for Inactive)
REMARK    1  A    between atoms: C_1  and  C_2
REMARK    2  A    between atoms: C_9  and  N_10
REMARK    3  A    between atoms: N_10  and  C_11
REMARK    4  A    between atoms: C_11  and  N_13
REMARK    5  A    between atoms: C_14  and  C_16
REMARK    6  A    between atoms: N_20  and  C_21
REMARK                            x       y       z     vdW  Elec       q    Type
REMARK                         _______ _______ _______ _____ _____    ______ ____
ROOT
ATOM      1  N   UNL     1       3.726   3.610  17.744  0.00  0.00    +0.000 N 
ATOM      2  H   UNL     1       3.724   2.595  17.599  0.00  0.00    +0.000 HD
ENDROOT
BRANCH   1  11
ATOM      3  C   UNL     1       5.084   3.723  12.900  0.00  0.00    +0.000 C 
ATOM      4  C   UNL     1       5.754   4.194  14.158  0.00  0.00    +0.000 A 
ATOM      5  C   UNL     1       7.039   4.715  14.109  0.00  0.00    +0.000 A 
ATOM      6  C   UNL     1       7.636   5.114  15.295  0.00  0.00    +0.000 A 
ATOM      7  C   UNL     1       6.953   4.962  16.504  0.00  0.00    +0.000 A 
ATOM      8  C   UNL     1       7.558   5.351  17.709  0.00  0.00    +0.000 A 
ATOM      9  C   UNL     1       6.893   5.184  18.914  0.00  0.00    +0.000 A 
ATOM     10  C   UNL     1       5.630   4.605  18.925  0.00  0.00    +0.000 A 
ATOM     11  C   UNL     1       5.025   4.187  17.730  0.00  0.00    +0.000 A 
ATOM     12  C   UNL     1       5.657   4.396  16.488  0.00  0.00    +0.000 A 
ATOM     13  N   UNL     1       5.068   4.037  15.320  0.00  0.00    +0.000 NA
ENDBRANCH   1  11
BRANCH   1  14
ATOM     14  C   UNL     1       2.531   4.173  18.120  0.00  0.00    +0.000 C 
ATOM     15  S   UNL     1       1.135   3.384  18.612  0.00  0.00    +0.000 S 
BRANCH  14  16
ATOM     16  N   UNL     1       2.474   5.551  18.097  0.00  0.00    +0.000 N 
ATOM     17  C   UNL     1       2.541   6.424  19.165  0.00  0.00    +0.000 C 
ATOM     18  O   UNL     1       3.007   6.088  20.253  0.00  0.00    +0.000 OA
ATOM     19  H   UNL     1       2.301   5.937  17.180  0.00  0.00    +0.000 HD
BRANCH  17  20
ATOM     20  C   UNL     1       2.110   7.775  18.885  0.00  0.00    +0.000 A 
ATOM     21  C   UNL     1       2.211   8.556  17.745  0.00  0.00    +0.000 A 
ATOM     22  C   UNL     1       1.560   9.762  18.057  0.00  0.00    +0.000 A 
ATOM     23  N   UNL     1       1.093   9.772  19.305  0.00  0.00    +0.000 NA
ATOM     24  N   UNL     1       1.429   8.562  19.789  0.00  0.00    +0.000 N 
ATOM     25  C   UNL     1       1.099   8.233  21.159  0.00  0.00    +0.000 C 
ENDBRANCH  17  20
ENDBRANCH  14  16
ENDBRANCH   1  14
TORSDOF 4
ENDMDL
MODEL 9
REMARK VINA RESULT:      -7.4      3.677      5.565
REMARK  Name = 
REMARK  6 active torsions:
REMARK  status: ('A' for Active; 'I' for Inactive)
REMARK    1  A    between atoms: C_1  and  C_2
REMARK    2  A    between atoms: C_9  and  N_10
REMARK    3  A    between atoms: N_10  and  C_11
REMARK    4  A    between atoms: C_11  and  N_13
REMARK    5  A    between atoms: C_14  and  C_16
REMARK    6  A    between atoms: N_20  and  C_21
REMARK                            x       y       z     vdW  Elec       q    Type
REMARK                         _______ _______ _______ _____ _____    ______ ____
ROOT
ATOM      1  N   UNL     1       5.869   5.596  18.168  0.00  0.00    +0.000 N 
ATOM      2  H   UNL     1       6.164   4.830  18.783  0.00  0.00    +0.000 HD
ENDROOT
BRANCH   1  11
ATOM      3  C   UNL     1       3.870   0.991  18.518  0.00  0.00    +0.000 C 
ATOM      4  C   UNL     1       3.264   2.362  18.438  0.00  0.00    +0.000 A 
ATOM      5  C   UNL     1       1.886   2.512  18.366  0.00  0.00    +0.000 A 
ATOM      6  C   UNL     1       1.365   3.793  18.264  0.00  0.00    +0.000 A 
ATOM      7  C   UNL     1       2.225   4.893  18.213  0.00  0.00    +0.000 A 
ATOM      8  C   UNL     1       1.703   6.190  18.098  0.00  0.00    +0.000 A 
ATOM      9  C   UNL     1       2.552   7.284  18.026  0.00  0.00    +0.000 A 
ATOM     10  C   UNL     1       3.927   7.086  18.045  0.00  0.00    +0.000 A 
ATOM     11  C   UNL     1       4.462   5.792  18.133  0.00  0.00    +0.000 A 
ATOM     12  C   UNL     1       3.621   4.669  18.263  0.00  0.00    +0.000 A 
ATOM     13  N   UNL     1       4.122   3.415  18.392  0.00  0.00    +0.000 NA
ENDBRANCH   1  11
BRANCH   1  14
ATOM     14  C   UNL     1       6.841   6.135  17.360  0.00  0.00    +0.000 C 
ATOM     15  S   UNL     1       7.904   7.380  17.726  0.00  0.00    +0.000 S 
BRANCH  14  16
ATOM     16  N   UNL     1       6.959   5.585  16.101  0.00  0.00    +0.000 N 
ATOM     17  C   UNL     1       6.119   5.752  15.017  0.00  0.00    +0.000 C 
ATOM     18  O   UNL     1       5.334   6.696  14.940  0.00  0.00    +0.000 OA
ATOM     19  H   UNL     1       7.729   4.940  16.008  0.00  0.00    +0.000 HD
BRANCH  17  20
ATOM     20  C   UNL     1       6.293   4.794  13.949  0.00  0.00    +0.000 A 
ATOM     21  C   UNL     1       5.560   3.675  13.588  0.00  0.00    +0.000 A 
ATOM     22  C   UNL     1       6.184   3.175  12.431  0.00  0.00    +0.000 A 
ATOM     23  N   UNL     1       7.246   3.898  12.081  0.00  0.00    +0.000 NA
ATOM     24  N   UNL     1       7.295   4.875  13.006  0.00  0.00    +0.000 N 
ATOM     25  C   UNL     1       8.366   5.846  12.951  0.00  0.00    +0.000 C 
ENDBRANCH  17  20
ENDBRANCH  14  16
ENDBRANCH   1  14
TORSDOF 4
ENDMDL
