MODEL 1
REMARK VINA RESULT:      -8.1      0.000      0.000
REMARK  Name = 
REMARK  6 active torsions:
REMARK  status: ('A' for Active; 'I' for Inactive)
REMARK    1  A    between atoms: C_2  and  C_3
REMARK    2  A    between atoms: C_3  and  C_4
REMARK    3  A    between atoms: N_10  and  C_11
REMARK    4  A    between atoms: C_11  and  C_12
REMARK    5  A    between atoms: N_20  and  C_21
REMARK    6  A    between atoms: C_21  and  C_22
REMARK                            x       y       z     vdW  Elec       q    Type
REMARK                         _______ _______ _______ _____ _____    ______ ____
ROOT
ATOM      1  C   UNL     1       2.249   5.133  18.844  0.00  0.00    +0.000 C 
ATOM      2  C   UNL     1       1.891   4.698  20.284  0.00  0.00    +0.000 C 
ATOM      3  O   UNL     1       1.845   5.500  21.220  0.00  0.00    +0.000 OA
ATOM      4  N   UNL     1       1.500   3.406  20.504  0.00  0.00    +0.000 N 
ATOM      5  C   UNL     1       1.715   2.352  19.541  0.00  0.00    +0.000 C 
ATOM      6  C   UNL     1       1.696   2.888  18.108  0.00  0.00    +0.000 C 
ATOM      7  N   UNL     1       2.656   4.011  17.927  0.00  0.00    +0.000 NA
ATOM      8  H   UNL     1       1.334   3.175  21.474  0.00  0.00    +0.000 HD
ENDROOT
BRANCH   1   9
ATOM      9  C   UNL     1       3.045   6.457  18.881  0.00  0.00    +0.000 C 
BRANCH   9  11
ATOM     10  O   UNL     1       2.097   8.301  17.634  0.00  0.00    +0.000 OA
ATOM     11  C   UNL     1       2.274   7.764  18.715  0.00  0.00    +0.000 C 
ATOM     12  N   UNL     1       1.737   8.269  19.892  0.00  0.00    +0.000 N 
ATOM     13  H   UNL     1       2.071   7.877  20.768  0.00  0.00    +0.000 HD
BRANCH  12  14
ATOM     14  C   UNL     1       0.985   9.509  19.968  0.00  0.00    +0.000 C 
BRANCH  14  15
ATOM     15  C   UNL     1       0.536   9.710  21.389  0.00  0.00    +0.000 A 
ATOM     16  C   UNL     1      -0.721  10.163  21.858  0.00  0.00    +0.000 A 
ATOM     17  C   UNL     1      -0.611  10.126  23.220  0.00  0.00    +0.000 A 
ATOM     18  O   UNL     1       0.631   9.704  23.563  0.00  0.00    +0.000 OA
ATOM     19  N   UNL     1       1.359   9.440  22.414  0.00  0.00    +0.000 NA
ENDBRANCH  14  15
ENDBRANCH  12  14
ENDBRANCH   9  11
ENDBRANCH   1   9
BRANCH   7  20
ATOM     20  C   UNL     1       4.066   3.558  18.057  0.00  0.00    +0.000 C 
BRANCH  20  21
ATOM     21  C   UNL     1       4.994   4.260  17.063  0.00  0.00    +0.000 A 
ATOM     22  C   UNL     1       4.725   4.082  15.694  0.00  0.00    +0.000 A 
ATOM     23  C   UNL     1       5.726   4.306  14.751  0.00  0.00    +0.000 A 
ATOM     24  C   UNL     1       6.901   4.933  15.134  0.00  0.00    +0.000 A 
ATOM     25  F   UNL     1       7.868   5.129  14.231  0.00  0.00    +0.000 F 
ATOM     26  C   UNL     1       7.097   5.331  16.448  0.00  0.00    +0.000 A 
ATOM     27  C   UNL     1       6.169   4.950  17.422  0.00  0.00    +0.000 A 
ATOM     28 CL   UNL     1       6.576   5.294  19.064  0.00  0.00    +0.000 Cl
ENDBRANCH  20  21
ENDBRANCH   7  20
TORSDOF 6
ENDMDL
MODEL 2
REMARK VINA RESULT:      -8.1      1.536      1.938
REMARK  Name = 
REMARK  6 active torsions:
REMARK  status: ('A' for Active; 'I' for Inactive)
REMARK    1  A    between atoms: C_2  and  C_3
REMARK    2  A    between atoms: C_3  and  C_4
REMARK    3  A    between atoms: N_10  and  C_11
REMARK    4  A    between atoms: C_11  and  C_12
REMARK    5  A    between atoms: N_20  and  C_21
REMARK    6  A    between atoms: C_21  and  C_22
REMARK                            x       y       z     vdW  Elec       q    Type
REMARK                         _______ _______ _______ _____ _____    ______ ____
ROOT
ATOM      1  C   UNL     1       2.406   4.941  18.712  0.00  0.00    +0.000 C 
ATOM      2  C   UNL     1       1.577   4.168  19.762  0.00  0.00    +0.000 C 
ATOM      3  O   UNL     1       1.072   4.725  20.740  0.00  0.00    +0.000 OA
ATOM      4  N   UNL     1       1.296   2.849  19.539  0.00  0.00    +0.000 N 
ATOM      5  C   UNL     1       1.996   2.058  18.555  0.00  0.00    +0.000 C 
ATOM      6  C   UNL     1       2.467   2.915  17.378  0.00  0.00    +0.000 C 
ATOM      7  N   UNL     1       3.273   4.081  17.832  0.00  0.00    +0.000 NA
ATOM      8  H   UNL     1       0.798   2.390  20.290  0.00  0.00    +0.000 HD
ENDROOT
BRANCH   1   9
ATOM      9  C   UNL     1       2.954   6.245  19.335  0.00  0.00    +0.000 C 
BRANCH   9  11
ATOM     10  O   UNL     1       2.133   7.941  17.818  0.00  0.00    +0.000 OA
ATOM     11  C   UNL     1       2.269   7.560  18.969  0.00  0.00    +0.000 C 
ATOM     12  N   UNL     1       1.760   8.265  20.051  0.00  0.00    +0.000 N 
ATOM     13  H   UNL     1       2.063   7.984  20.980  0.00  0.00    +0.000 HD
BRANCH  12  14
ATOM     14  C   UNL     1       1.088   9.547  19.934  0.00  0.00    +0.000 C 
BRANCH  14  15
ATOM     15  C   UNL     1       0.429   9.863  21.248  0.00  0.00    +0.000 A 
ATOM     16  C   UNL     1      -0.251   8.983  22.125  0.00  0.00    +0.000 A 
ATOM     17  C   UNL     1      -0.618   9.769  23.181  0.00  0.00    +0.000 A 
ATOM     18  O   UNL     1      -0.215  11.044  22.959  0.00  0.00    +0.000 OA
ATOM     19  N   UNL     1       0.446  11.111  21.742  0.00  0.00    +0.000 NA
ENDBRANCH  14  15
ENDBRANCH  12  14
ENDBRANCH   9  11
ENDBRANCH   1   9
BRANCH   7  20
ATOM     20  C   UNL     1       4.568   3.657  18.428  0.00  0.00    +0.000 C 
BRANCH  20  21
ATOM     21  C   UNL     1       5.726   4.563  18.002  0.00  0.00    +0.000 A 
ATOM     22  C   UNL     1       6.476   5.172  19.025  0.00  0.00    +0.000 A 
ATOM     23  C   UNL     1       7.234   6.309  18.751  0.00  0.00    +0.000 A 
ATOM     24  C   UNL     1       7.443   6.693  17.436  0.00  0.00    +0.000 A 
ATOM     25  F   UNL     1       8.155   7.796  17.177  0.00  0.00    +0.000 F 
ATOM     26  C   UNL     1       6.898   5.966  16.389  0.00  0.00    +0.000 A 
ATOM     27  C   UNL     1       5.998   4.933  16.670  0.00  0.00    +0.000 A 
ATOM     28 CL   UNL     1       5.197   4.207  15.325  0.00  0.00    +0.000 Cl
ENDBRANCH  20  21
ENDBRANCH   7  20
TORSDOF 6
ENDMDL
MODEL 3
REMARK VINA RESULT:      -7.8      3.126      4.884
REMARK  Name = 
REMARK  6 active torsions:
REMARK  status: ('A' for Active; 'I' for Inactive)
REMARK    1  A    between atoms: C_2  and  C_3
REMARK    2  A    between atoms: C_3  and  C_4
REMARK    3  A    between atoms: N_10  and  C_11
REMARK    4  A    between atoms: C_11  and  C_12
REMARK    5  A    between atoms: N_20  and  C_21
REMARK    6  A    between atoms: C_21  and  C_22
REMARK                            x       y       z     vdW  Elec       q    Type
REMARK                         _______ _______ _______ _____ _____    ______ ____
ROOT
ATOM      1  C   UNL     1       4.602   6.533  18.016  0.00  0.00    +0.000 C 
ATOM      2  C   UNL     1       5.339   6.616  16.660  0.00  0.00    +0.000 C 
ATOM      3  O   UNL     1       4.855   7.192  15.682  0.00  0.00    +0.000 OA
ATOM      4  N   UNL     1       6.618   6.138  16.574  0.00  0.00    +0.000 N 
ATOM      5  C   UNL     1       7.196   5.274  17.576  0.00  0.00    +0.000 C 
ATOM      6  C   UNL     1       6.608   5.549  18.961  0.00  0.00    +0.000 C 
ATOM      7  N   UNL     1       5.122   5.478  18.955  0.00  0.00    +0.000 NA
ATOM      8  H   UNL     1       7.021   6.173  15.648  0.00  0.00    +0.000 HD
ENDROOT
BRANCH   1   9
ATOM      9  C   UNL     1       3.084   6.725  17.798  0.00  0.00    +0.000 C 
BRANCH   9  11
ATOM     10  O   UNL     1       2.640   9.004  17.121  0.00  0.00    +0.000 OA
ATOM     11  C   UNL     1       2.507   8.129  17.959  0.00  0.00    +0.000 C 
ATOM     12  N   UNL     1       1.765   8.316  19.118  0.00  0.00    +0.000 N 
ATOM     13  H   UNL     1       1.846   7.613  19.847  0.00  0.00    +0.000 HD
BRANCH  12  14
ATOM     14  C   UNL     1       1.142   9.577  19.482  0.00  0.00    +0.000 C 
BRANCH  14  15
ATOM     15  C   UNL     1       0.712   9.501  20.920  0.00  0.00    +0.000 A 
ATOM     16  C   UNL     1      -0.262   8.655  21.503  0.00  0.00    +0.000 A 
ATOM     17  C   UNL     1      -0.231   8.964  22.834  0.00  0.00    +0.000 A 
ATOM     18  O   UNL     1       0.679   9.946  23.051  0.00  0.00    +0.000 OA
ATOM     19  N   UNL     1       1.277  10.289  21.848  0.00  0.00    +0.000 NA
ENDBRANCH  14  15
ENDBRANCH  12  14
ENDBRANCH   9  11
ENDBRANCH   1   9
BRANCH   7  20
ATOM     20  C   UNL     1       4.637   4.096  18.696  0.00  0.00    +0.000 C 
BRANCH  20  21
ATOM     21  C   UNL     1       3.367   3.770  19.485  0.00  0.00    +0.000 A 
ATOM     22  C   UNL     1       3.192   4.419  20.721  0.00  0.00    +0.000 A 
ATOM     23  C   UNL     1       2.330   3.884  21.674  0.00  0.00    +0.000 A 
ATOM     24  C   UNL     1       1.467   2.859  21.320  0.00  0.00    +0.000 A 
ATOM     25  F   UNL     1       0.654   2.332  22.243  0.00  0.00    +0.000 F 
ATOM     26  C   UNL     1       1.459   2.352  20.029  0.00  0.00    +0.000 A 
ATOM     27  C   UNL     1       2.442   2.769  19.126  0.00  0.00    +0.000 A 
ATOM     28 CL   UNL     1       2.507   1.950  17.609  0.00  0.00    +0.000 Cl
ENDBRANCH  20  21
ENDBRANCH   7  20
TORSDOF 6
ENDMDL
MODEL 4
REMARK VINA RESULT:      -7.6      2.238      2.659
REMARK  Name = 
REMARK  6 active torsions:
REMARK  status: ('A' for Active; 'I' for Inactive)
REMARK    1  A    between atoms: C_2  and  C_3
REMARK    2  A    between atoms: C_3  and  C_4
REMARK    3  A    between atoms: N_10  and  C_11
REMARK    4  A    between atoms: C_11  and  C_12
REMARK    5  A    between atoms: N_20  and  C_21
REMARK    6  A    between atoms: C_21  and  C_22
REMARK                            x       y       z     vdW  Elec       q    Type
REMARK                         _______ _______ _______ _____ _____    ______ ____
ROOT
ATOM      1  C   UNL     1       2.453   4.771  18.768  0.00  0.00    +0.000 C 
ATOM      2  C   UNL     1       1.657   4.023  19.862  0.00  0.00    +0.000 C 
ATOM      3  O   UNL     1       1.138   4.611  20.815  0.00  0.00    +0.000 OA
ATOM      4  N   UNL     1       1.421   2.685  19.707  0.00  0.00    +0.000 N 
ATOM      5  C   UNL     1       2.142   1.871  18.758  0.00  0.00    +0.000 C 
ATOM      6  C   UNL     1       2.577   2.684  17.537  0.00  0.00    +0.000 C 
ATOM      7  N   UNL     1       3.345   3.898  17.926  0.00  0.00    +0.000 NA
ATOM      8  H   UNL     1       0.942   2.248  20.483  0.00  0.00    +0.000 HD
ENDROOT
BRANCH   1   9
ATOM      9  C   UNL     1       2.959   6.122  19.321  0.00  0.00    +0.000 C 
BRANCH   9  11
ATOM     10  O   UNL     1       3.659   7.501  17.461  0.00  0.00    +0.000 OA
ATOM     11  C   UNL     1       2.902   7.341  18.403  0.00  0.00    +0.000 C 
ATOM     12  N   UNL     1       1.877   8.232  18.693  0.00  0.00    +0.000 N 
ATOM     13  H   UNL     1       1.405   8.132  19.587  0.00  0.00    +0.000 HD
BRANCH  12  14
ATOM     14  C   UNL     1       1.651   9.465  17.960  0.00  0.00    +0.000 C 
BRANCH  14  15
ATOM     15  C   UNL     1       0.413  10.124  18.504  0.00  0.00    +0.000 A 
ATOM     16  C   UNL     1       0.264  10.859  19.705  0.00  0.00    +0.000 A 
ATOM     17  C   UNL     1      -1.041  11.266  19.697  0.00  0.00    +0.000 A 
ATOM     18  O   UNL     1      -1.656  10.795  18.584  0.00  0.00    +0.000 OA
ATOM     19  N   UNL     1      -0.745  10.074  17.827  0.00  0.00    +0.000 NA
ENDBRANCH  14  15
ENDBRANCH  12  14
ENDBRANCH   9  11
ENDBRANCH   1   9
BRANCH   7  20
ATOM     20  C   UNL     1       4.656   3.549  18.533  0.00  0.00    +0.000 C 
BRANCH  20  21
ATOM     21  C   UNL     1       5.776   4.485  18.071  0.00  0.00    +0.000 A 
ATOM     22  C   UNL     1       6.526   5.133  19.069  0.00  0.00    +0.000 A 
ATOM     23  C   UNL     1       7.241   6.289  18.763  0.00  0.00    +0.000 A 
ATOM     24  C   UNL     1       7.412   6.660  17.439  0.00  0.00    +0.000 A 
ATOM     25  F   UNL     1       8.082   7.781  17.149  0.00  0.00    +0.000 F 
ATOM     26  C   UNL     1       6.869   5.900  16.413  0.00  0.00    +0.000 A 
ATOM     27  C   UNL     1       6.009   4.844  16.728  0.00  0.00    +0.000 A 
ATOM     28 CL   UNL     1       5.205   4.073  15.410  0.00  0.00    +0.000 Cl
ENDBRANCH  20  21
ENDBRANCH   7  20
TORSDOF 6
ENDMDL
MODEL 5
REMARK VINA RESULT:      -7.6      1.778      1.965
REMARK  Name = 
REMARK  6 active torsions:
REMARK  status: ('A' for Active; 'I' for Inactive)
REMARK    1  A    between atoms: C_2  and  C_3
REMARK    2  A    between atoms: C_3  and  C_4
REMARK    3  A    between atoms: N_10  and  C_11
REMARK    4  A    between atoms: C_11  and  C_12
REMARK    5  A    between atoms: N_20  and  C_21
REMARK    6  A    between atoms: C_21  and  C_22
REMARK                            x       y       z     vdW  Elec       q    Type
REMARK                         _______ _______ _______ _____ _____    ______ ____
ROOT
ATOM      1  C   UNL     1       2.539   4.712  19.049  0.00  0.00    +0.000 C 
ATOM      2  C   UNL     1       2.226   3.931  20.345  0.00  0.00    +0.000 C 
ATOM      3  O   UNL     1       2.116   4.490  21.439  0.00  0.00    +0.000 OA
ATOM      4  N   UNL     1       1.947   2.595  20.257  0.00  0.00    +0.000 N 
ATOM      5  C   UNL     1       2.244   1.811  19.083  0.00  0.00    +0.000 C 
ATOM      6  C   UNL     1       2.174   2.658  17.810  0.00  0.00    +0.000 C 
ATOM      7  N   UNL     1       3.035   3.869  17.905  0.00  0.00    +0.000 NA
ATOM      8  H   UNL     1       1.805   2.134  21.146  0.00  0.00    +0.000 HD
ENDROOT
BRANCH   1   9
ATOM      9  C   UNL     1       3.221   6.054  19.399  0.00  0.00    +0.000 C 
BRANCH   9  11
ATOM     10  O   UNL     1       3.731   7.312  17.397  0.00  0.00    +0.000 OA
ATOM     11  C   UNL     1       3.071   7.214  18.418  0.00  0.00    +0.000 C 
ATOM     12  N   UNL     1       2.079   8.126  18.753  0.00  0.00    +0.000 N 
ATOM     13  H   UNL     1       1.699   8.084  19.694  0.00  0.00    +0.000 HD
BRANCH  12  14
ATOM     14  C   UNL     1       1.779   9.314  17.972  0.00  0.00    +0.000 C 
BRANCH  14  15
ATOM     15  C   UNL     1       0.522   9.937  18.513  0.00  0.00    +0.000 A 
ATOM     16  C   UNL     1       0.325  10.578  19.760  0.00  0.00    +0.000 A 
ATOM     17  C   UNL     1      -0.976  10.993  19.729  0.00  0.00    +0.000 A 
ATOM     18  O   UNL     1      -1.546  10.615  18.558  0.00  0.00    +0.000 OA
ATOM     19  N   UNL     1      -0.606   9.948  17.786  0.00  0.00    +0.000 NA
ENDBRANCH  14  15
ENDBRANCH  12  14
ENDBRANCH   9  11
ENDBRANCH   1   9
BRANCH   7  20
ATOM     20  C   UNL     1       4.479   3.517  17.949  0.00  0.00    +0.000 C 
BRANCH  20  21
ATOM     21  C   UNL     1       5.285   4.243  16.869  0.00  0.00    +0.000 A 
ATOM     22  C   UNL     1       4.896   4.044  15.532  0.00  0.00    +0.000 A 
ATOM     23  C   UNL     1       5.797   4.296  14.499  0.00  0.00    +0.000 A 
ATOM     24  C   UNL     1       6.979   4.967  14.769  0.00  0.00    +0.000 A 
ATOM     25  F   UNL     1       7.851   5.189  13.778  0.00  0.00    +0.000 F 
ATOM     26  C   UNL     1       7.282   5.382  16.056  0.00  0.00    +0.000 A 
ATOM     27  C   UNL     1       6.463   4.976  17.115  0.00  0.00    +0.000 A 
ATOM     28 CL   UNL     1       7.007   5.348  18.709  0.00  0.00    +0.000 Cl
ENDBRANCH  20  21
ENDBRANCH   7  20
TORSDOF 6
ENDMDL
MODEL 6
REMARK VINA RESULT:      -7.4      3.393      5.258
REMARK  Name = 
REMARK  6 active torsions:
REMARK  status: ('A' for Active; 'I' for Inactive)
REMARK    1  A    between atoms: C_2  and  C_3
REMARK    2  A    between atoms: C_3  and  C_4
REMARK    3  A    between atoms: N_10  and  C_11
REMARK    4  A    between atoms: C_11  and  C_12
REMARK    5  A    between atoms: N_20  and  C_21
REMARK    6  A    between atoms: C_21  and  C_22
REMARK                            x       y       z     vdW  Elec       q    Type
REMARK                         _______ _______ _______ _____ _____    ______ ____
ROOT
ATOM      1  C   UNL     1       4.354   6.532  17.294  0.00  0.00    +0.000 C 
ATOM      2  C   UNL     1       5.184   6.521  15.990  0.00  0.00    +0.000 C 
ATOM      3  O   UNL     1       5.070   7.398  15.130  0.00  0.00    +0.000 OA
ATOM      4  N   UNL     1       6.158   5.573  15.837  0.00  0.00    +0.000 N 
ATOM      5  C   UNL     1       6.237   4.395  16.668  0.00  0.00    +0.000 C 
ATOM      6  C   UNL     1       5.687   4.660  18.071  0.00  0.00    +0.000 C 
ATOM      7  N   UNL     1       4.308   5.218  18.026  0.00  0.00    +0.000 NA
ATOM      8  H   UNL     1       6.625   5.588  14.940  0.00  0.00    +0.000 HD
ENDROOT
BRANCH   1   9
ATOM      9  C   UNL     1       3.074   7.374  17.091  0.00  0.00    +0.000 C 
BRANCH   9  11
ATOM     10  O   UNL     1       2.542   7.540  19.445  0.00  0.00    +0.000 OA
ATOM     11  C   UNL     1       2.423   8.000  18.322  0.00  0.00    +0.000 C 
ATOM     12  N   UNL     1       1.727   9.176  18.069  0.00  0.00    +0.000 N 
ATOM     13  H   UNL     1       1.519   9.400  17.100  0.00  0.00    +0.000 HD
BRANCH  12  14
ATOM     14  C   UNL     1       1.017   9.926  19.089  0.00  0.00    +0.000 C 
BRANCH  14  15
ATOM     15  C   UNL     1      -0.201  10.549  18.465  0.00  0.00    +0.000 A 
ATOM     16  C   UNL     1      -1.164   9.942  17.622  0.00  0.00    +0.000 A 
ATOM     17  C   UNL     1      -2.072  10.933  17.372  0.00  0.00    +0.000 A 
ATOM     18  O   UNL     1      -1.683  12.072  17.996  0.00  0.00    +0.000 OA
ATOM     19  N   UNL     1      -0.504  11.837  18.687  0.00  0.00    +0.000 NA
ENDBRANCH  14  15
ENDBRANCH  12  14
ENDBRANCH   9  11
ENDBRANCH   1   9
BRANCH   7  20
ATOM     20  C   UNL     1       3.329   4.229  17.504  0.00  0.00    +0.000 C 
BRANCH  20  21
ATOM     21  C   UNL     1       2.481   3.609  18.618  0.00  0.00    +0.000 A 
ATOM     22  C   UNL     1       1.531   4.439  19.242  0.00  0.00    +0.000 A 
ATOM     23  C   UNL     1       1.042   4.112  20.504  0.00  0.00    +0.000 A 
ATOM     24  C   UNL     1       1.301   2.859  21.037  0.00  0.00    +0.000 A 
ATOM     25  F   UNL     1       0.847   2.555  22.258  0.00  0.00    +0.000 F 
ATOM     26  C   UNL     1       2.051   1.929  20.333  0.00  0.00    +0.000 A 
ATOM     27  C   UNL     1       2.685   2.320  19.149  0.00  0.00    +0.000 A 
ATOM     28 CL   UNL     1       3.769   1.184  18.432  0.00  0.00    +0.000 Cl
ENDBRANCH  20  21
ENDBRANCH   7  20
TORSDOF 6
ENDMDL
MODEL 7
REMARK VINA RESULT:      -7.4      3.434      5.371
REMARK  Name = 
REMARK  6 active torsions:
REMARK  status: ('A' for Active; 'I' for Inactive)
REMARK    1  A    between atoms: C_2  and  C_3
REMARK    2  A    between atoms: C_3  and  C_4
REMARK    3  A    between atoms: N_10  and  C_11
REMARK    4  A    between atoms: C_11  and  C_12
REMARK    5  A    between atoms: N_20  and  C_21
REMARK    6  A    between atoms: C_21  and  C_22
REMARK                            x       y       z     vdW  Elec       q    Type
REMARK                         _______ _______ _______ _____ _____    ______ ____
ROOT
ATOM      1  C   UNL     1       4.671   6.559  17.542  0.00  0.00    +0.000 C 
ATOM      2  C   UNL     1       5.369   6.485  16.165  0.00  0.00    +0.000 C 
ATOM      3  O   UNL     1       4.979   7.141  15.195  0.00  0.00    +0.000 OA
ATOM      4  N   UNL     1       6.523   5.761  16.049  0.00  0.00    +0.000 N 
ATOM      5  C   UNL     1       6.947   4.805  17.043  0.00  0.00    +0.000 C 
ATOM      6  C   UNL     1       6.468   5.199  18.442  0.00  0.00    +0.000 C 
ATOM      7  N   UNL     1       4.998   5.426  18.478  0.00  0.00    +0.000 NA
ATOM      8  H   UNL     1       6.898   5.710  15.111  0.00  0.00    +0.000 HD
ENDROOT
BRANCH   1   9
ATOM      9  C   UNL     1       3.216   7.048  17.365  0.00  0.00    +0.000 C 
BRANCH   9  11
ATOM     10  O   UNL     1       2.559   7.208  19.688  0.00  0.00    +0.000 OA
ATOM     11  C   UNL     1       2.521   7.685  18.566  0.00  0.00    +0.000 C 
ATOM     12  N   UNL     1       1.885   8.889  18.291  0.00  0.00    +0.000 N 
ATOM     13  H   UNL     1       1.739   9.131  17.315  0.00  0.00    +0.000 HD
BRANCH  12  14
ATOM     14  C   UNL     1       1.147   9.654  19.280  0.00  0.00    +0.000 C 
BRANCH  14  15
ATOM     15  C   UNL     1      -0.030  10.302  18.603  0.00  0.00    +0.000 A 
ATOM     16  C   UNL     1      -0.562  11.597  18.815  0.00  0.00    +0.000 A 
ATOM     17  C   UNL     1      -1.593  11.692  17.922  0.00  0.00    +0.000 A 
ATOM     18  O   UNL     1      -1.702  10.532  17.229  0.00  0.00    +0.000 OA
ATOM     19  N   UNL     1      -0.719   9.651  17.654  0.00  0.00    +0.000 NA
ENDBRANCH  14  15
ENDBRANCH  12  14
ENDBRANCH   9  11
ENDBRANCH   1   9
BRANCH   7  20
ATOM     20  C   UNL     1       4.240   4.168  18.249  0.00  0.00    +0.000 C 
BRANCH  20  21
ATOM     21  C   UNL     1       3.162   3.938  19.311  0.00  0.00    +0.000 A 
ATOM     22  C   UNL     1       3.597   3.682  20.625  0.00  0.00    +0.000 A 
ATOM     23  C   UNL     1       2.746   3.052  21.530  0.00  0.00    +0.000 A 
ATOM     24  C   UNL     1       1.404   2.900  21.218  0.00  0.00    +0.000 A 
ATOM     25  F   UNL     1       0.594   2.277  22.082  0.00  0.00    +0.000 F 
ATOM     26  C   UNL     1       0.900   3.357  20.011  0.00  0.00    +0.000 A 
ATOM     27  C   UNL     1       1.785   3.829  19.036  0.00  0.00    +0.000 A 
ATOM     28 CL   UNL     1       1.119   4.185  17.484  0.00  0.00    +0.000 Cl
ENDBRANCH  20  21
ENDBRANCH   7  20
TORSDOF 6
ENDMDL
MODEL 8
REMARK VINA RESULT:      -7.3      3.498      5.378
REMARK  Name = 
REMARK  6 active torsions:
REMARK  status: ('A' for Active; 'I' for Inactive)
REMARK    1  A    between atoms: C_2  and  C_3
REMARK    2  A    between atoms: C_3  and  C_4
REMARK    3  A    between atoms: N_10  and  C_11
REMARK    4  A    between atoms: C_11  and  C_12
REMARK    5  A    between atoms: N_20  and  C_21
REMARK    6  A    between atoms: C_21  and  C_22
REMARK                            x       y       z     vdW  Elec       q    Type
REMARK                         _______ _______ _______ _____ _____    ______ ____
ROOT
ATOM      1  C   UNL     1       4.795   6.593  17.791  0.00  0.00    +0.000 C 
ATOM      2  C   UNL     1       5.681   6.592  16.524  0.00  0.00    +0.000 C 
ATOM      3  O   UNL     1       5.351   7.179  15.491  0.00  0.00    +0.000 OA
ATOM      4  N   UNL     1       6.922   6.021  16.589  0.00  0.00    +0.000 N 
ATOM      5  C   UNL     1       7.320   5.140  17.661  0.00  0.00    +0.000 C 
ATOM      6  C   UNL     1       6.606   5.489  18.969  0.00  0.00    +0.000 C 
ATOM      7  N   UNL     1       5.128   5.525  18.797  0.00  0.00    +0.000 NA
ATOM      8  H   UNL     1       7.426   6.006  15.713  0.00  0.00    +0.000 HD
ENDROOT
BRANCH   1   9
ATOM      9  C   UNL     1       3.328   6.888  17.403  0.00  0.00    +0.000 C 
BRANCH   9  11
ATOM     10  O   UNL     1       2.337   7.270  19.576  0.00  0.00    +0.000 OA
ATOM     11  C   UNL     1       2.451   7.622  18.414  0.00  0.00    +0.000 C 
ATOM     12  N   UNL     1       1.834   8.764  17.920  0.00  0.00    +0.000 N 
ATOM     13  H   UNL     1       1.826   8.895  16.912  0.00  0.00    +0.000 HD
BRANCH  12  14
ATOM     14  C   UNL     1       0.941   9.601  18.702  0.00  0.00    +0.000 C 
BRANCH  14  15
ATOM     15  C   UNL     1       1.493  10.999  18.722  0.00  0.00    +0.000 A 
ATOM     16  C   UNL     1       2.447  11.581  17.852  0.00  0.00    +0.000 A 
ATOM     17  C   UNL     1       2.561  12.872  18.284  0.00  0.00    +0.000 A 
ATOM     18  O   UNL     1       1.754  13.065  19.357  0.00  0.00    +0.000 OA
ATOM     19  N   UNL     1       1.078  11.888  19.638  0.00  0.00    +0.000 NA
ENDBRANCH  14  15
ENDBRANCH  12  14
ENDBRANCH   9  11
ENDBRANCH   1   9
BRANCH   7  20
ATOM     20  C   UNL     1       4.574   4.176  18.506  0.00  0.00    +0.000 C 
BRANCH  20  21
ATOM     21  C   UNL     1       3.330   3.867  19.344  0.00  0.00    +0.000 A 
ATOM     22  C   UNL     1       3.217   4.510  20.590  0.00  0.00    +0.000 A 
ATOM     23  C   UNL     1       2.383   3.984  21.573  0.00  0.00    +0.000 A 
ATOM     24  C   UNL     1       1.488   2.977  21.247  0.00  0.00    +0.000 A 
ATOM     25  F   UNL     1       0.703   2.459  22.198  0.00  0.00    +0.000 F 
ATOM     26  C   UNL     1       1.420   2.480  19.954  0.00  0.00    +0.000 A 
ATOM     27  C   UNL     1       2.374   2.886  19.016  0.00  0.00    +0.000 A 
ATOM     28 CL   UNL     1       2.362   2.077  17.491  0.00  0.00    +0.000 Cl
ENDBRANCH  20  21
ENDBRANCH   7  20
TORSDOF 6
ENDMDL
MODEL 9
REMARK VINA RESULT:      -7.3      1.487      1.702
REMARK  Name = 
REMARK  6 active torsions:
REMARK  status: ('A' for Active; 'I' for Inactive)
REMARK    1  A    between atoms: C_2  and  C_3
REMARK    2  A    between atoms: C_3  and  C_4
REMARK    3  A    between atoms: N_10  and  C_11
REMARK    4  A    between atoms: C_11  and  C_12
REMARK    5  A    between atoms: N_20  and  C_21
REMARK    6  A    between atoms: C_21  and  C_22
REMARK                            x       y       z     vdW  Elec       q    Type
REMARK                         _______ _______ _______ _____ _____    ______ ____
ROOT
ATOM      1  C   UNL     1       2.172   5.706  18.824  0.00  0.00    +0.000 C 
ATOM      2  C   UNL     1       1.702   5.321  20.245  0.00  0.00    +0.000 C 
ATOM      3  O   UNL     1       1.534   6.161  21.132  0.00  0.00    +0.000 OA
ATOM      4  N   UNL     1       1.347   4.023  20.492  0.00  0.00    +0.000 N 
ATOM      5  C   UNL     1       1.694   2.938  19.607  0.00  0.00    +0.000 C 
ATOM      6  C   UNL     1       1.786   3.407  18.153  0.00  0.00    +0.000 C 
ATOM      7  N   UNL     1       2.710   4.564  18.004  0.00  0.00    +0.000 NA
ATOM      8  H   UNL     1       1.101   3.829  21.454  0.00  0.00    +0.000 HD
ENDROOT
BRANCH   1   9
ATOM      9  C   UNL     1       2.905   7.066  18.867  0.00  0.00    +0.000 C 
BRANCH   9  11
ATOM     10  O   UNL     1       2.281   8.719  17.214  0.00  0.00    +0.000 OA
ATOM     11  C   UNL     1       2.164   8.298  18.353  0.00  0.00    +0.000 C 
ATOM     12  N   UNL     1       1.297   8.874  19.273  0.00  0.00    +0.000 N 
ATOM     13  H   UNL     1       1.383   8.587  20.244  0.00  0.00    +0.000 HD
BRANCH  12  14
ATOM     14  C   UNL     1       0.508  10.062  19.002  0.00  0.00    +0.000 C 
BRANCH  14  15
ATOM     15  C   UNL     1       1.131  11.224  19.724  0.00  0.00    +0.000 A 
ATOM     16  C   UNL     1       1.763  12.366  19.172  0.00  0.00    +0.000 A 
ATOM     17  C   UNL     1       2.113  13.120  20.257  0.00  0.00    +0.000 A 
ATOM     18  O   UNL     1       1.744  12.480  21.393  0.00  0.00    +0.000 OA
ATOM     19  N   UNL     1       1.125  11.283  21.065  0.00  0.00    +0.000 NA
ENDBRANCH  14  15
ENDBRANCH  12  14
ENDBRANCH   9  11
ENDBRANCH   1   9
BRANCH   7  20
ATOM     20  C   UNL     1       4.120   4.184  18.283  0.00  0.00    +0.000 C 
BRANCH  20  21
ATOM     21  C   UNL     1       5.078   4.668  17.192  0.00  0.00    +0.000 A 
ATOM     22  C   UNL     1       4.668   4.506  15.856  0.00  0.00    +0.000 A 
ATOM     23  C   UNL     1       5.611   4.509  14.832  0.00  0.00    +0.000 A 
ATOM     24  C   UNL     1       6.911   4.912  15.098  0.00  0.00    +0.000 A 
ATOM     25  F   UNL     1       7.820   4.895  14.116  0.00  0.00    +0.000 F 
ATOM     26  C   UNL     1       7.286   5.302  16.374  0.00  0.00    +0.000 A 
ATOM     27  C   UNL     1       6.387   5.131  17.432  0.00  0.00    +0.000 A 
ATOM     28 CL   UNL     1       6.985   5.438  19.021  0.00  0.00    +0.000 Cl
ENDBRANCH  20  21
ENDBRANCH   7  20
TORSDOF 6
ENDMDL
