MODEL 1
REMARK VINA RESULT:      -6.5      0.000      0.000
REMARK  Name = 
REMARK  5 active torsions:
REMARK  status: ('A' for Active; 'I' for Inactive)
REMARK    1  A    between atoms: C_2  and  O_3
REMARK    2  A    between atoms: C_2  and  C_4
REMARK    3  A    between atoms: C_4  and  C_5
REMARK    4  A    between atoms: C_5  and  N_6
REMARK    5  A    between atoms: C_7  and  C_8
REMARK                            x       y       z     vdW  Elec       q    Type
REMARK                         _______ _______ _______ _____ _____    ______ ____
ROOT
ATOM      1  C   UNL     1       5.905   5.401  17.931  0.00  0.00    +0.000 C 
ATOM      2  C   UNL     1       5.189   6.102  16.812  0.00  0.00    +0.000 C 
ATOM      3  O   UNL     1       4.248   6.867  17.011  0.00  0.00    +0.000 OA
ATOM      4  N   UNL     1       5.633   5.866  15.542  0.00  0.00    +0.000 N 
ATOM      5  C   UNL     1       6.804   5.264  15.206  0.00  0.00    +0.000 C 
ATOM      6  O   UNL     1       7.191   5.207  14.045  0.00  0.00    +0.000 OA
ATOM      7  N   UNL     1       7.551   4.771  16.230  0.00  0.00    +0.000 N 
ATOM      8  C   UNL     1       7.239   4.827  17.557  0.00  0.00    +0.000 C 
ATOM      9  O   UNL     1       8.022   4.394  18.402  0.00  0.00    +0.000 OA
ATOM     10  H   UNL     1       5.125   6.314  14.792  0.00  0.00    +0.000 HD
ATOM     11  H   UNL     1       8.441   4.361  15.982  0.00  0.00    +0.000 HD
ENDROOT
BRANCH   1  13
ATOM     12  N   UNL     1       4.388   3.497  17.884  0.00  0.00    +0.000 NA
ATOM     13  C   UNL     1       5.060   4.345  18.587  0.00  0.00    +0.000 C 
BRANCH  12  14
ATOM     14  C   UNL     1       3.648   2.513  18.688  0.00  0.00    +0.000 C 
BRANCH  14  15
ATOM     15  C   UNL     1       2.442   3.220  19.293  0.00  0.00    +0.000 C 
BRANCH  15  17
ATOM     16  O   UNL     1       0.323   2.308  18.541  0.00  0.00    +0.000 OA
ATOM     17  C   UNL     1       1.235   3.108  18.401  0.00  0.00    +0.000 C 
BRANCH  17  18
ATOM     18  O   UNL     1       1.260   4.006  17.388  0.00  0.00    +0.000 OA
ATOM     19  H   UNL     1       1.306   4.934  17.690  0.00  0.00    +0.000 HD
ENDBRANCH  17  18
ENDBRANCH  15  17
ENDBRANCH  14  15
ENDBRANCH  12  14
ENDBRANCH   1  13
TORSDOF 5
ENDMDL
MODEL 2
REMARK VINA RESULT:      -6.4      2.218      5.993
REMARK  Name = 
REMARK  5 active torsions:
REMARK  status: ('A' for Active; 'I' for Inactive)
REMARK    1  A    between atoms: C_2  and  O_3
REMARK    2  A    between atoms: C_2  and  C_4
REMARK    3  A    between atoms: C_4  and  C_5
REMARK    4  A    between atoms: C_5  and  N_6
REMARK    5  A    between atoms: C_7  and  C_8
REMARK                            x       y       z     vdW  Elec       q    Type
REMARK                         _______ _______ _______ _____ _____    ______ ____
ROOT
ATOM      1  C   UNL     1       3.221   3.005  18.743  0.00  0.00    +0.000 C 
ATOM      2  C   UNL     1       1.727   3.110  18.847  0.00  0.00    +0.000 C 
ATOM      3  O   UNL     1       1.003   3.187  17.856  0.00  0.00    +0.000 OA
ATOM      4  N   UNL     1       1.186   3.106  20.101  0.00  0.00    +0.000 N 
ATOM      5  C   UNL     1       1.834   2.767  21.247  0.00  0.00    +0.000 C 
ATOM      6  O   UNL     1       1.244   2.663  22.315  0.00  0.00    +0.000 OA
ATOM      7  N   UNL     1       3.163   2.502  21.139  0.00  0.00    +0.000 N 
ATOM      8  C   UNL     1       3.903   2.539  19.994  0.00  0.00    +0.000 C 
ATOM      9  O   UNL     1       5.093   2.223  20.009  0.00  0.00    +0.000 OA
ATOM     10  H   UNL     1       0.183   3.211  20.165  0.00  0.00    +0.000 HD
ATOM     11  H   UNL     1       3.634   2.209  21.984  0.00  0.00    +0.000 HD
ENDROOT
BRANCH   1  13
ATOM     12  N   UNL     1       4.423   4.338  17.098  0.00  0.00    +0.000 NA
ATOM     13  C   UNL     1       3.859   4.277  18.257  0.00  0.00    +0.000 C 
BRANCH  12  14
ATOM     14  C   UNL     1       4.962   5.666  16.769  0.00  0.00    +0.000 C 
BRANCH  14  15
ATOM     15  C   UNL     1       5.347   5.660  15.295  0.00  0.00    +0.000 C 
BRANCH  15  17
ATOM     16  O   UNL     1       7.721   5.238  15.036  0.00  0.00    +0.000 OA
ATOM     17  C   UNL     1       6.573   4.823  15.050  0.00  0.00    +0.000 C 
BRANCH  17  18
ATOM     18  O   UNL     1       6.272   3.522  14.833  0.00  0.00    +0.000 OA
ATOM     19  H   UNL     1       5.370   3.382  14.487  0.00  0.00    +0.000 HD
ENDBRANCH  17  18
ENDBRANCH  15  17
ENDBRANCH  14  15
ENDBRANCH  12  14
ENDBRANCH   1  13
TORSDOF 5
ENDMDL
MODEL 3
REMARK VINA RESULT:      -6.4      2.152      5.925
REMARK  Name = 
REMARK  5 active torsions:
REMARK  status: ('A' for Active; 'I' for Inactive)
REMARK    1  A    between atoms: C_2  and  O_3
REMARK    2  A    between atoms: C_2  and  C_4
REMARK    3  A    between atoms: C_4  and  C_5
REMARK    4  A    between atoms: C_5  and  N_6
REMARK    5  A    between atoms: C_7  and  C_8
REMARK                            x       y       z     vdW  Elec       q    Type
REMARK                         _______ _______ _______ _____ _____    ______ ____
ROOT
ATOM      1  C   UNL     1       3.213   3.223  18.723  0.00  0.00    +0.000 C 
ATOM      2  C   UNL     1       1.715   3.250  18.824  0.00  0.00    +0.000 C 
ATOM      3  O   UNL     1       0.991   3.345  17.835  0.00  0.00    +0.000 OA
ATOM      4  N   UNL     1       1.171   3.152  20.073  0.00  0.00    +0.000 N 
ATOM      5  C   UNL     1       1.831   2.784  21.203  0.00  0.00    +0.000 C 
ATOM      6  O   UNL     1       1.243   2.595  22.261  0.00  0.00    +0.000 OA
ATOM      7  N   UNL     1       3.172   2.590  21.089  0.00  0.00    +0.000 N 
ATOM      8  C   UNL     1       3.913   2.725  19.952  0.00  0.00    +0.000 C 
ATOM      9  O   UNL     1       5.117   2.467  19.956  0.00  0.00    +0.000 OA
ATOM     10  H   UNL     1       0.164   3.205  20.137  0.00  0.00    +0.000 HD
ATOM     11  H   UNL     1       3.654   2.276  21.920  0.00  0.00    +0.000 HD
ENDROOT
BRANCH   1  13
ATOM     12  N   UNL     1       4.673   4.627  17.373  0.00  0.00    +0.000 NA
ATOM     13  C   UNL     1       3.790   4.549  18.310  0.00  0.00    +0.000 C 
BRANCH  12  14
ATOM     14  C   UNL     1       5.100   6.003  17.073  0.00  0.00    +0.000 C 
BRANCH  14  15
ATOM     15  C   UNL     1       6.480   6.205  17.686  0.00  0.00    +0.000 C 
BRANCH  15  17
ATOM     16  O   UNL     1       7.950   4.377  18.303  0.00  0.00    +0.000 OA
ATOM     17  C   UNL     1       7.371   5.018  17.440  0.00  0.00    +0.000 C 
BRANCH  17  18
ATOM     18  O   UNL     1       7.478   4.720  16.124  0.00  0.00    +0.000 OA
ATOM     19  H   UNL     1       6.653   4.371  15.734  0.00  0.00    +0.000 HD
ENDBRANCH  17  18
ENDBRANCH  15  17
ENDBRANCH  14  15
ENDBRANCH  12  14
ENDBRANCH   1  13
TORSDOF 5
ENDMDL
MODEL 4
REMARK VINA RESULT:      -6.4      2.457      5.920
REMARK  Name = 
REMARK  5 active torsions:
REMARK  status: ('A' for Active; 'I' for Inactive)
REMARK    1  A    between atoms: C_2  and  O_3
REMARK    2  A    between atoms: C_2  and  C_4
REMARK    3  A    between atoms: C_4  and  C_5
REMARK    4  A    between atoms: C_5  and  N_6
REMARK    5  A    between atoms: C_7  and  C_8
REMARK                            x       y       z     vdW  Elec       q    Type
REMARK                         _______ _______ _______ _____ _____    ______ ____
ROOT
ATOM      1  C   UNL     1       1.830   5.185  18.843  0.00  0.00    +0.000 C 
ATOM      2  C   UNL     1       1.979   5.731  20.234  0.00  0.00    +0.000 C 
ATOM      3  O   UNL     1       1.753   6.908  20.506  0.00  0.00    +0.000 OA
ATOM      4  N   UNL     1       2.372   4.858  21.209  0.00  0.00    +0.000 N 
ATOM      5  C   UNL     1       2.398   3.504  21.102  0.00  0.00    +0.000 C 
ATOM      6  O   UNL     1       2.638   2.785  22.064  0.00  0.00    +0.000 OA
ATOM      7  N   UNL     1       2.096   2.983  19.882  0.00  0.00    +0.000 N 
ATOM      8  C   UNL     1       1.767   3.689  18.762  0.00  0.00    +0.000 C 
ATOM      9  O   UNL     1       1.458   3.105  17.724  0.00  0.00    +0.000 OA
ATOM     10  H   UNL     1       2.503   5.240  22.135  0.00  0.00    +0.000 HD
ATOM     11  H   UNL     1       2.075   1.975  19.815  0.00  0.00    +0.000 HD
ENDROOT
BRANCH   1  13
ATOM     12  N   UNL     1       4.136   5.579  18.170  0.00  0.00    +0.000 NA
ATOM     13  C   UNL     1       2.880   5.704  17.901  0.00  0.00    +0.000 C 
BRANCH  12  14
ATOM     14  C   UNL     1       5.022   6.109  17.122  0.00  0.00    +0.000 C 
BRANCH  14  15
ATOM     15  C   UNL     1       6.437   6.146  17.687  0.00  0.00    +0.000 C 
BRANCH  15  17
ATOM     16  O   UNL     1       7.931   4.366  16.993  0.00  0.00    +0.000 OA
ATOM     17  C   UNL     1       7.047   4.772  17.731  0.00  0.00    +0.000 C 
BRANCH  17  18
ATOM     18  O   UNL     1       6.500   3.998  18.697  0.00  0.00    +0.000 OA
ATOM     19  H   UNL     1       6.956   3.142  18.817  0.00  0.00    +0.000 HD
ENDBRANCH  17  18
ENDBRANCH  15  17
ENDBRANCH  14  15
ENDBRANCH  12  14
ENDBRANCH   1  13
TORSDOF 5
ENDMDL
MODEL 5
REMARK VINA RESULT:      -6.4      2.236      5.834
REMARK  Name = 
REMARK  5 active torsions:
REMARK  status: ('A' for Active; 'I' for Inactive)
REMARK    1  A    between atoms: C_2  and  O_3
REMARK    2  A    between atoms: C_2  and  C_4
REMARK    3  A    between atoms: C_4  and  C_5
REMARK    4  A    between atoms: C_5  and  N_6
REMARK    5  A    between atoms: C_7  and  C_8
REMARK                            x       y       z     vdW  Elec       q    Type
REMARK                         _______ _______ _______ _____ _____    ______ ____
ROOT
ATOM      1  C   UNL     1       2.493   4.861  18.420  0.00  0.00    +0.000 C 
ATOM      2  C   UNL     1       2.512   5.706  19.661  0.00  0.00    +0.000 C 
ATOM      3  O   UNL     1       2.528   6.935  19.619  0.00  0.00    +0.000 OA
ATOM      4  N   UNL     1       2.501   5.054  20.861  0.00  0.00    +0.000 N 
ATOM      5  C   UNL     1       2.223   3.737  21.049  0.00  0.00    +0.000 C 
ATOM      6  O   UNL     1       2.105   3.256  22.170  0.00  0.00    +0.000 OA
ATOM      7  N   UNL     1       2.034   2.988  19.930  0.00  0.00    +0.000 N 
ATOM      8  C   UNL     1       2.092   3.433  18.642  0.00  0.00    +0.000 C 
ATOM      9  O   UNL     1       1.847   2.672  17.706  0.00  0.00    +0.000 OA
ATOM     10  H   UNL     1       2.549   5.628  21.691  0.00  0.00    +0.000 HD
ATOM     11  H   UNL     1       1.786   2.019  20.073  0.00  0.00    +0.000 HD
ENDROOT
BRANCH   1  13
ATOM     12  N   UNL     1       4.868   4.400  18.149  0.00  0.00    +0.000 NA
ATOM     13  C   UNL     1       3.790   4.915  17.662  0.00  0.00    +0.000 C 
BRANCH  12  14
ATOM     14  C   UNL     1       6.034   4.510  17.259  0.00  0.00    +0.000 C 
BRANCH  14  15
ATOM     15  C   UNL     1       5.522   4.841  15.863  0.00  0.00    +0.000 C 
BRANCH  15  17
ATOM     16  O   UNL     1       7.558   5.318  14.633  0.00  0.00    +0.000 OA
ATOM     17  C   UNL     1       6.582   4.609  14.820  0.00  0.00    +0.000 C 
BRANCH  17  18
ATOM     18  O   UNL     1       6.339   3.503  14.079  0.00  0.00    +0.000 OA
ATOM     19  H   UNL     1       6.084   3.699  13.157  0.00  0.00    +0.000 HD
ENDBRANCH  17  18
ENDBRANCH  15  17
ENDBRANCH  14  15
ENDBRANCH  12  14
ENDBRANCH   1  13
TORSDOF 5
ENDMDL
MODEL 6
REMARK VINA RESULT:      -6.3      1.344      1.500
REMARK  Name = 
REMARK  5 active torsions:
REMARK  status: ('A' for Active; 'I' for Inactive)
REMARK    1  A    between atoms: C_2  and  O_3
REMARK    2  A    between atoms: C_2  and  C_4
REMARK    3  A    between atoms: C_4  and  C_5
REMARK    4  A    between atoms: C_5  and  N_6
REMARK    5  A    between atoms: C_7  and  C_8
REMARK                            x       y       z     vdW  Elec       q    Type
REMARK                         _______ _______ _______ _____ _____    ______ ____
ROOT
ATOM      1  C   UNL     1       6.023   5.640  18.274  0.00  0.00    +0.000 C 
ATOM      2  C   UNL     1       5.176   6.074  17.113  0.00  0.00    +0.000 C 
ATOM      3  O   UNL     1       4.253   6.877  17.236  0.00  0.00    +0.000 OA
ATOM      4  N   UNL     1       5.474   5.545  15.889  0.00  0.00    +0.000 N 
ATOM      5  C   UNL     1       6.607   4.866  15.570  0.00  0.00    +0.000 C 
ATOM      6  O   UNL     1       6.859   4.537  14.417  0.00  0.00    +0.000 OA
ATOM      7  N   UNL     1       7.473   4.612  16.588  0.00  0.00    +0.000 N 
ATOM      8  C   UNL     1       7.313   4.977  17.893  0.00  0.00    +0.000 C 
ATOM      9  O   UNL     1       8.193   4.740  18.720  0.00  0.00    +0.000 OA
ATOM     10  H   UNL     1       4.878   5.815  15.119  0.00  0.00    +0.000 HD
ATOM     11  H   UNL     1       8.334   4.145  16.341  0.00  0.00    +0.000 HD
ENDROOT
BRANCH   1  13
ATOM     12  N   UNL     1       5.095   3.518  19.023  0.00  0.00    +0.000 NA
ATOM     13  C   UNL     1       5.273   4.775  19.249  0.00  0.00    +0.000 C 
BRANCH  12  14
ATOM     14  C   UNL     1       4.373   2.818  20.096  0.00  0.00    +0.000 C 
BRANCH  14  15
ATOM     15  C   UNL     1       2.964   2.527  19.595  0.00  0.00    +0.000 C 
BRANCH  15  17
ATOM     16  O   UNL     1       2.282   2.099  17.307  0.00  0.00    +0.000 OA
ATOM     17  C   UNL     1       2.988   1.824  18.265  0.00  0.00    +0.000 C 
BRANCH  17  18
ATOM     18  O   UNL     1       3.893   0.819  18.231  0.00  0.00    +0.000 OA
ATOM     19  H   UNL     1       4.459   0.776  19.025  0.00  0.00    +0.000 HD
ENDBRANCH  17  18
ENDBRANCH  15  17
ENDBRANCH  14  15
ENDBRANCH  12  14
ENDBRANCH   1  13
TORSDOF 5
ENDMDL
MODEL 7
REMARK VINA RESULT:      -6.3      1.403      1.500
REMARK  Name = 
REMARK  5 active torsions:
REMARK  status: ('A' for Active; 'I' for Inactive)
REMARK    1  A    between atoms: C_2  and  O_3
REMARK    2  A    between atoms: C_2  and  C_4
REMARK    3  A    between atoms: C_4  and  C_5
REMARK    4  A    between atoms: C_5  and  N_6
REMARK    5  A    between atoms: C_7  and  C_8
REMARK                            x       y       z     vdW  Elec       q    Type
REMARK                         _______ _______ _______ _____ _____    ______ ____
ROOT
ATOM      1  C   UNL     1       5.364   5.550  18.810  0.00  0.00    +0.000 C 
ATOM      2  C   UNL     1       4.917   5.717  17.387  0.00  0.00    +0.000 C 
ATOM      3  O   UNL     1       3.839   6.233  17.093  0.00  0.00    +0.000 OA
ATOM      4  N   UNL     1       5.765   5.281  16.410  0.00  0.00    +0.000 N 
ATOM      5  C   UNL     1       7.069   4.942  16.580  0.00  0.00    +0.000 C 
ATOM      6  O   UNL     1       7.799   4.685  15.630  0.00  0.00    +0.000 OA
ATOM      7  N   UNL     1       7.539   4.950  17.856  0.00  0.00    +0.000 N 
ATOM      8  C   UNL     1       6.828   5.268  18.976  0.00  0.00    +0.000 C 
ATOM      9  O   UNL     1       7.376   5.294  20.078  0.00  0.00    +0.000 OA
ATOM     10  H   UNL     1       5.442   5.366  15.456  0.00  0.00    +0.000 HD
ATOM     11  H   UNL     1       8.520   4.738  17.977  0.00  0.00    +0.000 HD
ENDROOT
BRANCH   1  13
ATOM     12  N   UNL     1       4.829   3.262  19.450  0.00  0.00    +0.000 NA
ATOM     13  C   UNL     1       4.559   4.519  19.554  0.00  0.00    +0.000 C 
BRANCH  12  14
ATOM     14  C   UNL     1       3.967   2.400  20.272  0.00  0.00    +0.000 C 
BRANCH  14  15
ATOM     15  C   UNL     1       2.534   2.894  20.118  0.00  0.00    +0.000 C 
BRANCH  15  17
ATOM     16  O   UNL     1       0.643   2.294  18.722  0.00  0.00    +0.000 OA
ATOM     17  C   UNL     1       1.833   2.200  18.982  0.00  0.00    +0.000 C 
BRANCH  17  18
ATOM     18  O   UNL     1       2.673   1.429  18.254  0.00  0.00    +0.000 OA
ATOM     19  H   UNL     1       3.616   1.584  18.453  0.00  0.00    +0.000 HD
ENDBRANCH  17  18
ENDBRANCH  15  17
ENDBRANCH  14  15
ENDBRANCH  12  14
ENDBRANCH   1  13
TORSDOF 5
ENDMDL
MODEL 8
REMARK VINA RESULT:      -6.3      1.676      1.850
REMARK  Name = 
REMARK  5 active torsions:
REMARK  status: ('A' for Active; 'I' for Inactive)
REMARK    1  A    between atoms: C_2  and  O_3
REMARK    2  A    between atoms: C_2  and  C_4
REMARK    3  A    between atoms: C_4  and  C_5
REMARK    4  A    between atoms: C_5  and  N_6
REMARK    5  A    between atoms: C_7  and  C_8
REMARK                            x       y       z     vdW  Elec       q    Type
REMARK                         _______ _______ _______ _____ _____    ______ ____
ROOT
ATOM      1  C   UNL     1       5.341   5.567  18.994  0.00  0.00    +0.000 C 
ATOM      2  C   UNL     1       4.751   5.928  17.662  0.00  0.00    +0.000 C 
ATOM      3  O   UNL     1       3.593   6.324  17.541  0.00  0.00    +0.000 OA
ATOM      4  N   UNL     1       5.560   5.812  16.567  0.00  0.00    +0.000 N 
ATOM      5  C   UNL     1       6.908   5.644  16.588  0.00  0.00    +0.000 C 
ATOM      6  O   UNL     1       7.578   5.679  15.563  0.00  0.00    +0.000 OA
ATOM      7  N   UNL     1       7.483   5.484  17.810  0.00  0.00    +0.000 N 
ATOM      8  C   UNL     1       6.838   5.480  19.011  0.00  0.00    +0.000 C 
ATOM      9  O   UNL     1       7.473   5.382  20.061  0.00  0.00    +0.000 OA
ATOM     10  H   UNL     1       5.145   6.024  15.670  0.00  0.00    +0.000 HD
ATOM     11  H   UNL     1       8.491   5.402  17.826  0.00  0.00    +0.000 HD
ENDROOT
BRANCH   1  13
ATOM     12  N   UNL     1       4.360   3.347  18.802  0.00  0.00    +0.000 NA
ATOM     13  C   UNL     1       4.750   4.309  19.568  0.00  0.00    +0.000 C 
BRANCH  12  14
ATOM     14  C   UNL     1       3.843   2.179  19.531  0.00  0.00    +0.000 C 
BRANCH  14  15
ATOM     15  C   UNL     1       2.321   2.231  19.471  0.00  0.00    +0.000 C 
BRANCH  15  17
ATOM     16  O   UNL     1       2.219   2.513  21.878  0.00  0.00    +0.000 OA
ATOM     17  C   UNL     1       1.735   2.704  20.773  0.00  0.00    +0.000 C 
BRANCH  17  18
ATOM     18  O   UNL     1       0.576   3.382  20.598  0.00  0.00    +0.000 OA
ATOM     19  H   UNL     1      -0.134   3.104  21.207  0.00  0.00    +0.000 HD
ENDBRANCH  17  18
ENDBRANCH  15  17
ENDBRANCH  14  15
ENDBRANCH  12  14
ENDBRANCH   1  13
TORSDOF 5
ENDMDL
MODEL 9
REMARK VINA RESULT:      -6.3      2.743      5.116
REMARK  Name = 
REMARK  5 active torsions:
REMARK  status: ('A' for Active; 'I' for Inactive)
REMARK    1  A    between atoms: C_2  and  O_3
REMARK    2  A    between atoms: C_2  and  C_4
REMARK    3  A    between atoms: C_4  and  C_5
REMARK    4  A    between atoms: C_5  and  N_6
REMARK    5  A    between atoms: C_7  and  C_8
REMARK                            x       y       z     vdW  Elec       q    Type
REMARK                         _______ _______ _______ _____ _____    ______ ____
ROOT
ATOM      1  C   UNL     1       5.938   6.382  17.141  0.00  0.00    +0.000 C 
ATOM      2  C   UNL     1       7.153   7.117  17.629  0.00  0.00    +0.000 C 
ATOM      3  O   UNL     1       7.520   8.182  17.136  0.00  0.00    +0.000 OA
ATOM      4  N   UNL     1       7.845   6.559  18.667  0.00  0.00    +0.000 N 
ATOM      5  C   UNL     1       7.410   5.547  19.461  0.00  0.00    +0.000 C 
ATOM      6  O   UNL     1       8.035   5.190  20.453  0.00  0.00    +0.000 OA
ATOM      7  N   UNL     1       6.220   4.980  19.129  0.00  0.00    +0.000 N 
ATOM      8  C   UNL     1       5.423   5.333  18.080  0.00  0.00    +0.000 C 
ATOM      9  O   UNL     1       4.335   4.783  17.908  0.00  0.00    +0.000 OA
ATOM     10  H   UNL     1       8.681   7.042  18.968  0.00  0.00    +0.000 HD
ATOM     11  H   UNL     1       5.878   4.255  19.745  0.00  0.00    +0.000 HD
ENDROOT
BRANCH   1  13
ATOM     12  N   UNL     1       7.279   5.344  15.394  0.00  0.00    +0.000 NA
ATOM     13  C   UNL     1       6.129   5.792  15.771  0.00  0.00    +0.000 C 
BRANCH  12  14
ATOM     14  C   UNL     1       7.277   4.769  14.040  0.00  0.00    +0.000 C 
BRANCH  14  15
ATOM     15  C   UNL     1       5.983   3.982  13.872  0.00  0.00    +0.000 C 
BRANCH  15  17
ATOM     16  O   UNL     1       6.800   2.968  11.825  0.00  0.00    +0.000 OA
ATOM     17  C   UNL     1       5.871   3.399  12.489  0.00  0.00    +0.000 C 
BRANCH  17  18
ATOM     18  O   UNL     1       4.597   3.405  12.032  0.00  0.00    +0.000 OA
ATOM     19  H   UNL     1       4.511   3.737  11.118  0.00  0.00    +0.000 HD
ENDBRANCH  17  18
ENDBRANCH  15  17
ENDBRANCH  14  15
ENDBRANCH  12  14
ENDBRANCH   1  13
TORSDOF 5
ENDMDL
