MODEL 1
REMARK VINA RESULT:      -7.2      0.000      0.000
REMARK  Name = 
REMARK  3 active torsions:
REMARK  status: ('A' for Active; 'I' for Inactive)
REMARK    1  A    between atoms: C_1  and  N_2
REMARK    2  A    between atoms: C_3  and  C_4
REMARK    3  A    between atoms: C_5  and  C_6
REMARK                            x       y       z     vdW  Elec       q    Type
REMARK                         _______ _______ _______ _____ _____    ______ ____
ROOT
ATOM      1  C   UNL     1       3.833   6.324  18.294  0.00  0.00    +0.000 C 
ATOM      2  N   UNL     1       3.624   4.880  18.283  0.00  0.00    +0.000 N 
ATOM      3  C   UNL     1       3.985   4.062  17.300  0.00  0.00    +0.000 A 
ATOM      4  S   UNL     1       3.461   2.453  17.640  0.00  0.00    +0.000 S 
ATOM      5  C   UNL     1       2.737   2.915  19.127  0.00  0.00    +0.000 A 
ATOM      6  C   UNL     1       2.029   2.125  20.048  0.00  0.00    +0.000 A 
ATOM      7  C   UNL     1       1.516   2.743  21.194  0.00  0.00    +0.000 A 
ATOM      8  C   UNL     1       1.709   4.102  21.418  0.00  0.00    +0.000 A 
ATOM      9  C   UNL     1       2.416   4.883  20.497  0.00  0.00    +0.000 A 
ATOM     10  C   UNL     1       2.931   4.275  19.330  0.00  0.00    +0.000 A 
ENDROOT
BRANCH   3  11
ATOM     11  C   UNL     1       4.611   4.345  16.054  0.00  0.00    +0.000 C 
ATOM     12  C   UNL     1       5.676   3.690  15.565  0.00  0.00    +0.000 C 
BRANCH  12  13
ATOM     13  C   UNL     1       6.348   4.075  14.307  0.00  0.00    +0.000 A 
ATOM     14  C   UNL     1       5.987   3.410  13.125  0.00  0.00    +0.000 A 
ATOM     15  C   UNL     1       6.601   3.725  11.908  0.00  0.00    +0.000 A 
ATOM     16  C   UNL     1       7.576   4.716  11.856  0.00  0.00    +0.000 A 
ATOM     17  C   UNL     1       7.928   5.401  13.020  0.00  0.00    +0.000 A 
ATOM     18  C   UNL     1       7.313   5.088  14.234  0.00  0.00    +0.000 A 
ENDBRANCH  12  13
ENDBRANCH   3  11
TORSDOF 2
ENDMDL
MODEL 2
REMARK VINA RESULT:      -7.2      0.186      1.151
REMARK  Name = 
REMARK  3 active torsions:
REMARK  status: ('A' for Active; 'I' for Inactive)
REMARK    1  A    between atoms: C_1  and  N_2
REMARK    2  A    between atoms: C_3  and  C_4
REMARK    3  A    between atoms: C_5  and  C_6
REMARK                            x       y       z     vdW  Elec       q    Type
REMARK                         _______ _______ _______ _____ _____    ______ ____
ROOT
ATOM      1  C   UNL     1       3.835   6.234  18.015  0.00  0.00    +0.000 C 
ATOM      2  N   UNL     1       3.603   4.800  18.147  0.00  0.00    +0.000 N 
ATOM      3  C   UNL     1       3.915   3.888  17.232  0.00  0.00    +0.000 A 
ATOM      4  S   UNL     1       3.379   2.327  17.740  0.00  0.00    +0.000 S 
ATOM      5  C   UNL     1       2.718   2.939  19.202  0.00  0.00    +0.000 A 
ATOM      6  C   UNL     1       2.031   2.252  20.217  0.00  0.00    +0.000 A 
ATOM      7  C   UNL     1       1.572   2.983  21.317  0.00  0.00    +0.000 A 
ATOM      8  C   UNL     1       1.794   4.354  21.406  0.00  0.00    +0.000 A 
ATOM      9  C   UNL     1       2.478   5.032  20.392  0.00  0.00    +0.000 A 
ATOM     10  C   UNL     1       2.940   4.308  19.270  0.00  0.00    +0.000 A 
ENDROOT
BRANCH   3  11
ATOM     11  C   UNL     1       4.498   4.042  15.944  0.00  0.00    +0.000 C 
ATOM     12  C   UNL     1       5.803   3.880  15.669  0.00  0.00    +0.000 C 
BRANCH  12  13
ATOM     13  C   UNL     1       6.380   4.135  14.333  0.00  0.00    +0.000 A 
ATOM     14  C   UNL     1       7.378   5.114  14.212  0.00  0.00    +0.000 A 
ATOM     15  C   UNL     1       7.949   5.406  12.969  0.00  0.00    +0.000 A 
ATOM     16  C   UNL     1       7.536   4.716  11.833  0.00  0.00    +0.000 A 
ATOM     17  C   UNL     1       6.561   3.725  11.944  0.00  0.00    +0.000 A 
ATOM     18  C   UNL     1       5.992   3.431  13.186  0.00  0.00    +0.000 A 
ENDBRANCH  12  13
ENDBRANCH   3  11
TORSDOF 2
ENDMDL
MODEL 3
REMARK VINA RESULT:      -6.9      4.600      6.155
REMARK  Name = 
REMARK  3 active torsions:
REMARK  status: ('A' for Active; 'I' for Inactive)
REMARK    1  A    between atoms: C_1  and  N_2
REMARK    2  A    between atoms: C_3  and  C_4
REMARK    3  A    between atoms: C_5  and  C_6
REMARK                            x       y       z     vdW  Elec       q    Type
REMARK                         _______ _______ _______ _____ _____    ______ ____
ROOT
ATOM      1  C   UNL     1       1.196  10.713  18.458  0.00  0.00    +0.000 C 
ATOM      2  N   UNL     1       1.124   9.814  19.604  0.00  0.00    +0.000 N 
ATOM      3  C   UNL     1       1.632   8.586  19.647  0.00  0.00    +0.000 A 
ATOM      4  S   UNL     1       1.238   7.829  21.147  0.00  0.00    +0.000 S 
ATOM      5  C   UNL     1       0.366   9.200  21.704  0.00  0.00    +0.000 A 
ATOM      6  C   UNL     1      -0.332   9.372  22.911  0.00  0.00    +0.000 A 
ATOM      7  C   UNL     1      -0.983  10.591  23.131  0.00  0.00    +0.000 A 
ATOM      8  C   UNL     1      -0.936  11.606  22.181  0.00  0.00    +0.000 A 
ATOM      9  C   UNL     1      -0.239  11.428  20.981  0.00  0.00    +0.000 A 
ATOM     10  C   UNL     1       0.416  10.199  20.741  0.00  0.00    +0.000 A 
ENDROOT
BRANCH   3  11
ATOM     11  C   UNL     1       2.319   7.843  18.648  0.00  0.00    +0.000 C 
ATOM     12  C   UNL     1       2.946   6.673  18.857  0.00  0.00    +0.000 C 
BRANCH  12  13
ATOM     13  C   UNL     1       3.722   5.978  17.809  0.00  0.00    +0.000 A 
ATOM     14  C   UNL     1       4.523   6.746  16.950  0.00  0.00    +0.000 A 
ATOM     15  C   UNL     1       5.268   6.141  15.932  0.00  0.00    +0.000 A 
ATOM     16  C   UNL     1       5.227   4.760  15.766  0.00  0.00    +0.000 A 
ATOM     17  C   UNL     1       4.452   3.983  16.629  0.00  0.00    +0.000 A 
ATOM     18  C   UNL     1       3.711   4.587  17.646  0.00  0.00    +0.000 A 
ENDBRANCH  12  13
ENDBRANCH   3  11
TORSDOF 2
ENDMDL
MODEL 4
REMARK VINA RESULT:      -6.8      4.622      6.106
REMARK  Name = 
REMARK  3 active torsions:
REMARK  status: ('A' for Active; 'I' for Inactive)
REMARK    1  A    between atoms: C_1  and  N_2
REMARK    2  A    between atoms: C_3  and  C_4
REMARK    3  A    between atoms: C_5  and  C_6
REMARK                            x       y       z     vdW  Elec       q    Type
REMARK                         _______ _______ _______ _____ _____    ______ ____
ROOT
ATOM      1  C   UNL     1       1.234  10.776  18.479  0.00  0.00    +0.000 C 
ATOM      2  N   UNL     1       1.128   9.857  19.607  0.00  0.00    +0.000 N 
ATOM      3  C   UNL     1       1.605   8.617  19.630  0.00  0.00    +0.000 A 
ATOM      4  S   UNL     1       1.176   7.841  21.111  0.00  0.00    +0.000 S 
ATOM      5  C   UNL     1       0.332   9.221  21.686  0.00  0.00    +0.000 A 
ATOM      6  C   UNL     1      -0.374   9.388  22.889  0.00  0.00    +0.000 A 
ATOM      7  C   UNL     1      -0.996  10.618  23.126  0.00  0.00    +0.000 A 
ATOM      8  C   UNL     1      -0.914  11.650  22.198  0.00  0.00    +0.000 A 
ATOM      9  C   UNL     1      -0.209  11.478  21.001  0.00  0.00    +0.000 A 
ATOM     10  C   UNL     1       0.417  10.237  20.744  0.00  0.00    +0.000 A 
ENDROOT
BRANCH   3  11
ATOM     11  C   UNL     1       2.283   7.875  18.623  0.00  0.00    +0.000 C 
ATOM     12  C   UNL     1       3.018   6.773  18.846  0.00  0.00    +0.000 C 
BRANCH  12  13
ATOM     13  C   UNL     1       3.777   6.085  17.782  0.00  0.00    +0.000 A 
ATOM     14  C   UNL     1       3.641   4.694  17.655  0.00  0.00    +0.000 A 
ATOM     15  C   UNL     1       4.348   3.991  16.674  0.00  0.00    +0.000 A 
ATOM     16  C   UNL     1       5.192   4.671  15.801  0.00  0.00    +0.000 A 
ATOM     17  C   UNL     1       5.318   6.057  15.902  0.00  0.00    +0.000 A 
ATOM     18  C   UNL     1       4.611   6.759  16.880  0.00  0.00    +0.000 A 
ENDBRANCH  12  13
ENDBRANCH   3  11
TORSDOF 2
ENDMDL
MODEL 5
REMARK VINA RESULT:      -6.8      1.090      1.884
REMARK  Name = 
REMARK  3 active torsions:
REMARK  status: ('A' for Active; 'I' for Inactive)
REMARK    1  A    between atoms: C_1  and  N_2
REMARK    2  A    between atoms: C_3  and  C_4
REMARK    3  A    between atoms: C_5  and  C_6
REMARK                            x       y       z     vdW  Elec       q    Type
REMARK                         _______ _______ _______ _____ _____    ______ ____
ROOT
ATOM      1  C   UNL     1       3.651   1.455  17.843  0.00  0.00    +0.000 C 
ATOM      2  N   UNL     1       3.471   2.883  18.081  0.00  0.00    +0.000 N 
ATOM      3  C   UNL     1       3.859   3.851  17.258  0.00  0.00    +0.000 A 
ATOM      4  S   UNL     1       3.549   5.395  17.965  0.00  0.00    +0.000 S 
ATOM      5  C   UNL     1       2.899   4.702  19.394  0.00  0.00    +0.000 A 
ATOM      6  C   UNL     1       2.415   5.344  20.546  0.00  0.00    +0.000 A 
ATOM      7  C   UNL     1       1.943   4.550  21.598  0.00  0.00    +0.000 A 
ATOM      8  C   UNL     1       1.947   3.163  21.501  0.00  0.00    +0.000 A 
ATOM      9  C   UNL     1       2.430   2.530  20.351  0.00  0.00    +0.000 A 
ATOM     10  C   UNL     1       2.918   3.318  19.285  0.00  0.00    +0.000 A 
ENDROOT
BRANCH   3  11
ATOM     11  C   UNL     1       4.538   3.777  16.010  0.00  0.00    +0.000 C 
ATOM     12  C   UNL     1       5.631   4.487  15.687  0.00  0.00    +0.000 C 
BRANCH  12  13
ATOM     13  C   UNL     1       6.252   4.443  14.347  0.00  0.00    +0.000 A 
ATOM     14  C   UNL     1       5.712   3.573  13.388  0.00  0.00    +0.000 A 
ATOM     15  C   UNL     1       6.269   3.481  12.108  0.00  0.00    +0.000 A 
ATOM     16  C   UNL     1       7.367   4.266  11.769  0.00  0.00    +0.000 A 
ATOM     17  C   UNL     1       7.898   5.152  12.706  0.00  0.00    +0.000 A 
ATOM     18  C   UNL     1       7.341   5.246  13.983  0.00  0.00    +0.000 A 
ENDBRANCH  12  13
ENDBRANCH   3  11
TORSDOF 2
ENDMDL
MODEL 6
REMARK VINA RESULT:      -6.7      1.080      2.175
REMARK  Name = 
REMARK  3 active torsions:
REMARK  status: ('A' for Active; 'I' for Inactive)
REMARK    1  A    between atoms: C_1  and  N_2
REMARK    2  A    between atoms: C_3  and  C_4
REMARK    3  A    between atoms: C_5  and  C_6
REMARK                            x       y       z     vdW  Elec       q    Type
REMARK                         _______ _______ _______ _____ _____    ______ ____
ROOT
ATOM      1  C   UNL     1       3.798   1.526  17.852  0.00  0.00    +0.000 C 
ATOM      2  N   UNL     1       3.496   2.934  18.089  0.00  0.00    +0.000 N 
ATOM      3  C   UNL     1       3.755   3.924  17.242  0.00  0.00    +0.000 A 
ATOM      4  S   UNL     1       3.335   5.441  17.951  0.00  0.00    +0.000 S 
ATOM      5  C   UNL     1       2.816   4.706  19.414  0.00  0.00    +0.000 A 
ATOM      6  C   UNL     1       2.327   5.313  20.583  0.00  0.00    +0.000 A 
ATOM      7  C   UNL     1       1.979   4.491  21.660  0.00  0.00    +0.000 A 
ATOM      8  C   UNL     1       2.108   3.109  21.573  0.00  0.00    +0.000 A 
ATOM      9  C   UNL     1       2.595   2.511  20.406  0.00  0.00    +0.000 A 
ATOM     10  C   UNL     1       2.960   3.329  19.313  0.00  0.00    +0.000 A 
ENDROOT
BRANCH   3  11
ATOM     11  C   UNL     1       4.381   3.899  15.964  0.00  0.00    +0.000 C 
ATOM     12  C   UNL     1       5.659   4.238  15.730  0.00  0.00    +0.000 C 
BRANCH  12  13
ATOM     13  C   UNL     1       6.243   4.281  14.373  0.00  0.00    +0.000 A 
ATOM     14  C   UNL     1       7.314   5.155  14.134  0.00  0.00    +0.000 A 
ATOM     15  C   UNL     1       7.896   5.246  12.864  0.00  0.00    +0.000 A 
ATOM     16  C   UNL     1       7.419   4.457  11.822  0.00  0.00    +0.000 A 
ATOM     17  C   UNL     1       6.369   3.567  12.053  0.00  0.00    +0.000 A 
ATOM     18  C   UNL     1       5.791   3.474  13.320  0.00  0.00    +0.000 A 
ENDBRANCH  12  13
ENDBRANCH   3  11
TORSDOF 2
ENDMDL
MODEL 7
REMARK VINA RESULT:      -6.7      1.130      1.266
REMARK  Name = 
REMARK  3 active torsions:
REMARK  status: ('A' for Active; 'I' for Inactive)
REMARK    1  A    between atoms: C_1  and  N_2
REMARK    2  A    between atoms: C_3  and  C_4
REMARK    3  A    between atoms: C_5  and  C_6
REMARK                            x       y       z     vdW  Elec       q    Type
REMARK                         _______ _______ _______ _____ _____    ______ ____
ROOT
ATOM      1  C   UNL     1       1.574   4.647  17.169  0.00  0.00    +0.000 C 
ATOM      2  N   UNL     1       2.639   4.181  18.050  0.00  0.00    +0.000 N 
ATOM      3  C   UNL     1       3.927   4.128  17.731  0.00  0.00    +0.000 A 
ATOM      4  S   UNL     1       4.832   3.421  19.020  0.00  0.00    +0.000 S 
ATOM      5  C   UNL     1       3.432   3.190  19.986  0.00  0.00    +0.000 A 
ATOM      6  C   UNL     1       3.323   2.603  21.258  0.00  0.00    +0.000 A 
ATOM      7  C   UNL     1       2.054   2.516  21.841  0.00  0.00    +0.000 A 
ATOM      8  C   UNL     1       0.931   3.005  21.181  0.00  0.00    +0.000 A 
ATOM      9  C   UNL     1       1.047   3.588  19.914  0.00  0.00    +0.000 A 
ATOM     10  C   UNL     1       2.321   3.674  19.309  0.00  0.00    +0.000 A 
ENDROOT
BRANCH   3  11
ATOM     11  C   UNL     1       4.586   4.463  16.515  0.00  0.00    +0.000 C 
ATOM     12  C   UNL     1       5.351   3.621  15.801  0.00  0.00    +0.000 C 
BRANCH  12  13
ATOM     13  C   UNL     1       6.088   4.037  14.590  0.00  0.00    +0.000 A 
ATOM     14  C   UNL     1       5.736   3.457  13.361  0.00  0.00    +0.000 A 
ATOM     15  C   UNL     1       6.409   3.804  12.185  0.00  0.00    +0.000 A 
ATOM     16  C   UNL     1       7.437   4.742  12.222  0.00  0.00    +0.000 A 
ATOM     17  C   UNL     1       7.781   5.343  13.433  0.00  0.00    +0.000 A 
ATOM     18  C   UNL     1       7.107   4.998  14.607  0.00  0.00    +0.000 A 
ENDBRANCH  12  13
ENDBRANCH   3  11
TORSDOF 2
ENDMDL
MODEL 8
REMARK VINA RESULT:      -6.6      4.318      8.639
REMARK  Name = 
REMARK  3 active torsions:
REMARK  status: ('A' for Active; 'I' for Inactive)
REMARK    1  A    between atoms: C_1  and  N_2
REMARK    2  A    between atoms: C_3  and  C_4
REMARK    3  A    between atoms: C_5  and  C_6
REMARK                            x       y       z     vdW  Elec       q    Type
REMARK                         _______ _______ _______ _____ _____    ______ ____
ROOT
ATOM      1  C   UNL     1       2.197   4.728  20.860  0.00  0.00    +0.000 C 
ATOM      2  N   UNL     1       2.664   5.610  19.797  0.00  0.00    +0.000 N 
ATOM      3  C   UNL     1       2.361   6.899  19.683  0.00  0.00    +0.000 A 
ATOM      4  S   UNL     1       3.033   7.545  18.231  0.00  0.00    +0.000 S 
ATOM      5  C   UNL     1       3.718   6.037  17.779  0.00  0.00    +0.000 A 
ATOM      6  C   UNL     1       4.449   5.708  16.626  0.00  0.00    +0.000 A 
ATOM      7  C   UNL     1       4.894   4.390  16.477  0.00  0.00    +0.000 A 
ATOM      8  C   UNL     1       4.624   3.432  17.449  0.00  0.00    +0.000 A 
ATOM      9  C   UNL     1       3.895   3.766  18.595  0.00  0.00    +0.000 A 
ATOM     10  C   UNL     1       3.431   5.091  18.755  0.00  0.00    +0.000 A 
ENDROOT
BRANCH   3  11
ATOM     11  C   UNL     1       1.531   7.721  20.496  0.00  0.00    +0.000 C 
ATOM     12  C   UNL     1       1.133   8.963  20.176  0.00  0.00    +0.000 C 
BRANCH  12  13
ATOM     13  C   UNL     1       0.344   9.814  21.090  0.00  0.00    +0.000 A 
ATOM     14  C   UNL     1      -0.005   9.301  22.348  0.00  0.00    +0.000 A 
ATOM     15  C   UNL     1      -0.763  10.059  23.247  0.00  0.00    +0.000 A 
ATOM     16  C   UNL     1      -1.174  11.343  22.902  0.00  0.00    +0.000 A 
ATOM     17  C   UNL     1      -0.814  11.874  21.663  0.00  0.00    +0.000 A 
ATOM     18  C   UNL     1      -0.055  11.118  20.766  0.00  0.00    +0.000 A 
ENDBRANCH  12  13
ENDBRANCH   3  11
TORSDOF 2
ENDMDL
MODEL 9
REMARK VINA RESULT:      -6.6      1.133      1.718
REMARK  Name = 
REMARK  3 active torsions:
REMARK  status: ('A' for Active; 'I' for Inactive)
REMARK    1  A    between atoms: C_1  and  N_2
REMARK    2  A    between atoms: C_3  and  C_4
REMARK    3  A    between atoms: C_5  and  C_6
REMARK                            x       y       z     vdW  Elec       q    Type
REMARK                         _______ _______ _______ _____ _____    ______ ____
ROOT
ATOM      1  C   UNL     1       1.421   4.433  17.142  0.00  0.00    +0.000 C 
ATOM      2  N   UNL     1       2.530   3.996  17.982  0.00  0.00    +0.000 N 
ATOM      3  C   UNL     1       3.796   3.903  17.590  0.00  0.00    +0.000 A 
ATOM      4  S   UNL     1       4.767   3.251  18.859  0.00  0.00    +0.000 S 
ATOM      5  C   UNL     1       3.425   3.097  19.919  0.00  0.00    +0.000 A 
ATOM      6  C   UNL     1       3.385   2.581  21.225  0.00  0.00    +0.000 A 
ATOM      7  C   UNL     1       2.152   2.548  21.886  0.00  0.00    +0.000 A 
ATOM      8  C   UNL     1       0.999   3.020  21.269  0.00  0.00    +0.000 A 
ATOM      9  C   UNL     1       1.046   3.533  19.967  0.00  0.00    +0.000 A 
ATOM     10  C   UNL     1       2.282   3.563  19.284  0.00  0.00    +0.000 A 
ENDROOT
BRANCH   3  11
ATOM     11  C   UNL     1       4.385   4.160  16.320  0.00  0.00    +0.000 C 
ATOM     12  C   UNL     1       5.551   3.645  15.897  0.00  0.00    +0.000 C 
BRANCH  12  13
ATOM     13  C   UNL     1       6.168   4.008  14.605  0.00  0.00    +0.000 A 
ATOM     14  C   UNL     1       7.195   4.964  14.599  0.00  0.00    +0.000 A 
ATOM     15  C   UNL     1       7.804   5.355  13.402  0.00  0.00    +0.000 A 
ATOM     16  C   UNL     1       7.401   4.787  12.197  0.00  0.00    +0.000 A 
ATOM     17  C   UNL     1       6.397   3.818  12.192  0.00  0.00    +0.000 A 
ATOM     18  C   UNL     1       5.790   3.426  13.387  0.00  0.00    +0.000 A 
ENDBRANCH  12  13
ENDBRANCH   3  11
TORSDOF 2
ENDMDL
