MODEL 1
REMARK VINA RESULT:      -7.8      0.000      0.000
REMARK  Name = 
REMARK  3 active torsions:
REMARK  status: ('A' for Active; 'I' for Inactive)
REMARK    1  A    between atoms: O_1  and  C_2
REMARK    2  A    between atoms: C_10  and  C_11
REMARK    3  A    between atoms: C_18  and  C_19
REMARK                            x       y       z     vdW  Elec       q    Type
REMARK                         _______ _______ _______ _____ _____    ______ ____
ROOT
ATOM      1  C   UNL     1       2.272   3.134  18.081  0.00  0.00    +0.000 A 
ATOM      2  C   UNL     1       1.473   2.951  19.216  0.00  0.00    +0.000 A 
ATOM      3  C   UNL     1       1.713   3.668  20.400  0.00  0.00    +0.000 A 
ATOM      4  C   UNL     1       2.760   4.587  20.467  0.00  0.00    +0.000 A 
ATOM      5  C   UNL     1       3.541   4.744  19.334  0.00  0.00    +0.000 A 
ATOM      6  C   UNL     1       3.319   4.039  18.131  0.00  0.00    +0.000 A 
ATOM      7  C   UNL     1       4.327   4.446  17.169  0.00  0.00    +0.000 A 
ATOM      8  N   UNL     1       4.468   4.000  15.906  0.00  0.00    +0.000 NA
ATOM      9  C   UNL     1       5.493   4.538  15.198  0.00  0.00    +0.000 A 
ATOM     10  C   UNL     1       6.369   5.489  15.736  0.00  0.00    +0.000 A 
ATOM     11  C   UNL     1       6.215   5.955  17.047  0.00  0.00    +0.000 A 
ATOM     12  C   UNL     1       5.163   5.395  17.757  0.00  0.00    +0.000 A 
ATOM     13  C   UNL     1       4.726   5.659  19.179  0.00  0.00    +0.000 C 
ENDROOT
BRANCH   9  14
ATOM     14  C   UNL     1       5.693   4.062  13.816  0.00  0.00    +0.000 A 
ATOM     15  C   UNL     1       6.983   4.043  13.242  0.00  0.00    +0.000 A 
ATOM     16  C   UNL     1       7.212   3.441  12.007  0.00  0.00    +0.000 A 
ATOM     17  C   UNL     1       6.151   2.914  11.284  0.00  0.00    +0.000 A 
ATOM     18  C   UNL     1       4.856   2.981  11.797  0.00  0.00    +0.000 A 
ATOM     19  C   UNL     1       4.638   3.536  13.059  0.00  0.00    +0.000 A 
ENDBRANCH   9  14
BRANCH  11  20
ATOM     20  C   UNL     1       7.113   6.960  17.613  0.00  0.00    +0.000 A 
ATOM     21  C   UNL     1       7.142   8.270  17.114  0.00  0.00    +0.000 A 
ATOM     22  C   UNL     1       7.876   9.277  17.708  0.00  0.00    +0.000 A 
ATOM     23  C   UNL     1       8.679   8.967  18.777  0.00  0.00    +0.000 A 
ATOM     24  C   UNL     1       8.750   7.664  19.264  0.00  0.00    +0.000 A 
ATOM     25  C   UNL     1       7.958   6.675  18.693  0.00  0.00    +0.000 A 
ENDBRANCH  11  20
BRANCH   1  26
ATOM     26  O   UNL     1       2.029   2.426  16.947  0.00  0.00    +0.000 OA
ATOM     27  H   UNL     1       2.431   1.548  17.024  0.00  0.00    +0.000 HD
ENDBRANCH   1  26
TORSDOF 3
ENDMDL
MODEL 2
REMARK VINA RESULT:      -7.7      0.190      1.343
REMARK  Name = 
REMARK  3 active torsions:
REMARK  status: ('A' for Active; 'I' for Inactive)
REMARK    1  A    between atoms: O_1  and  C_2
REMARK    2  A    between atoms: C_10  and  C_11
REMARK    3  A    between atoms: C_18  and  C_19
REMARK                            x       y       z     vdW  Elec       q    Type
REMARK                         _______ _______ _______ _____ _____    ______ ____
ROOT
ATOM      1  C   UNL     1       2.234   3.172  18.143  0.00  0.00    +0.000 A 
ATOM      2  C   UNL     1       1.402   3.005  19.257  0.00  0.00    +0.000 A 
ATOM      3  C   UNL     1       1.582   3.771  20.421  0.00  0.00    +0.000 A 
ATOM      4  C   UNL     1       2.599   4.722  20.488  0.00  0.00    +0.000 A 
ATOM      5  C   UNL     1       3.414   4.861  19.377  0.00  0.00    +0.000 A 
ATOM      6  C   UNL     1       3.253   4.108  18.194  0.00  0.00    +0.000 A 
ATOM      7  C   UNL     1       4.281   4.509  17.252  0.00  0.00    +0.000 A 
ATOM      8  N   UNL     1       4.477   4.023  16.011  0.00  0.00    +0.000 NA
ATOM      9  C   UNL     1       5.511   4.566  15.318  0.00  0.00    +0.000 A 
ATOM     10  C   UNL     1       6.341   5.561  15.850  0.00  0.00    +0.000 A 
ATOM     11  C   UNL     1       6.129   6.068  17.137  0.00  0.00    +0.000 A 
ATOM     12  C   UNL     1       5.070   5.503  17.832  0.00  0.00    +0.000 A 
ATOM     13  C   UNL     1       4.578   5.804  19.228  0.00  0.00    +0.000 C 
ENDROOT
BRANCH   9  14
ATOM     14  C   UNL     1       5.770   4.047  13.961  0.00  0.00    +0.000 A 
ATOM     15  C   UNL     1       4.731   3.458  13.208  0.00  0.00    +0.000 A 
ATOM     16  C   UNL     1       4.917   3.118  11.870  0.00  0.00    +0.000 A 
ATOM     17  C   UNL     1       6.160   3.288  11.276  0.00  0.00    +0.000 A 
ATOM     18  C   UNL     1       7.222   3.805  12.018  0.00  0.00    +0.000 A 
ATOM     19  C   UNL     1       7.019   4.194  13.343  0.00  0.00    +0.000 A 
ENDBRANCH   9  14
BRANCH  11  20
ATOM     20  C   UNL     1       6.979   7.118  17.696  0.00  0.00    +0.000 A 
ATOM     21  C   UNL     1       7.905   6.838  18.711  0.00  0.00    +0.000 A 
ATOM     22  C   UNL     1       8.815   7.772  19.167  0.00  0.00    +0.000 A 
ATOM     23  C   UNL     1       8.753   9.050  18.673  0.00  0.00    +0.000 A 
ATOM     24  C   UNL     1       7.799   9.405  17.722  0.00  0.00    +0.000 A 
ATOM     25  C   UNL     1       6.932   8.437  17.228  0.00  0.00    +0.000 A 
ENDBRANCH  11  20
BRANCH   1  26
ATOM     26  O   UNL     1       2.049   2.418  17.027  0.00  0.00    +0.000 OA
ATOM     27  H   UNL     1       1.424   1.703  17.223  0.00  0.00    +0.000 HD
ENDBRANCH   1  26
TORSDOF 3
ENDMDL
MODEL 3
REMARK VINA RESULT:      -7.6      2.049      6.888
REMARK  Name = 
REMARK  3 active torsions:
REMARK  status: ('A' for Active; 'I' for Inactive)
REMARK    1  A    between atoms: O_1  and  C_2
REMARK    2  A    between atoms: C_10  and  C_11
REMARK    3  A    between atoms: C_18  and  C_19
REMARK                            x       y       z     vdW  Elec       q    Type
REMARK                         _______ _______ _______ _____ _____    ______ ____
ROOT
ATOM      1  C   UNL     1       7.603   5.039  13.076  0.00  0.00    +0.000 A 
ATOM      2  C   UNL     1       7.504   4.225  11.941  0.00  0.00    +0.000 A 
ATOM      3  C   UNL     1       6.544   3.203  11.860  0.00  0.00    +0.000 A 
ATOM      4  C   UNL     1       5.662   2.979  12.917  0.00  0.00    +0.000 A 
ATOM      5  C   UNL     1       5.786   3.792  14.031  0.00  0.00    +0.000 A 
ATOM      6  C   UNL     1       6.739   4.828  14.137  0.00  0.00    +0.000 A 
ATOM      7  C   UNL     1       6.586   5.460  15.435  0.00  0.00    +0.000 A 
ATOM      8  N   UNL     1       7.310   6.483  15.928  0.00  0.00    +0.000 NA
ATOM      9  C   UNL     1       6.972   6.901  17.175  0.00  0.00    +0.000 A 
ATOM     10  C   UNL     1       5.948   6.308  17.922  0.00  0.00    +0.000 A 
ATOM     11  C   UNL     1       5.194   5.249  17.404  0.00  0.00    +0.000 A 
ATOM     12  C   UNL     1       5.551   4.833  16.129  0.00  0.00    +0.000 A 
ATOM     13  C   UNL     1       4.961   3.726  15.288  0.00  0.00    +0.000 C 
ENDROOT
BRANCH   9  14
ATOM     14  C   UNL     1       7.754   8.009  17.758  0.00  0.00    +0.000 A 
ATOM     15  C   UNL     1       7.655   9.314  17.228  0.00  0.00    +0.000 A 
ATOM     16  C   UNL     1       8.252  10.398  17.868  0.00  0.00    +0.000 A 
ATOM     17  C   UNL     1       9.022  10.194  19.005  0.00  0.00    +0.000 A 
ATOM     18  C   UNL     1       9.192   8.906  19.511  0.00  0.00    +0.000 A 
ATOM     19  C   UNL     1       8.549   7.829  18.897  0.00  0.00    +0.000 A 
ENDBRANCH   9  14
BRANCH  11  20
ATOM     20  C   UNL     1       4.111   4.633  18.169  0.00  0.00    +0.000 A 
ATOM     21  C   UNL     1       2.779   5.031  17.988  0.00  0.00    +0.000 A 
ATOM     22  C   UNL     1       1.719   4.383  18.592  0.00  0.00    +0.000 A 
ATOM     23  C   UNL     1       1.984   3.364  19.472  0.00  0.00    +0.000 A 
ATOM     24  C   UNL     1       3.294   2.981  19.751  0.00  0.00    +0.000 A 
ATOM     25  C   UNL     1       4.345   3.603  19.088  0.00  0.00    +0.000 A 
ENDBRANCH  11  20
BRANCH   1  26
ATOM     26  O   UNL     1       8.542   6.020  13.140  0.00  0.00    +0.000 OA
ATOM     27  H   UNL     1       9.117   5.865  13.905  0.00  0.00    +0.000 HD
ENDBRANCH   1  26
TORSDOF 3
ENDMDL
MODEL 4
REMARK VINA RESULT:      -7.6      2.058      6.934
REMARK  Name = 
REMARK  3 active torsions:
REMARK  status: ('A' for Active; 'I' for Inactive)
REMARK    1  A    between atoms: O_1  and  C_2
REMARK    2  A    between atoms: C_10  and  C_11
REMARK    3  A    between atoms: C_18  and  C_19
REMARK                            x       y       z     vdW  Elec       q    Type
REMARK                         _______ _______ _______ _____ _____    ______ ____
ROOT
ATOM      1  C   UNL     1       7.616   5.012  12.963  0.00  0.00    +0.000 A 
ATOM      2  C   UNL     1       7.600   4.242  11.794  0.00  0.00    +0.000 A 
ATOM      3  C   UNL     1       6.674   3.200  11.621  0.00  0.00    +0.000 A 
ATOM      4  C   UNL     1       5.743   2.912  12.618  0.00  0.00    +0.000 A 
ATOM      5  C   UNL     1       5.785   3.683  13.769  0.00  0.00    +0.000 A 
ATOM      6  C   UNL     1       6.702   4.737  13.966  0.00  0.00    +0.000 A 
ATOM      7  C   UNL     1       6.464   5.312  15.278  0.00  0.00    +0.000 A 
ATOM      8  N   UNL     1       7.132   6.332  15.849  0.00  0.00    +0.000 NA
ATOM      9  C   UNL     1       6.717   6.692  17.091  0.00  0.00    +0.000 A 
ATOM     10  C   UNL     1       5.671   6.043  17.757  0.00  0.00    +0.000 A 
ATOM     11  C   UNL     1       4.975   4.987  17.158  0.00  0.00    +0.000 A 
ATOM     12  C   UNL     1       5.411   4.632  15.890  0.00  0.00    +0.000 A 
ATOM     13  C   UNL     1       4.897   3.545  14.976  0.00  0.00    +0.000 C 
ENDROOT
BRANCH   9  14
ATOM     14  C   UNL     1       7.437   7.794  17.758  0.00  0.00    +0.000 A 
ATOM     15  C   UNL     1       8.346   7.527  18.805  0.00  0.00    +0.000 A 
ATOM     16  C   UNL     1       9.155   8.533  19.328  0.00  0.00    +0.000 A 
ATOM     17  C   UNL     1       9.023   9.838  18.873  0.00  0.00    +0.000 A 
ATOM     18  C   UNL     1       8.084  10.141  17.888  0.00  0.00    +0.000 A 
ATOM     19  C   UNL     1       7.312   9.121  17.328  0.00  0.00    +0.000 A 
ENDBRANCH   9  14
BRANCH  11  20
ATOM     20  C   UNL     1       3.869   4.314  17.839  0.00  0.00    +0.000 A 
ATOM     21  C   UNL     1       2.553   4.783  17.722  0.00  0.00    +0.000 A 
ATOM     22  C   UNL     1       1.471   4.098  18.238  0.00  0.00    +0.000 A 
ATOM     23  C   UNL     1       1.697   2.960  18.970  0.00  0.00    +0.000 A 
ATOM     24  C   UNL     1       2.991   2.494  19.186  0.00  0.00    +0.000 A 
ATOM     25  C   UNL     1       4.065   3.160  18.608  0.00  0.00    +0.000 A 
ENDBRANCH  11  20
BRANCH   1  26
ATOM     26  O   UNL     1       8.524   6.013  13.116  0.00  0.00    +0.000 OA
ATOM     27  H   UNL     1       8.077   6.801  13.459  0.00  0.00    +0.000 HD
ENDBRANCH   1  26
TORSDOF 3
ENDMDL
MODEL 5
REMARK VINA RESULT:      -7.5      8.405     11.021
REMARK  Name = 
REMARK  3 active torsions:
REMARK  status: ('A' for Active; 'I' for Inactive)
REMARK    1  A    between atoms: O_1  and  C_2
REMARK    2  A    between atoms: C_10  and  C_11
REMARK    3  A    between atoms: C_18  and  C_19
REMARK                            x       y       z     vdW  Elec       q    Type
REMARK                         _______ _______ _______ _____ _____    ______ ____
ROOT
ATOM      1  C   UNL     1       2.825  14.609  18.053  0.00  0.00    +0.000 A 
ATOM      2  C   UNL     1       3.120  15.949  17.773  0.00  0.00    +0.000 A 
ATOM      3  C   UNL     1       2.210  16.975  18.083  0.00  0.00    +0.000 A 
ATOM      4  C   UNL     1       0.988  16.674  18.683  0.00  0.00    +0.000 A 
ATOM      5  C   UNL     1       0.717  15.341  18.942  0.00  0.00    +0.000 A 
ATOM      6  C   UNL     1       1.614  14.292  18.644  0.00  0.00    +0.000 A 
ATOM      7  C   UNL     1       1.000  13.038  19.040  0.00  0.00    +0.000 A 
ATOM      8  N   UNL     1       1.526  11.804  18.916  0.00  0.00    +0.000 NA
ATOM      9  C   UNL     1       0.753  10.783  19.366  0.00  0.00    +0.000 A 
ATOM     10  C   UNL     1      -0.520  10.980  19.914  0.00  0.00    +0.000 A 
ATOM     11  C   UNL     1      -1.060  12.264  20.047  0.00  0.00    +0.000 A 
ATOM     12  C   UNL     1      -0.258  13.297  19.583  0.00  0.00    +0.000 A 
ATOM     13  C   UNL     1      -0.534  14.782  19.563  0.00  0.00    +0.000 C 
ENDROOT
BRANCH   9  14
ATOM     14  C   UNL     1       1.286   9.413  19.231  0.00  0.00    +0.000 A 
ATOM     15  C   UNL     1       1.822   8.970  18.002  0.00  0.00    +0.000 A 
ATOM     16  C   UNL     1       2.480   7.746  17.904  0.00  0.00    +0.000 A 
ATOM     17  C   UNL     1       2.551   6.906  19.007  0.00  0.00    +0.000 A 
ATOM     18  C   UNL     1       1.969   7.290  20.215  0.00  0.00    +0.000 A 
ATOM     19  C   UNL     1       1.358   8.540  20.324  0.00  0.00    +0.000 A 
ENDBRANCH   9  14
BRANCH  11  20
ATOM     20  C   UNL     1      -2.382  12.483  20.633  0.00  0.00    +0.000 A 
ATOM     21  C   UNL     1      -3.526  12.572  19.828  0.00  0.00    +0.000 A 
ATOM     22  C   UNL     1      -4.802  12.643  20.353  0.00  0.00    +0.000 A 
ATOM     23  C   UNL     1      -4.952  12.720  21.714  0.00  0.00    +0.000 A 
ATOM     24  C   UNL     1      -3.844  12.718  22.558  0.00  0.00    +0.000 A 
ATOM     25  C   UNL     1      -2.572  12.583  22.017  0.00  0.00    +0.000 A 
ENDBRANCH  11  20
BRANCH   1  26
ATOM     26  O   UNL     1       3.715  13.630  17.740  0.00  0.00    +0.000 OA
ATOM     27  H   UNL     1       4.410  13.600  18.415  0.00  0.00    +0.000 HD
ENDBRANCH   1  26
TORSDOF 3
ENDMDL
MODEL 6
REMARK VINA RESULT:      -7.5      8.642     11.327
REMARK  Name = 
REMARK  3 active torsions:
REMARK  status: ('A' for Active; 'I' for Inactive)
REMARK    1  A    between atoms: O_1  and  C_2
REMARK    2  A    between atoms: C_10  and  C_11
REMARK    3  A    between atoms: C_18  and  C_19
REMARK                            x       y       z     vdW  Elec       q    Type
REMARK                         _______ _______ _______ _____ _____    ______ ____
ROOT
ATOM      1  C   UNL     1       0.405  15.832  18.752  0.00  0.00    +0.000 A 
ATOM      2  C   UNL     1       1.454  16.759  18.716  0.00  0.00    +0.000 A 
ATOM      3  C   UNL     1       2.796  16.342  18.731  0.00  0.00    +0.000 A 
ATOM      4  C   UNL     1       3.111  14.984  18.778  0.00  0.00    +0.000 A 
ATOM      5  C   UNL     1       2.056  14.088  18.822  0.00  0.00    +0.000 A 
ATOM      6  C   UNL     1       0.700  14.480  18.804  0.00  0.00    +0.000 A 
ATOM      7  C   UNL     1      -0.123  13.286  18.870  0.00  0.00    +0.000 A 
ATOM      8  N   UNL     1      -1.468  13.229  18.885  0.00  0.00    +0.000 NA
ATOM      9  C   UNL     1      -2.009  11.986  18.947  0.00  0.00    +0.000 A 
ATOM     10  C   UNL     1      -1.231  10.823  19.008  0.00  0.00    +0.000 A 
ATOM     11  C   UNL     1       0.167  10.886  18.985  0.00  0.00    +0.000 A 
ATOM     12  C   UNL     1       0.704  12.164  18.921  0.00  0.00    +0.000 A 
ATOM     13  C   UNL     1       2.153  12.588  18.893  0.00  0.00    +0.000 C 
ENDROOT
BRANCH   9  14
ATOM     14  C   UNL     1      -3.481  11.882  18.985  0.00  0.00    +0.000 A 
ATOM     15  C   UNL     1      -4.172  11.129  18.010  0.00  0.00    +0.000 A 
ATOM     16  C   UNL     1      -5.538  10.883  18.128  0.00  0.00    +0.000 A 
ATOM     17  C   UNL     1      -6.257  11.442  19.175  0.00  0.00    +0.000 A 
ATOM     18  C   UNL     1      -5.611  12.246  20.114  0.00  0.00    +0.000 A 
ATOM     19  C   UNL     1      -4.233  12.447  20.023  0.00  0.00    +0.000 A 
ENDBRANCH   9  14
BRANCH  11  20
ATOM     20  C   UNL     1       0.989   9.677  19.030  0.00  0.00    +0.000 A 
ATOM     21  C   UNL     1       1.152   8.956  20.221  0.00  0.00    +0.000 A 
ATOM     22  C   UNL     1       1.808   7.742  20.272  0.00  0.00    +0.000 A 
ATOM     23  C   UNL     1       2.402   7.264  19.131  0.00  0.00    +0.000 A 
ATOM     24  C   UNL     1       2.340   7.980  17.938  0.00  0.00    +0.000 A 
ATOM     25  C   UNL     1       1.623   9.169  17.890  0.00  0.00    +0.000 A 
ENDBRANCH  11  20
BRANCH   1  26
ATOM     26  O   UNL     1      -0.887  16.254  18.743  0.00  0.00    +0.000 OA
ATOM     27  H   UNL     1      -0.908  17.221  18.804  0.00  0.00    +0.000 HD
ENDBRANCH   1  26
TORSDOF 3
ENDMDL
MODEL 7
REMARK VINA RESULT:      -7.4      8.266     10.861
REMARK  Name = 
REMARK  3 active torsions:
REMARK  status: ('A' for Active; 'I' for Inactive)
REMARK    1  A    between atoms: O_1  and  C_2
REMARK    2  A    between atoms: C_10  and  C_11
REMARK    3  A    between atoms: C_18  and  C_19
REMARK                            x       y       z     vdW  Elec       q    Type
REMARK                         _______ _______ _______ _____ _____    ______ ____
ROOT
ATOM      1  C   UNL     1       3.067  14.529  18.105  0.00  0.00    +0.000 A 
ATOM      2  C   UNL     1       3.376  15.878  17.891  0.00  0.00    +0.000 A 
ATOM      3  C   UNL     1       2.434  16.890  18.145  0.00  0.00    +0.000 A 
ATOM      4  C   UNL     1       1.164  16.567  18.621  0.00  0.00    +0.000 A 
ATOM      5  C   UNL     1       0.880  15.225  18.815  0.00  0.00    +0.000 A 
ATOM      6  C   UNL     1       1.809  14.190  18.572  0.00  0.00    +0.000 A 
ATOM      7  C   UNL     1       1.170  12.922  18.875  0.00  0.00    +0.000 A 
ATOM      8  N   UNL     1       1.714  11.695  18.765  0.00  0.00    +0.000 NA
ATOM      9  C   UNL     1       0.910  10.657  19.113  0.00  0.00    +0.000 A 
ATOM     10  C   UNL     1      -0.410  10.833  19.546  0.00  0.00    +0.000 A 
ATOM     11  C   UNL     1      -0.969  12.110  19.664  0.00  0.00    +0.000 A 
ATOM     12  C   UNL     1      -0.135  13.159  19.306  0.00  0.00    +0.000 A 
ATOM     13  C   UNL     1      -0.419  14.643  19.303  0.00  0.00    +0.000 C 
ENDROOT
BRANCH   9  14
ATOM     14  C   UNL     1       1.463   9.294  18.989  0.00  0.00    +0.000 A 
ATOM     15  C   UNL     1       2.047   8.864  17.777  0.00  0.00    +0.000 A 
ATOM     16  C   UNL     1       2.722   7.648  17.696  0.00  0.00    +0.000 A 
ATOM     17  C   UNL     1       2.765   6.803  18.796  0.00  0.00    +0.000 A 
ATOM     18  C   UNL     1       2.137   7.174  19.985  0.00  0.00    +0.000 A 
ATOM     19  C   UNL     1       1.508   8.416  20.079  0.00  0.00    +0.000 A 
ENDBRANCH   9  14
BRANCH  11  20
ATOM     20  C   UNL     1      -2.341  12.306  20.132  0.00  0.00    +0.000 A 
ATOM     21  C   UNL     1      -2.606  12.729  21.442  0.00  0.00    +0.000 A 
ATOM     22  C   UNL     1      -3.876  13.053  21.876  0.00  0.00    +0.000 A 
ATOM     23  C   UNL     1      -4.934  12.869  21.021  0.00  0.00    +0.000 A 
ATOM     24  C   UNL     1      -4.736  12.373  19.735  0.00  0.00    +0.000 A 
ATOM     25  C   UNL     1      -3.445  12.111  19.293  0.00  0.00    +0.000 A 
ENDBRANCH  11  20
BRANCH   1  26
ATOM     26  O   UNL     1       3.988  13.564  17.848  0.00  0.00    +0.000 OA
ATOM     27  H   UNL     1       3.841  13.207  16.959  0.00  0.00    +0.000 HD
ENDBRANCH   1  26
TORSDOF 3
ENDMDL
MODEL 8
REMARK VINA RESULT:      -7.3      8.362     11.001
REMARK  Name = 
REMARK  3 active torsions:
REMARK  status: ('A' for Active; 'I' for Inactive)
REMARK    1  A    between atoms: O_1  and  C_2
REMARK    2  A    between atoms: C_10  and  C_11
REMARK    3  A    between atoms: C_18  and  C_19
REMARK                            x       y       z     vdW  Elec       q    Type
REMARK                         _______ _______ _______ _____ _____    ______ ____
ROOT
ATOM      1  C   UNL     1       2.866  14.683  18.053  0.00  0.00    +0.000 A 
ATOM      2  C   UNL     1       3.110  16.033  17.775  0.00  0.00    +0.000 A 
ATOM      3  C   UNL     1       2.151  17.020  18.059  0.00  0.00    +0.000 A 
ATOM      4  C   UNL     1       0.929  16.670  18.633  0.00  0.00    +0.000 A 
ATOM      5  C   UNL     1       0.709  15.328  18.890  0.00  0.00    +0.000 A 
ATOM      6  C   UNL     1       1.656  14.317  18.618  0.00  0.00    +0.000 A 
ATOM      7  C   UNL     1       1.087  13.039  19.005  0.00  0.00    +0.000 A 
ATOM      8  N   UNL     1       1.666  11.829  18.899  0.00  0.00    +0.000 NA
ATOM      9  C   UNL     1       0.927  10.776  19.335  0.00  0.00    +0.000 A 
ATOM     10  C   UNL     1      -0.366  10.922  19.852  0.00  0.00    +0.000 A 
ATOM     11  C   UNL     1      -0.962  12.182  19.967  0.00  0.00    +0.000 A 
ATOM     12  C   UNL     1      -0.194  13.246  19.518  0.00  0.00    +0.000 A 
ATOM     13  C   UNL     1      -0.532  14.718  19.486  0.00  0.00    +0.000 C 
ENDROOT
BRANCH   9  14
ATOM     14  C   UNL     1       1.520   9.430  19.218  0.00  0.00    +0.000 A 
ATOM     15  C   UNL     1       1.514   8.545  20.319  0.00  0.00    +0.000 A 
ATOM     16  C   UNL     1       1.914   7.219  20.177  0.00  0.00    +0.000 A 
ATOM     17  C   UNL     1       2.400   6.766  18.957  0.00  0.00    +0.000 A 
ATOM     18  C   UNL     1       2.481   7.639  17.872  0.00  0.00    +0.000 A 
ATOM     19  C   UNL     1       2.029   8.953  18.003  0.00  0.00    +0.000 A 
ENDBRANCH   9  14
BRANCH  11  20
ATOM     20  C   UNL     1      -2.305  12.347  20.522  0.00  0.00    +0.000 A 
ATOM     21  C   UNL     1      -2.508  12.473  21.904  0.00  0.00    +0.000 A 
ATOM     22  C   UNL     1      -3.742  12.763  22.452  0.00  0.00    +0.000 A 
ATOM     23  C   UNL     1      -4.831  12.845  21.621  0.00  0.00    +0.000 A 
ATOM     24  C   UNL     1      -4.700  12.648  20.248  0.00  0.00    +0.000 A 
ATOM     25  C   UNL     1      -3.441  12.417  19.706  0.00  0.00    +0.000 A 
ENDBRANCH  11  20
BRANCH   1  26
ATOM     26  O   UNL     1       3.803  13.741  17.765  0.00  0.00    +0.000 OA
ATOM     27  H   UNL     1       4.232  13.962  16.925  0.00  0.00    +0.000 HD
ENDBRANCH   1  26
TORSDOF 3
ENDMDL
MODEL 9
REMARK VINA RESULT:      -7.3      8.721     11.300
REMARK  Name = 
REMARK  3 active torsions:
REMARK  status: ('A' for Active; 'I' for Inactive)
REMARK    1  A    between atoms: O_1  and  C_2
REMARK    2  A    between atoms: C_10  and  C_11
REMARK    3  A    between atoms: C_18  and  C_19
REMARK                            x       y       z     vdW  Elec       q    Type
REMARK                         _______ _______ _______ _____ _____    ______ ____
ROOT
ATOM      1  C   UNL     1       0.359  15.761  18.800  0.00  0.00    +0.000 A 
ATOM      2  C   UNL     1       1.420  16.675  18.808  0.00  0.00    +0.000 A 
ATOM      3  C   UNL     1       2.756  16.240  18.844  0.00  0.00    +0.000 A 
ATOM      4  C   UNL     1       3.052  14.878  18.871  0.00  0.00    +0.000 A 
ATOM      5  C   UNL     1       1.985  13.995  18.871  0.00  0.00    +0.000 A 
ATOM      6  C   UNL     1       0.635  14.405  18.831  0.00  0.00    +0.000 A 
ATOM      7  C   UNL     1      -0.204  13.221  18.852  0.00  0.00    +0.000 A 
ATOM      8  N   UNL     1      -1.550  13.181  18.835  0.00  0.00    +0.000 NA
ATOM      9  C   UNL     1      -2.107  11.943  18.859  0.00  0.00    +0.000 A 
ATOM     10  C   UNL     1      -1.345  10.770  18.913  0.00  0.00    +0.000 A 
ATOM     11  C   UNL     1       0.053  10.815  18.923  0.00  0.00    +0.000 A 
ATOM     12  C   UNL     1       0.607  12.087  18.899  0.00  0.00    +0.000 A 
ATOM     13  C   UNL     1       2.062  12.492  18.912  0.00  0.00    +0.000 C 
ENDROOT
BRANCH   9  14
ATOM     14  C   UNL     1      -3.581  11.858  18.860  0.00  0.00    +0.000 A 
ATOM     15  C   UNL     1      -4.335  12.494  19.871  0.00  0.00    +0.000 A 
ATOM     16  C   UNL     1      -5.724  12.566  19.794  0.00  0.00    +0.000 A 
ATOM     17  C   UNL     1      -6.395  11.944  18.750  0.00  0.00    +0.000 A 
ATOM     18  C   UNL     1      -5.677  11.251  17.775  0.00  0.00    +0.000 A 
ATOM     19  C   UNL     1      -4.283  11.226  17.826  0.00  0.00    +0.000 A 
ENDBRANCH   9  14
BRANCH  11  20
ATOM     20  C   UNL     1       0.859   9.595  18.962  0.00  0.00    +0.000 A 
ATOM     21  C   UNL     1       1.469   9.093  17.804  0.00  0.00    +0.000 A 
ATOM     22  C   UNL     1       2.343   8.024  17.827  0.00  0.00    +0.000 A 
ATOM     23  C   UNL     1       2.556   7.371  19.015  0.00  0.00    +0.000 A 
ATOM     24  C   UNL     1       1.912   7.777  20.181  0.00  0.00    +0.000 A 
ATOM     25  C   UNL     1       1.084   8.893  20.152  0.00  0.00    +0.000 A 
ENDBRANCH  11  20
BRANCH   1  26
ATOM     26  O   UNL     1      -0.927  16.200  18.770  0.00  0.00    +0.000 OA
ATOM     27  H   UNL     1      -1.053  16.771  17.997  0.00  0.00    +0.000 HD
ENDBRANCH   1  26
TORSDOF 3
ENDMDL
