MODEL 1
REMARK VINA RESULT:      -8.2      0.000      0.000
REMARK  Name = 
REMARK  6 active torsions:
REMARK  status: ('A' for Active; 'I' for Inactive)
REMARK    1  A    between atoms: C_1  and  C_2
REMARK    2  A    between atoms: C_5  and  N_6
REMARK    3  A    between atoms: C_7  and  C_9
REMARK    4  A    between atoms: C_9  and  S_10
REMARK    5  A    between atoms: S_10  and  C_11
REMARK    6  A    between atoms: C_15  and  C_16
REMARK                            x       y       z     vdW  Elec       q    Type
REMARK                         _______ _______ _______ _____ _____    ______ ____
ROOT
ATOM      1  C   UNL     1       4.163   4.564  18.369  0.00  0.00    +0.000 A 
ATOM      2  S   UNL     1       4.157   3.087  17.489  0.00  0.00    +0.000 S 
ATOM      3  N   UNL     1       2.519   3.144  17.182  0.00  0.00    +0.000 NA
ATOM      4  N   UNL     1       1.942   4.226  17.675  0.00  0.00    +0.000 NA
ATOM      5  C   UNL     1       2.856   5.057  18.318  0.00  0.00    +0.000 A 
ENDROOT
BRANCH   5   6
ATOM      6  C   UNL     1       2.403   6.310  18.924  0.00  0.00    +0.000 A 
ATOM      7  C   UNL     1       2.002   6.369  20.265  0.00  0.00    +0.000 A 
ATOM      8  C   UNL     1       1.486   7.547  20.810  0.00  0.00    +0.000 A 
ATOM      9  C   UNL     1       1.416   8.713  20.048  0.00  0.00    +0.000 A 
ATOM     10  C   UNL     1       0.904   9.896  20.594  0.00  0.00    +0.000 A 
ATOM     11  C   UNL     1       0.876  11.069  19.842  0.00  0.00    +0.000 A 
ATOM     12  C   UNL     1       1.353  11.066  18.534  0.00  0.00    +0.000 A 
ATOM     13  C   UNL     1       1.849   9.887  17.970  0.00  0.00    +0.000 A 
ATOM     14  C   UNL     1       1.883   8.695  18.711  0.00  0.00    +0.000 A 
ATOM     15  C   UNL     1       2.363   7.488  18.163  0.00  0.00    +0.000 A 
ENDBRANCH   5   6
BRANCH   1  16
ATOM     16  S   UNL     1       5.533   5.245  19.227  0.00  0.00    +0.000 S 
BRANCH  16  17
ATOM     17  C   UNL     1       6.435   6.270  18.043  0.00  0.00    +0.000 C 
BRANCH  17  19
ATOM     18  N   UNL     1       6.287   5.640  15.687  0.00  0.00    +0.000 N 
ATOM     19  C   UNL     1       6.918   5.383  16.897  0.00  0.00    +0.000 C 
ATOM     20  O   UNL     1       7.823   4.573  17.080  0.00  0.00    +0.000 OA
ATOM     21  H   UNL     1       5.652   6.429  15.661  0.00  0.00    +0.000 HD
BRANCH  18  26
ATOM     22  C   UNL     1       7.072   2.739  10.811  0.00  0.00    +0.000 C 
ATOM     23  C   UNL     1       6.833   3.509  12.075  0.00  0.00    +0.000 A 
ATOM     24  C   UNL     1       5.728   3.232  12.884  0.00  0.00    +0.000 A 
ATOM     25  C   UNL     1       5.528   3.927  14.081  0.00  0.00    +0.000 A 
ATOM     26  C   UNL     1       6.425   4.915  14.486  0.00  0.00    +0.000 A 
ATOM     27  C   UNL     1       7.508   5.225  13.658  0.00  0.00    +0.000 A 
ATOM     28  C   UNL     1       7.720   4.518  12.467  0.00  0.00    +0.000 A 
ENDBRANCH  18  26
ENDBRANCH  17  19
ENDBRANCH  16  17
ENDBRANCH   1  16
TORSDOF 5
ENDMDL
MODEL 2
REMARK VINA RESULT:      -8.2      4.354      7.235
REMARK  Name = 
REMARK  6 active torsions:
REMARK  status: ('A' for Active; 'I' for Inactive)
REMARK    1  A    between atoms: C_1  and  C_2
REMARK    2  A    between atoms: C_5  and  N_6
REMARK    3  A    between atoms: C_7  and  C_9
REMARK    4  A    between atoms: C_9  and  S_10
REMARK    5  A    between atoms: S_10  and  C_11
REMARK    6  A    between atoms: C_15  and  C_16
REMARK                            x       y       z     vdW  Elec       q    Type
REMARK                         _______ _______ _______ _____ _____    ______ ____
ROOT
ATOM      1  C   UNL     1       6.019   5.443  16.503  0.00  0.00    +0.000 A 
ATOM      2  S   UNL     1       7.116   5.213  15.200  0.00  0.00    +0.000 S 
ATOM      3  N   UNL     1       6.504   3.715  14.799  0.00  0.00    +0.000 NA
ATOM      4  N   UNL     1       5.489   3.354  15.564  0.00  0.00    +0.000 NA
ATOM      5  C   UNL     1       5.176   4.328  16.510  0.00  0.00    +0.000 A 
ENDROOT
BRANCH   5   6
ATOM      6  C   UNL     1       4.074   4.110  17.447  0.00  0.00    +0.000 A 
ATOM      7  C   UNL     1       2.778   4.559  17.166  0.00  0.00    +0.000 A 
ATOM      8  C   UNL     1       1.752   4.428  18.104  0.00  0.00    +0.000 A 
ATOM      9  C   UNL     1       1.979   3.788  19.322  0.00  0.00    +0.000 A 
ATOM     10  C   UNL     1       0.950   3.650  20.263  0.00  0.00    +0.000 A 
ATOM     11  C   UNL     1       1.172   2.973  21.460  0.00  0.00    +0.000 A 
ATOM     12  C   UNL     1       2.427   2.434  21.731  0.00  0.00    +0.000 A 
ATOM     13  C   UNL     1       3.468   2.581  20.810  0.00  0.00    +0.000 A 
ATOM     14  C   UNL     1       3.265   3.262  19.599  0.00  0.00    +0.000 A 
ATOM     15  C   UNL     1       4.300   3.439  18.658  0.00  0.00    +0.000 A 
ENDBRANCH   5   6
BRANCH   1  16
ATOM     16  S   UNL     1       6.038   6.780  17.639  0.00  0.00    +0.000 S 
BRANCH  16  17
ATOM     17  C   UNL     1       7.756   7.004  18.154  0.00  0.00    +0.000 C 
BRANCH  17  19
ATOM     18  N   UNL     1       8.969   8.932  19.039  0.00  0.00    +0.000 N 
ATOM     19  C   UNL     1       8.110   8.487  18.043  0.00  0.00    +0.000 C 
ATOM     20  O   UNL     1       7.685   9.155  17.105  0.00  0.00    +0.000 OA
ATOM     21  H   UNL     1       9.339   8.231  19.670  0.00  0.00    +0.000 HD
BRANCH  18  26
ATOM     22  C   UNL     1      10.677  14.270  20.218  0.00  0.00    +0.000 C 
ATOM     23  C   UNL     1      10.204  12.887  19.887  0.00  0.00    +0.000 A 
ATOM     24  C   UNL     1      10.203  12.428  18.567  0.00  0.00    +0.000 A 
ATOM     25  C   UNL     1       9.797  11.125  18.265  0.00  0.00    +0.000 A 
ATOM     26  C   UNL     1       9.377  10.260  19.276  0.00  0.00    +0.000 A 
ATOM     27  C   UNL     1       9.335  10.731  20.593  0.00  0.00    +0.000 A 
ATOM     28  C   UNL     1       9.759  12.030  20.899  0.00  0.00    +0.000 A 
ENDBRANCH  18  26
ENDBRANCH  17  19
ENDBRANCH  16  17
ENDBRANCH   1  16
TORSDOF 5
ENDMDL
MODEL 3
REMARK VINA RESULT:      -8.1      4.245      6.958
REMARK  Name = 
REMARK  6 active torsions:
REMARK  status: ('A' for Active; 'I' for Inactive)
REMARK    1  A    between atoms: C_1  and  C_2
REMARK    2  A    between atoms: C_5  and  N_6
REMARK    3  A    between atoms: C_7  and  C_9
REMARK    4  A    between atoms: C_9  and  S_10
REMARK    5  A    between atoms: S_10  and  C_11
REMARK    6  A    between atoms: C_15  and  C_16
REMARK                            x       y       z     vdW  Elec       q    Type
REMARK                         _______ _______ _______ _____ _____    ______ ____
ROOT
ATOM      1  C   UNL     1       6.546   5.177  15.897  0.00  0.00    +0.000 A 
ATOM      2  S   UNL     1       7.238   4.858  14.356  0.00  0.00    +0.000 S 
ATOM      3  N   UNL     1       5.901   4.031  13.801  0.00  0.00    +0.000 NA
ATOM      4  N   UNL     1       4.922   3.984  14.687  0.00  0.00    +0.000 NA
ATOM      5  C   UNL     1       5.251   4.653  15.864  0.00  0.00    +0.000 A 
ENDROOT
BRANCH   5   6
ATOM      6  C   UNL     1       4.288   4.713  16.963  0.00  0.00    +0.000 A 
ATOM      7  C   UNL     1       3.801   5.936  17.441  0.00  0.00    +0.000 A 
ATOM      8  C   UNL     1       2.953   5.990  18.549  0.00  0.00    +0.000 A 
ATOM      9  C   UNL     1       2.519   4.819  19.170  0.00  0.00    +0.000 A 
ATOM     10  C   UNL     1       1.664   4.871  20.278  0.00  0.00    +0.000 A 
ATOM     11  C   UNL     1       1.199   3.697  20.868  0.00  0.00    +0.000 A 
ATOM     12  C   UNL     1       1.592   2.462  20.360  0.00  0.00    +0.000 A 
ATOM     13  C   UNL     1       2.461   2.396  19.267  0.00  0.00    +0.000 A 
ATOM     14  C   UNL     1       2.941   3.567  18.660  0.00  0.00    +0.000 A 
ATOM     15  C   UNL     1       3.829   3.532  17.566  0.00  0.00    +0.000 A 
ENDBRANCH   5   6
BRANCH   1  16
ATOM     16  S   UNL     1       7.363   5.932  17.255  0.00  0.00    +0.000 S 
BRANCH  16  17
ATOM     17  C   UNL     1       7.019   7.703  17.153  0.00  0.00    +0.000 C 
BRANCH  17  19
ATOM     18  N   UNL     1       8.041   9.815  17.836  0.00  0.00    +0.000 N 
ATOM     19  C   UNL     1       8.003   8.445  18.056  0.00  0.00    +0.000 C 
ATOM     20  O   UNL     1       8.633   7.835  18.916  0.00  0.00    +0.000 OA
ATOM     21  H   UNL     1       7.366  10.191  17.180  0.00  0.00    +0.000 HD
BRANCH  18  26
ATOM     22  C   UNL     1      11.521  13.760  20.100  0.00  0.00    +0.000 C 
ATOM     23  C   UNL     1      10.639  12.704  19.505  0.00  0.00    +0.000 A 
ATOM     24  C   UNL     1      10.493  11.461  20.126  0.00  0.00    +0.000 A 
ATOM     25  C   UNL     1       9.640  10.492  19.590  0.00  0.00    +0.000 A 
ATOM     26  C   UNL     1       8.925  10.745  18.419  0.00  0.00    +0.000 A 
ATOM     27  C   UNL     1       9.104  11.971  17.771  0.00  0.00    +0.000 A 
ATOM     28  C   UNL     1       9.944  12.950  18.316  0.00  0.00    +0.000 A 
ENDBRANCH  18  26
ENDBRANCH  17  19
ENDBRANCH  16  17
ENDBRANCH   1  16
TORSDOF 5
ENDMDL
MODEL 4
REMARK VINA RESULT:      -8.0      4.291      7.089
REMARK  Name = 
REMARK  6 active torsions:
REMARK  status: ('A' for Active; 'I' for Inactive)
REMARK    1  A    between atoms: C_1  and  C_2
REMARK    2  A    between atoms: C_5  and  N_6
REMARK    3  A    between atoms: C_7  and  C_9
REMARK    4  A    between atoms: C_9  and  S_10
REMARK    5  A    between atoms: S_10  and  C_11
REMARK    6  A    between atoms: C_15  and  C_16
REMARK                            x       y       z     vdW  Elec       q    Type
REMARK                         _______ _______ _______ _____ _____    ______ ____
ROOT
ATOM      1  C   UNL     1       6.171   5.142  16.912  0.00  0.00    +0.000 A 
ATOM      2  S   UNL     1       7.259   5.109  15.581  0.00  0.00    +0.000 S 
ATOM      3  N   UNL     1       6.482   3.839  14.831  0.00  0.00    +0.000 NA
ATOM      4  N   UNL     1       5.417   3.425  15.493  0.00  0.00    +0.000 NA
ATOM      5  C   UNL     1       5.203   4.168  16.652  0.00  0.00    +0.000 A 
ENDROOT
BRANCH   5   6
ATOM      6  C   UNL     1       4.064   3.860  17.518  0.00  0.00    +0.000 A 
ATOM      7  C   UNL     1       2.746   3.999  17.067  0.00  0.00    +0.000 A 
ATOM      8  C   UNL     1       1.665   3.791  17.926  0.00  0.00    +0.000 A 
ATOM      9  C   UNL     1       1.872   3.376  19.242  0.00  0.00    +0.000 A 
ATOM     10  C   UNL     1       0.789   3.162  20.104  0.00  0.00    +0.000 A 
ATOM     11  C   UNL     1       1.000   2.707  21.404  0.00  0.00    +0.000 A 
ATOM     12  C   UNL     1       2.296   2.470  21.856  0.00  0.00    +0.000 A 
ATOM     13  C   UNL     1       3.386   2.700  21.012  0.00  0.00    +0.000 A 
ATOM     14  C   UNL     1       3.195   3.160  19.699  0.00  0.00    +0.000 A 
ATOM     15  C   UNL     1       4.276   3.414  18.831  0.00  0.00    +0.000 A 
ENDBRANCH   5   6
BRANCH   1  16
ATOM     16  S   UNL     1       6.325   6.148  18.341  0.00  0.00    +0.000 S 
BRANCH  16  17
ATOM     17  C   UNL     1       8.061   6.637  18.452  0.00  0.00    +0.000 C 
BRANCH  17  19
ATOM     18  N   UNL     1       8.994   8.810  19.066  0.00  0.00    +0.000 N 
ATOM     19  C   UNL     1       8.165   8.137  18.180  0.00  0.00    +0.000 C 
ATOM     20  O   UNL     1       7.587   8.631  17.215  0.00  0.00    +0.000 OA
ATOM     21  H   UNL     1       9.506   8.244  19.732  0.00  0.00    +0.000 HD
BRANCH  18  26
ATOM     22  C   UNL     1       9.713  14.491  19.200  0.00  0.00    +0.000 C 
ATOM     23  C   UNL     1       9.557  13.000  19.183  0.00  0.00    +0.000 A 
ATOM     24  C   UNL     1       9.530  12.270  20.374  0.00  0.00    +0.000 A 
ATOM     25  C   UNL     1       9.347  10.884  20.357  0.00  0.00    +0.000 A 
ATOM     26  C   UNL     1       9.195  10.203  19.150  0.00  0.00    +0.000 A 
ATOM     27  C   UNL     1       9.265  10.925  17.954  0.00  0.00    +0.000 A 
ATOM     28  C   UNL     1       9.431  12.315  17.970  0.00  0.00    +0.000 A 
ENDBRANCH  18  26
ENDBRANCH  17  19
ENDBRANCH  16  17
ENDBRANCH   1  16
TORSDOF 5
ENDMDL
MODEL 5
REMARK VINA RESULT:      -7.9      2.899      4.164
REMARK  Name = 
REMARK  6 active torsions:
REMARK  status: ('A' for Active; 'I' for Inactive)
REMARK    1  A    between atoms: C_1  and  C_2
REMARK    2  A    between atoms: C_5  and  N_6
REMARK    3  A    between atoms: C_7  and  C_9
REMARK    4  A    between atoms: C_9  and  S_10
REMARK    5  A    between atoms: S_10  and  C_11
REMARK    6  A    between atoms: C_15  and  C_16
REMARK                            x       y       z     vdW  Elec       q    Type
REMARK                         _______ _______ _______ _____ _____    ______ ____
ROOT
ATOM      1  C   UNL     1       2.145   3.682  19.470  0.00  0.00    +0.000 A 
ATOM      2  S   UNL     1       2.227   2.410  20.625  0.00  0.00    +0.000 S 
ATOM      3  N   UNL     1       2.290   3.446  21.930  0.00  0.00    +0.000 NA
ATOM      4  N   UNL     1       2.228   4.718  21.579  0.00  0.00    +0.000 NA
ATOM      5  C   UNL     1       2.112   4.874  20.200  0.00  0.00    +0.000 A 
ENDROOT
BRANCH   5   6
ATOM      6  C   UNL     1       2.024   6.214  19.620  0.00  0.00    +0.000 A 
ATOM      7  C   UNL     1       2.490   6.483  18.328  0.00  0.00    +0.000 A 
ATOM      8  C   UNL     1       2.486   7.782  17.816  0.00  0.00    +0.000 A 
ATOM      9  C   UNL     1       1.958   8.838  18.560  0.00  0.00    +0.000 A 
ATOM     10  C   UNL     1       1.948  10.141  18.047  0.00  0.00    +0.000 A 
ATOM     11  C   UNL     1       1.380  11.184  18.777  0.00  0.00    +0.000 A 
ATOM     12  C   UNL     1       0.825  10.934  20.029  0.00  0.00    +0.000 A 
ATOM     13  C   UNL     1       0.847   9.641  20.561  0.00  0.00    +0.000 A 
ATOM     14  C   UNL     1       1.415   8.578  19.842  0.00  0.00    +0.000 A 
ATOM     15  C   UNL     1       1.464   7.268  20.360  0.00  0.00    +0.000 A 
ENDBRANCH   5   6
BRANCH   1  16
ATOM     16  S   UNL     1       2.189   3.492  17.727  0.00  0.00    +0.000 S 
BRANCH  16  17
ATOM     17  C   UNL     1       3.793   2.763  17.321  0.00  0.00    +0.000 C 
BRANCH  17  19
ATOM     18  N   UNL     1       5.392   4.451  18.072  0.00  0.00    +0.000 N 
ATOM     19  C   UNL     1       4.766   3.887  16.968  0.00  0.00    +0.000 C 
ATOM     20  O   UNL     1       4.973   4.180  15.794  0.00  0.00    +0.000 OA
ATOM     21  H   UNL     1       5.217   4.014  18.969  0.00  0.00    +0.000 HD
BRANCH  18  26
ATOM     22  C   UNL     1       8.667   9.149  18.044  0.00  0.00    +0.000 C 
ATOM     23  C   UNL     1       7.839   7.899  18.042  0.00  0.00    +0.000 A 
ATOM     24  C   UNL     1       8.182   6.812  18.849  0.00  0.00    +0.000 A 
ATOM     25  C   UNL     1       7.387   5.662  18.872  0.00  0.00    +0.000 A 
ATOM     26  C   UNL     1       6.241   5.576  18.083  0.00  0.00    +0.000 A 
ATOM     27  C   UNL     1       5.919   6.645  17.240  0.00  0.00    +0.000 A 
ATOM     28  C   UNL     1       6.705   7.804  17.229  0.00  0.00    +0.000 A 
ENDBRANCH  18  26
ENDBRANCH  17  19
ENDBRANCH  16  17
ENDBRANCH   1  16
TORSDOF 5
ENDMDL
MODEL 6
REMARK VINA RESULT:      -7.9      2.921      7.700
REMARK  Name = 
REMARK  6 active torsions:
REMARK  status: ('A' for Active; 'I' for Inactive)
REMARK    1  A    between atoms: C_1  and  C_2
REMARK    2  A    between atoms: C_5  and  N_6
REMARK    3  A    between atoms: C_7  and  C_9
REMARK    4  A    between atoms: C_9  and  S_10
REMARK    5  A    between atoms: S_10  and  C_11
REMARK    6  A    between atoms: C_15  and  C_16
REMARK                            x       y       z     vdW  Elec       q    Type
REMARK                         _______ _______ _______ _____ _____    ______ ____
ROOT
ATOM      1  C   UNL     1       5.604   5.480  16.311  0.00  0.00    +0.000 A 
ATOM      2  S   UNL     1       6.757   5.337  15.044  0.00  0.00    +0.000 S 
ATOM      3  N   UNL     1       6.439   3.721  14.783  0.00  0.00    +0.000 NA
ATOM      4  N   UNL     1       5.489   3.251  15.572  0.00  0.00    +0.000 NA
ATOM      5  C   UNL     1       4.981   4.233  16.419  0.00  0.00    +0.000 A 
ENDROOT
BRANCH   5   6
ATOM      6  C   UNL     1       3.915   3.903  17.365  0.00  0.00    +0.000 A 
ATOM      7  C   UNL     1       2.564   4.038  17.020  0.00  0.00    +0.000 A 
ATOM      8  C   UNL     1       1.555   3.808  17.957  0.00  0.00    +0.000 A 
ATOM      9  C   UNL     1       1.867   3.374  19.246  0.00  0.00    +0.000 A 
ATOM     10  C   UNL     1       0.856   3.138  20.186  0.00  0.00    +0.000 A 
ATOM     11  C   UNL     1       1.170   2.664  21.458  0.00  0.00    +0.000 A 
ATOM     12  C   UNL     1       2.499   2.431  21.804  0.00  0.00    +0.000 A 
ATOM     13  C   UNL     1       3.519   2.683  20.882  0.00  0.00    +0.000 A 
ATOM     14  C   UNL     1       3.223   3.161  19.596  0.00  0.00    +0.000 A 
ATOM     15  C   UNL     1       4.231   3.437  18.651  0.00  0.00    +0.000 A 
ENDBRANCH   5   6
BRANCH   1  16
ATOM     16  S   UNL     1       5.350   6.896  17.315  0.00  0.00    +0.000 S 
BRANCH  16  17
ATOM     17  C   UNL     1       3.631   7.403  17.077  0.00  0.00    +0.000 C 
BRANCH  17  19
ATOM     18  N   UNL     1       2.033   8.537  18.536  0.00  0.00    +0.000 N 
ATOM     19  C   UNL     1       2.959   7.507  18.446  0.00  0.00    +0.000 C 
ATOM     20  O   UNL     1       3.217   6.690  19.325  0.00  0.00    +0.000 OA
ATOM     21  H   UNL     1       1.831   9.047  17.684  0.00  0.00    +0.000 HD
BRANCH  18  26
ATOM     22  C   UNL     1      -0.890  10.397  23.098  0.00  0.00    +0.000 C 
ATOM     23  C   UNL     1      -0.095   9.907  21.925  0.00  0.00    +0.000 A 
ATOM     24  C   UNL     1       0.544   8.664  21.962  0.00  0.00    +0.000 A 
ATOM     25  C   UNL     1       1.254   8.194  20.853  0.00  0.00    +0.000 A 
ATOM     26  C   UNL     1       1.344   8.961  19.691  0.00  0.00    +0.000 A 
ATOM     27  C   UNL     1       0.744  10.224  19.667  0.00  0.00    +0.000 A 
ATOM     28  C   UNL     1       0.017  10.689  20.770  0.00  0.00    +0.000 A 
ENDBRANCH  18  26
ENDBRANCH  17  19
ENDBRANCH  16  17
ENDBRANCH   1  16
TORSDOF 5
ENDMDL
MODEL 7
REMARK VINA RESULT:      -7.7      2.852      8.714
REMARK  Name = 
REMARK  6 active torsions:
REMARK  status: ('A' for Active; 'I' for Inactive)
REMARK    1  A    between atoms: C_1  and  C_2
REMARK    2  A    between atoms: C_5  and  N_6
REMARK    3  A    between atoms: C_7  and  C_9
REMARK    4  A    between atoms: C_9  and  S_10
REMARK    5  A    between atoms: S_10  and  C_11
REMARK    6  A    between atoms: C_15  and  C_16
REMARK                            x       y       z     vdW  Elec       q    Type
REMARK                         _______ _______ _______ _____ _____    ______ ____
ROOT
ATOM      1  C   UNL     1       2.634   4.054  19.993  0.00  0.00    +0.000 A 
ATOM      2  S   UNL     1       1.980   3.230  21.353  0.00  0.00    +0.000 S 
ATOM      3  N   UNL     1       3.264   2.173  21.473  0.00  0.00    +0.000 NA
ATOM      4  N   UNL     1       4.200   2.397  20.568  0.00  0.00    +0.000 NA
ATOM      5  C   UNL     1       3.881   3.474  19.744  0.00  0.00    +0.000 A 
ENDROOT
BRANCH   5   6
ATOM      6  C   UNL     1       4.801   3.878  18.681  0.00  0.00    +0.000 A 
ATOM      7  C   UNL     1       5.974   4.590  18.961  0.00  0.00    +0.000 A 
ATOM      8  C   UNL     1       6.800   5.050  17.934  0.00  0.00    +0.000 A 
ATOM      9  C   UNL     1       6.509   4.756  16.601  0.00  0.00    +0.000 A 
ATOM     10  C   UNL     1       7.339   5.213  15.569  0.00  0.00    +0.000 A 
ATOM     11  C   UNL     1       7.067   4.881  14.244  0.00  0.00    +0.000 A 
ATOM     12  C   UNL     1       5.958   4.096  13.938  0.00  0.00    +0.000 A 
ATOM     13  C   UNL     1       5.110   3.651  14.957  0.00  0.00    +0.000 A 
ATOM     14  C   UNL     1       5.366   3.977  16.298  0.00  0.00    +0.000 A 
ATOM     15  C   UNL     1       4.521   3.554  17.344  0.00  0.00    +0.000 A 
ENDBRANCH   5   6
BRANCH   1  16
ATOM     16  S   UNL     1       1.830   5.308  19.065  0.00  0.00    +0.000 S 
BRANCH  16  17
ATOM     17  C   UNL     1       2.885   6.773  19.143  0.00  0.00    +0.000 C 
BRANCH  17  19
ATOM     18  N   UNL     1       1.786   8.269  20.731  0.00  0.00    +0.000 N 
ATOM     19  C   UNL     1       2.004   7.997  19.388  0.00  0.00    +0.000 C 
ATOM     20  O   UNL     1       1.602   8.669  18.441  0.00  0.00    +0.000 OA
ATOM     21  H   UNL     1       2.292   7.702  21.401  0.00  0.00    +0.000 HD
BRANCH  18  26
ATOM     22  C   UNL     1      -1.690  12.141  23.127  0.00  0.00    +0.000 C 
ATOM     23  C   UNL     1      -0.799  11.130  22.468  0.00  0.00    +0.000 A 
ATOM     24  C   UNL     1      -0.092  11.450  21.306  0.00  0.00    +0.000 A 
ATOM     25  C   UNL     1       0.767  10.517  20.716  0.00  0.00    +0.000 A 
ATOM     26  C   UNL     1       0.927   9.248  21.271  0.00  0.00    +0.000 A 
ATOM     27  C   UNL     1       0.186   8.910  22.409  0.00  0.00    +0.000 A 
ATOM     28  C   UNL     1      -0.661   9.849  23.012  0.00  0.00    +0.000 A 
ENDBRANCH  18  26
ENDBRANCH  17  19
ENDBRANCH  16  17
ENDBRANCH   1  16
TORSDOF 5
ENDMDL
MODEL 8
REMARK VINA RESULT:      -7.7      4.109      6.834
REMARK  Name = 
REMARK  6 active torsions:
REMARK  status: ('A' for Active; 'I' for Inactive)
REMARK    1  A    between atoms: C_1  and  C_2
REMARK    2  A    between atoms: C_5  and  N_6
REMARK    3  A    between atoms: C_7  and  C_9
REMARK    4  A    between atoms: C_9  and  S_10
REMARK    5  A    between atoms: S_10  and  C_11
REMARK    6  A    between atoms: C_15  and  C_16
REMARK                            x       y       z     vdW  Elec       q    Type
REMARK                         _______ _______ _______ _____ _____    ______ ____
ROOT
ATOM      1  C   UNL     1       6.543   4.946  15.905  0.00  0.00    +0.000 A 
ATOM      2  S   UNL     1       7.208   4.997  14.320  0.00  0.00    +0.000 S 
ATOM      3  N   UNL     1       6.069   3.957  13.686  0.00  0.00    +0.000 NA
ATOM      4  N   UNL     1       5.175   3.570  14.578  0.00  0.00    +0.000 NA
ATOM      5  C   UNL     1       5.403   4.141  15.827  0.00  0.00    +0.000 A 
ENDROOT
BRANCH   5   6
ATOM      6  C   UNL     1       4.510   3.834  16.945  0.00  0.00    +0.000 A 
ATOM      7  C   UNL     1       4.240   2.513  17.322  0.00  0.00    +0.000 A 
ATOM      8  C   UNL     1       3.318   2.227  18.331  0.00  0.00    +0.000 A 
ATOM      9  C   UNL     1       2.688   3.255  19.032  0.00  0.00    +0.000 A 
ATOM     10  C   UNL     1       1.766   2.970  20.047  0.00  0.00    +0.000 A 
ATOM     11  C   UNL     1       1.172   4.001  20.773  0.00  0.00    +0.000 A 
ATOM     12  C   UNL     1       1.488   5.326  20.484  0.00  0.00    +0.000 A 
ATOM     13  C   UNL     1       2.391   5.624  19.459  0.00  0.00    +0.000 A 
ATOM     14  C   UNL     1       2.999   4.600  18.716  0.00  0.00    +0.000 A 
ATOM     15  C   UNL     1       3.902   4.872  17.668  0.00  0.00    +0.000 A 
ENDBRANCH   5   6
BRANCH   1  16
ATOM     16  S   UNL     1       7.235   5.691  17.335  0.00  0.00    +0.000 S 
BRANCH  16  17
ATOM     17  C   UNL     1       6.908   7.465  17.210  0.00  0.00    +0.000 C 
BRANCH  17  19
ATOM     18  N   UNL     1       7.922   9.587  17.870  0.00  0.00    +0.000 N 
ATOM     19  C   UNL     1       7.936   8.212  18.057  0.00  0.00    +0.000 C 
ATOM     20  O   UNL     1       8.644   7.600  18.853  0.00  0.00    +0.000 OA
ATOM     21  H   UNL     1       7.190   9.960  17.276  0.00  0.00    +0.000 HD
BRANCH  18  26
ATOM     22  C   UNL     1      11.469  13.572  19.955  0.00  0.00    +0.000 C 
ATOM     23  C   UNL     1      10.569  12.505  19.408  0.00  0.00    +0.000 A 
ATOM     24  C   UNL     1      10.408  11.291  20.081  0.00  0.00    +0.000 A 
ATOM     25  C   UNL     1       9.539  10.313  19.588  0.00  0.00    +0.000 A 
ATOM     26  C   UNL     1       8.822  10.528  18.411  0.00  0.00    +0.000 A 
ATOM     27  C   UNL     1       9.015  11.724  17.712  0.00  0.00    +0.000 A 
ATOM     28  C   UNL     1       9.871  12.712  18.213  0.00  0.00    +0.000 A 
ENDBRANCH  18  26
ENDBRANCH  17  19
ENDBRANCH  16  17
ENDBRANCH   1  16
TORSDOF 5
ENDMDL
MODEL 9
REMARK VINA RESULT:      -7.7      4.374      7.271
REMARK  Name = 
REMARK  6 active torsions:
REMARK  status: ('A' for Active; 'I' for Inactive)
REMARK    1  A    between atoms: C_1  and  C_2
REMARK    2  A    between atoms: C_5  and  N_6
REMARK    3  A    between atoms: C_7  and  C_9
REMARK    4  A    between atoms: C_9  and  S_10
REMARK    5  A    between atoms: S_10  and  C_11
REMARK    6  A    between atoms: C_15  and  C_16
REMARK                            x       y       z     vdW  Elec       q    Type
REMARK                         _______ _______ _______ _____ _____    ______ ____
ROOT
ATOM      1  C   UNL     1       6.045   5.585  16.130  0.00  0.00    +0.000 A 
ATOM      2  S   UNL     1       6.835   5.425  14.611  0.00  0.00    +0.000 S 
ATOM      3  N   UNL     1       6.536   3.788  14.499  0.00  0.00    +0.000 NA
ATOM      4  N   UNL     1       5.846   3.322  15.524  0.00  0.00    +0.000 NA
ATOM      5  C   UNL     1       5.529   4.323  16.439  0.00  0.00    +0.000 A 
ENDROOT
BRANCH   5   6
ATOM      6  C   UNL     1       4.761   3.998  17.642  0.00  0.00    +0.000 A 
ATOM      7  C   UNL     1       5.394   3.728  18.861  0.00  0.00    +0.000 A 
ATOM      8  C   UNL     1       4.659   3.330  19.980  0.00  0.00    +0.000 A 
ATOM      9  C   UNL     1       3.267   3.254  19.927  0.00  0.00    +0.000 A 
ATOM     10  C   UNL     1       2.528   2.860  21.050  0.00  0.00    +0.000 A 
ATOM     11  C   UNL     1       1.136   2.827  21.004  0.00  0.00    +0.000 A 
ATOM     12  C   UNL     1       0.471   3.178  19.832  0.00  0.00    +0.000 A 
ATOM     13  C   UNL     1       1.197   3.553  18.698  0.00  0.00    +0.000 A 
ATOM     14  C   UNL     1       2.600   3.592  18.724  0.00  0.00    +0.000 A 
ATOM     15  C   UNL     1       3.359   3.952  17.592  0.00  0.00    +0.000 A 
ENDBRANCH   5   6
BRANCH   1  16
ATOM     16  S   UNL     1       5.995   7.035  17.115  0.00  0.00    +0.000 S 
BRANCH  16  17
ATOM     17  C   UNL     1       7.602   7.169  17.932  0.00  0.00    +0.000 C 
BRANCH  17  19
ATOM     18  N   UNL     1       8.934   8.950  18.942  0.00  0.00    +0.000 N 
ATOM     19  C   UNL     1       8.024   8.637  17.942  0.00  0.00    +0.000 C 
ATOM     20  O   UNL     1       7.603   9.408  17.083  0.00  0.00    +0.000 OA
ATOM     21  H   UNL     1       9.290   8.179  19.495  0.00  0.00    +0.000 HD
BRANCH  18  26
ATOM     22  C   UNL     1      10.898  14.087  20.546  0.00  0.00    +0.000 C 
ATOM     23  C   UNL     1      10.363  12.759  20.100  0.00  0.00    +0.000 A 
ATOM     24  C   UNL     1      10.506  12.337  18.776  0.00  0.00    +0.000 A 
ATOM     25  C   UNL     1      10.039  11.083  18.373  0.00  0.00    +0.000 A 
ATOM     26  C   UNL     1       9.414  10.231  19.284  0.00  0.00    +0.000 A 
ATOM     27  C   UNL     1       9.230  10.668  20.600  0.00  0.00    +0.000 A 
ATOM     28  C   UNL     1       9.713  11.917  21.009  0.00  0.00    +0.000 A 
ENDBRANCH  18  26
ENDBRANCH  17  19
ENDBRANCH  16  17
ENDBRANCH   1  16
TORSDOF 5
ENDMDL
