MODEL 1
REMARK VINA RESULT:      -6.1      0.000      0.000
REMARK  Name = 
REMARK  9 active torsions:
REMARK  status: ('A' for Active; 'I' for Inactive)
REMARK    1  A    between atoms: C_1  and  C_2
REMARK    2  A    between atoms: C_7  and  N_8
REMARK    3  A    between atoms: C_9  and  C_10
REMARK    4  A    between atoms: C_12  and  O_13
REMARK    5  A    between atoms: O_13  and  C_14
REMARK    6  A    between atoms: C_14  and  C_15
REMARK    7  A    between atoms: C_15  and  N_16
REMARK    8  A    between atoms: N_16  and  C_17
REMARK    9  A    between atoms: N_16  and  C_18
REMARK                            x       y       z     vdW  Elec       q    Type
REMARK                         _______ _______ _______ _____ _____    ______ ____
ROOT
ATOM      1  C   UNL     1       1.750   9.118  18.052  0.00  0.00    +0.000 C 
ATOM      2  C   UNL     1       2.566   7.860  18.173  0.00  0.00    +0.000 C 
ATOM      3  O   UNL     1       3.448   7.611  17.360  0.00  0.00    +0.000 OA
ATOM      4  N   UNL     1       2.174   7.087  19.253  0.00  0.00    +0.000 N 
ATOM      5  C   UNL     1       2.769   5.869  19.604  0.00  0.00    +0.000 A 
ATOM      6  C   UNL     1       2.132   5.061  20.533  0.00  0.00    +0.000 A 
ATOM      7  C   UNL     1       2.657   3.793  20.822  0.00  0.00    +0.000 A 
ATOM      8  C   UNL     1       3.903   3.441  20.268  0.00  0.00    +0.000 A 
ATOM      9  C   UNL     1       4.507   4.344  19.401  0.00  0.00    +0.000 A 
ATOM     10  N   UNL     1       3.930   5.512  19.053  0.00  0.00    +0.000 NA
ATOM     11  H   UNL     1       1.355   7.372  19.768  0.00  0.00    +0.000 HD
ENDROOT
BRANCH   7  12
ATOM     12  N   UNL     1       2.021   3.030  21.823  0.00  0.00    +0.000 N 
ATOM     13  H   UNL     1       1.752   3.549  22.655  0.00  0.00    +0.000 HD
ATOM     14  H   UNL     1       1.268   2.427  21.501  0.00  0.00    +0.000 HD
ENDBRANCH   7  12
BRANCH   8  15
ATOM     15  C   UNL     1       4.531   2.194  20.578  0.00  0.00    +0.000 C 
ATOM     16  N   UNL     1       5.065   1.211  20.887  0.00  0.00    +0.000 NA
ENDBRANCH   8  15
BRANCH   9  17
ATOM     17  O   UNL     1       5.745   4.061  18.849  0.00  0.00    +0.000 OA
BRANCH  17  18
ATOM     18  C   UNL     1       6.577   5.240  18.861  0.00  0.00    +0.000 C 
BRANCH  18  19
ATOM     19  C   UNL     1       7.624   5.213  17.734  0.00  0.00    +0.000 C 
BRANCH  19  20
ATOM     20  N   UNL     1       7.369   6.226  16.686  0.00  0.00    +0.000 NA
ATOM     21  C   UNL     1       6.217   5.886  15.847  0.00  0.00    +0.000 C 
ATOM     22  C   UNL     1       7.182   7.553  17.272  0.00  0.00    +0.000 C 
ENDBRANCH  19  20
ENDBRANCH  18  19
ENDBRANCH  17  18
ENDBRANCH   9  17
TORSDOF 6
ENDMDL
MODEL 2
REMARK VINA RESULT:      -6.1      2.249      5.489
REMARK  Name = 
REMARK  9 active torsions:
REMARK  status: ('A' for Active; 'I' for Inactive)
REMARK    1  A    between atoms: C_1  and  C_2
REMARK    2  A    between atoms: C_7  and  N_8
REMARK    3  A    between atoms: C_9  and  C_10
REMARK    4  A    between atoms: C_12  and  O_13
REMARK    5  A    between atoms: O_13  and  C_14
REMARK    6  A    between atoms: C_14  and  C_15
REMARK    7  A    between atoms: C_15  and  N_16
REMARK    8  A    between atoms: N_16  and  C_17
REMARK    9  A    between atoms: N_16  and  C_18
REMARK                            x       y       z     vdW  Elec       q    Type
REMARK                         _______ _______ _______ _____ _____    ______ ____
ROOT
ATOM      1  C   UNL     1       0.795   1.996  18.791  0.00  0.00    +0.000 C 
ATOM      2  C   UNL     1       1.563   3.204  18.327  0.00  0.00    +0.000 C 
ATOM      3  O   UNL     1       0.997   4.105  17.719  0.00  0.00    +0.000 OA
ATOM      4  N   UNL     1       2.907   3.125  18.657  0.00  0.00    +0.000 N 
ATOM      5  C   UNL     1       3.848   4.115  18.352  0.00  0.00    +0.000 A 
ATOM      6  C   UNL     1       5.195   3.817  18.493  0.00  0.00    +0.000 A 
ATOM      7  C   UNL     1       6.156   4.758  18.097  0.00  0.00    +0.000 A 
ATOM      8  C   UNL     1       5.720   6.040  17.709  0.00  0.00    +0.000 A 
ATOM      9  C   UNL     1       4.351   6.275  17.666  0.00  0.00    +0.000 A 
ATOM     10  N   UNL     1       3.442   5.319  17.947  0.00  0.00    +0.000 NA
ATOM     11  H   UNL     1       3.245   2.267  19.063  0.00  0.00    +0.000 HD
ENDROOT
BRANCH   7  12
ATOM     12  N   UNL     1       7.514   4.447  18.320  0.00  0.00    +0.000 N 
ATOM     13  H   UNL     1       7.984   5.034  19.004  0.00  0.00    +0.000 HD
ATOM     14  H   UNL     1       7.716   3.462  18.473  0.00  0.00    +0.000 HD
ENDBRANCH   7  12
BRANCH   8  15
ATOM     15  C   UNL     1       6.650   7.070  17.362  0.00  0.00    +0.000 C 
ATOM     16  N   UNL     1       7.441   7.858  17.047  0.00  0.00    +0.000 NA
ENDBRANCH   8  15
BRANCH   9  17
ATOM     17  O   UNL     1       3.867   7.525  17.317  0.00  0.00    +0.000 OA
BRANCH  17  18
ATOM     18  C   UNL     1       2.669   7.821  18.065  0.00  0.00    +0.000 C 
BRANCH  18  19
ATOM     19  C   UNL     1       2.179   9.257  17.813  0.00  0.00    +0.000 C 
BRANCH  19  20
ATOM     20  N   UNL     1       1.066   9.651  18.705  0.00  0.00    +0.000 NA
ATOM     21  C   UNL     1       1.178   9.054  20.037  0.00  0.00    +0.000 C 
ATOM     22  C   UNL     1       0.971  11.106  18.818  0.00  0.00    +0.000 C 
ENDBRANCH  19  20
ENDBRANCH  18  19
ENDBRANCH  17  18
ENDBRANCH   9  17
TORSDOF 6
ENDMDL
MODEL 3
REMARK VINA RESULT:      -5.9      1.032      1.376
REMARK  Name = 
REMARK  9 active torsions:
REMARK  status: ('A' for Active; 'I' for Inactive)
REMARK    1  A    between atoms: C_1  and  C_2
REMARK    2  A    between atoms: C_7  and  N_8
REMARK    3  A    between atoms: C_9  and  C_10
REMARK    4  A    between atoms: C_12  and  O_13
REMARK    5  A    between atoms: O_13  and  C_14
REMARK    6  A    between atoms: C_14  and  C_15
REMARK    7  A    between atoms: C_15  and  N_16
REMARK    8  A    between atoms: N_16  and  C_17
REMARK    9  A    between atoms: N_16  and  C_18
REMARK                            x       y       z     vdW  Elec       q    Type
REMARK                         _______ _______ _______ _____ _____    ______ ____
ROOT
ATOM      1  C   UNL     1       1.691   9.094  17.877  0.00  0.00    +0.000 C 
ATOM      2  C   UNL     1       2.607   7.915  18.059  0.00  0.00    +0.000 C 
ATOM      3  O   UNL     1       3.684   7.868  17.476  0.00  0.00    +0.000 OA
ATOM      4  N   UNL     1       2.067   6.961  18.906  0.00  0.00    +0.000 N 
ATOM      5  C   UNL     1       2.709   5.767  19.255  0.00  0.00    +0.000 A 
ATOM      6  C   UNL     1       1.975   4.779  19.891  0.00  0.00    +0.000 A 
ATOM      7  C   UNL     1       2.571   3.537  20.158  0.00  0.00    +0.000 A 
ATOM      8  C   UNL     1       3.949   3.387  19.905  0.00  0.00    +0.000 A 
ATOM      9  C   UNL     1       4.624   4.457  19.332  0.00  0.00    +0.000 A 
ATOM     10  N   UNL     1       4.005   5.604  18.984  0.00  0.00    +0.000 NA
ATOM     11  H   UNL     1       1.119   7.092  19.223  0.00  0.00    +0.000 HD
ENDROOT
BRANCH   7  12
ATOM     12  N   UNL     1       1.815   2.582  20.868  0.00  0.00    +0.000 N 
ATOM     13  H   UNL     1       0.907   2.906  21.192  0.00  0.00    +0.000 HD
ATOM     14  H   UNL     1       1.750   1.665  20.434  0.00  0.00    +0.000 HD
ENDBRANCH   7  12
BRANCH   8  15
ATOM     15  C   UNL     1       4.636   2.173  20.220  0.00  0.00    +0.000 C 
ATOM     16  N   UNL     1       5.147   1.154  20.438  0.00  0.00    +0.000 NA
ENDBRANCH   8  15
BRANCH   9  17
ATOM     17  O   UNL     1       5.985   4.375  19.086  0.00  0.00    +0.000 OA
BRANCH  17  18
ATOM     18  C   UNL     1       6.339   5.203  17.959  0.00  0.00    +0.000 C 
BRANCH  18  19
ATOM     19  C   UNL     1       6.747   4.362  16.738  0.00  0.00    +0.000 C 
BRANCH  19  20
ATOM     20  N   UNL     1       5.806   4.497  15.604  0.00  0.00    +0.000 NA
ATOM     21  C   UNL     1       5.346   5.876  15.421  0.00  0.00    +0.000 C 
ATOM     22  C   UNL     1       6.402   4.003  14.363  0.00  0.00    +0.000 C 
ENDBRANCH  19  20
ENDBRANCH  18  19
ENDBRANCH  17  18
ENDBRANCH   9  17
TORSDOF 6
ENDMDL
MODEL 4
REMARK VINA RESULT:      -5.8      2.155      5.445
REMARK  Name = 
REMARK  9 active torsions:
REMARK  status: ('A' for Active; 'I' for Inactive)
REMARK    1  A    between atoms: C_1  and  C_2
REMARK    2  A    between atoms: C_7  and  N_8
REMARK    3  A    between atoms: C_9  and  C_10
REMARK    4  A    between atoms: C_12  and  O_13
REMARK    5  A    between atoms: O_13  and  C_14
REMARK    6  A    between atoms: C_14  and  C_15
REMARK    7  A    between atoms: C_15  and  N_16
REMARK    8  A    between atoms: N_16  and  C_17
REMARK    9  A    between atoms: N_16  and  C_18
REMARK                            x       y       z     vdW  Elec       q    Type
REMARK                         _______ _______ _______ _____ _____    ______ ____
ROOT
ATOM      1  C   UNL     1       7.203   4.925  14.052  0.00  0.00    +0.000 C 
ATOM      2  C   UNL     1       6.355   4.834  15.290  0.00  0.00    +0.000 C 
ATOM      3  O   UNL     1       6.281   3.783  15.917  0.00  0.00    +0.000 OA
ATOM      4  N   UNL     1       5.708   6.027  15.568  0.00  0.00    +0.000 N 
ATOM      5  C   UNL     1       4.862   6.224  16.666  0.00  0.00    +0.000 A 
ATOM      6  C   UNL     1       4.072   7.362  16.700  0.00  0.00    +0.000 A 
ATOM      7  C   UNL     1       3.143   7.528  17.738  0.00  0.00    +0.000 A 
ATOM      8  C   UNL     1       3.150   6.602  18.799  0.00  0.00    +0.000 A 
ATOM      9  C   UNL     1       4.028   5.529  18.718  0.00  0.00    +0.000 A 
ATOM     10  N   UNL     1       4.836   5.330  17.656  0.00  0.00    +0.000 NA
ATOM     11  H   UNL     1       5.782   6.774  14.895  0.00  0.00    +0.000 HD
ENDROOT
BRANCH   7  12
ATOM     12  N   UNL     1       2.407   8.731  17.777  0.00  0.00    +0.000 N 
ATOM     13  H   UNL     1       2.929   9.564  17.517  0.00  0.00    +0.000 HD
ATOM     14  H   UNL     1       1.499   8.702  17.320  0.00  0.00    +0.000 HD
ENDBRANCH   7  12
BRANCH   8  15
ATOM     15  C   UNL     1       2.281   6.752  19.925  0.00  0.00    +0.000 C 
ATOM     16  N   UNL     1       1.561   6.937  20.816  0.00  0.00    +0.000 NA
ENDBRANCH   8  15
BRANCH   9  17
ATOM     17  O   UNL     1       4.097   4.602  19.745  0.00  0.00    +0.000 OA
BRANCH  17  18
ATOM     18  C   UNL     1       4.262   3.273  19.208  0.00  0.00    +0.000 C 
BRANCH  18  19
ATOM     19  C   UNL     1       3.161   2.318  19.699  0.00  0.00    +0.000 C 
BRANCH  19  20
ATOM     20  N   UNL     1       1.840   2.974  19.818  0.00  0.00    +0.000 NA
ATOM     21  C   UNL     1       0.870   2.460  18.850  0.00  0.00    +0.000 C 
ATOM     22  C   UNL     1       1.308   2.843  21.174  0.00  0.00    +0.000 C 
ENDBRANCH  19  20
ENDBRANCH  18  19
ENDBRANCH  17  18
ENDBRANCH   9  17
TORSDOF 6
ENDMDL
MODEL 5
REMARK VINA RESULT:      -5.8      1.990      2.249
REMARK  Name = 
REMARK  9 active torsions:
REMARK  status: ('A' for Active; 'I' for Inactive)
REMARK    1  A    between atoms: C_1  and  C_2
REMARK    2  A    between atoms: C_7  and  N_8
REMARK    3  A    between atoms: C_9  and  C_10
REMARK    4  A    between atoms: C_12  and  O_13
REMARK    5  A    between atoms: O_13  and  C_14
REMARK    6  A    between atoms: C_14  and  C_15
REMARK    7  A    between atoms: C_15  and  N_16
REMARK    8  A    between atoms: N_16  and  C_17
REMARK    9  A    between atoms: N_16  and  C_18
REMARK                            x       y       z     vdW  Elec       q    Type
REMARK                         _______ _______ _______ _____ _____    ______ ____
ROOT
ATOM      1  C   UNL     1       0.976   9.656  21.104  0.00  0.00    +0.000 C 
ATOM      2  C   UNL     1       1.403   8.518  20.218  0.00  0.00    +0.000 C 
ATOM      3  O   UNL     1       1.507   8.677  19.007  0.00  0.00    +0.000 OA
ATOM      4  N   UNL     1       1.619   7.352  20.935  0.00  0.00    +0.000 N 
ATOM      5  C   UNL     1       2.031   6.143  20.361  0.00  0.00    +0.000 A 
ATOM      6  C   UNL     1       1.961   4.988  21.125  0.00  0.00    +0.000 A 
ATOM      7  C   UNL     1       2.271   3.752  20.539  0.00  0.00    +0.000 A 
ATOM      8  C   UNL     1       2.791   3.742  19.229  0.00  0.00    +0.000 A 
ATOM      9  C   UNL     1       2.894   4.957  18.562  0.00  0.00    +0.000 A 
ATOM     10  N   UNL     1       2.487   6.121  19.108  0.00  0.00    +0.000 NA
ATOM     11  H   UNL     1       1.384   7.348  21.915  0.00  0.00    +0.000 HD
ENDROOT
BRANCH   7  12
ATOM     12  N   UNL     1       2.257   2.609  21.365  0.00  0.00    +0.000 N 
ATOM     13  H   UNL     1       1.791   1.797  20.970  0.00  0.00    +0.000 HD
ATOM     14  H   UNL     1       3.151   2.360  21.781  0.00  0.00    +0.000 HD
ENDBRANCH   7  12
BRANCH   8  15
ATOM     15  C   UNL     1       3.195   2.525  18.597  0.00  0.00    +0.000 C 
ATOM     16  N   UNL     1       3.585   1.543  18.116  0.00  0.00    +0.000 NA
ENDBRANCH   8  15
BRANCH   9  17
ATOM     17  O   UNL     1       3.423   5.010  17.283  0.00  0.00    +0.000 OA
BRANCH  17  18
ATOM     18  C   UNL     1       4.669   5.736  17.289  0.00  0.00    +0.000 C 
BRANCH  18  19
ATOM     19  C   UNL     1       5.316   5.771  15.894  0.00  0.00    +0.000 C 
BRANCH  19  20
ATOM     20  N   UNL     1       6.238   4.637  15.658  0.00  0.00    +0.000 NA
ATOM     21  C   UNL     1       6.936   4.741  14.374  0.00  0.00    +0.000 C 
ATOM     22  C   UNL     1       7.210   4.514  16.744  0.00  0.00    +0.000 C 
ENDBRANCH  19  20
ENDBRANCH  18  19
ENDBRANCH  17  18
ENDBRANCH   9  17
TORSDOF 6
ENDMDL
MODEL 6
REMARK VINA RESULT:      -5.8      1.386      1.852
REMARK  Name = 
REMARK  9 active torsions:
REMARK  status: ('A' for Active; 'I' for Inactive)
REMARK    1  A    between atoms: C_1  and  C_2
REMARK    2  A    between atoms: C_7  and  N_8
REMARK    3  A    between atoms: C_9  and  C_10
REMARK    4  A    between atoms: C_12  and  O_13
REMARK    5  A    between atoms: O_13  and  C_14
REMARK    6  A    between atoms: C_14  and  C_15
REMARK    7  A    between atoms: C_15  and  N_16
REMARK    8  A    between atoms: N_16  and  C_17
REMARK    9  A    between atoms: N_16  and  C_18
REMARK                            x       y       z     vdW  Elec       q    Type
REMARK                         _______ _______ _______ _____ _____    ______ ____
ROOT
ATOM      1  C   UNL     1       1.076  10.508  18.906  0.00  0.00    +0.000 C 
ATOM      2  C   UNL     1       1.696   9.189  18.534  0.00  0.00    +0.000 C 
ATOM      3  O   UNL     1       2.105   8.994  17.395  0.00  0.00    +0.000 OA
ATOM      4  N   UNL     1       1.706   8.300  19.596  0.00  0.00    +0.000 N 
ATOM      5  C   UNL     1       2.231   7.004  19.529  0.00  0.00    +0.000 A 
ATOM      6  C   UNL     1       1.954   6.121  20.561  0.00  0.00    +0.000 A 
ATOM      7  C   UNL     1       2.383   4.789  20.466  0.00  0.00    +0.000 A 
ATOM      8  C   UNL     1       3.216   4.428  19.389  0.00  0.00    +0.000 A 
ATOM      9  C   UNL     1       3.503   5.398  18.436  0.00  0.00    +0.000 A 
ATOM     10  N   UNL     1       2.989   6.644  18.492  0.00  0.00    +0.000 NA
ATOM     11  H   UNL     1       1.231   8.568  20.444  0.00  0.00    +0.000 HD
ENDROOT
BRANCH   7  12
ATOM     12  N   UNL     1       2.143   3.939  21.566  0.00  0.00    +0.000 N 
ATOM     13  H   UNL     1       2.078   2.950  21.340  0.00  0.00    +0.000 HD
ATOM     14  H   UNL     1       2.735   4.098  22.377  0.00  0.00    +0.000 HD
ENDBRANCH   7  12
BRANCH   8  15
ATOM     15  C   UNL     1       3.749   3.107  19.269  0.00  0.00    +0.000 C 
ATOM     16  N   UNL     1       4.200   2.038  19.238  0.00  0.00    +0.000 NA
ENDBRANCH   8  15
BRANCH   9  17
ATOM     17  O   UNL     1       4.339   5.107  17.371  0.00  0.00    +0.000 OA
BRANCH  17  18
ATOM     18  C   UNL     1       4.878   6.324  16.813  0.00  0.00    +0.000 C 
BRANCH  18  19
ATOM     19  C   UNL     1       6.313   6.587  17.298  0.00  0.00    +0.000 C 
BRANCH  19  20
ATOM     20  N   UNL     1       7.300   5.655  16.710  0.00  0.00    +0.000 NA
ATOM     21  C   UNL     1       7.637   4.553  17.613  0.00  0.00    +0.000 C 
ATOM     22  C   UNL     1       6.826   5.125  15.432  0.00  0.00    +0.000 C 
ENDBRANCH  19  20
ENDBRANCH  18  19
ENDBRANCH  17  18
ENDBRANCH   9  17
TORSDOF 6
ENDMDL
MODEL 7
REMARK VINA RESULT:      -5.8      2.005      2.386
REMARK  Name = 
REMARK  9 active torsions:
REMARK  status: ('A' for Active; 'I' for Inactive)
REMARK    1  A    between atoms: C_1  and  C_2
REMARK    2  A    between atoms: C_7  and  N_8
REMARK    3  A    between atoms: C_9  and  C_10
REMARK    4  A    between atoms: C_12  and  O_13
REMARK    5  A    between atoms: O_13  and  C_14
REMARK    6  A    between atoms: C_14  and  C_15
REMARK    7  A    between atoms: C_15  and  N_16
REMARK    8  A    between atoms: N_16  and  C_17
REMARK    9  A    between atoms: N_16  and  C_18
REMARK                            x       y       z     vdW  Elec       q    Type
REMARK                         _______ _______ _______ _____ _____    ______ ____
ROOT
ATOM      1  C   UNL     1       0.720   9.453  21.730  0.00  0.00    +0.000 C 
ATOM      2  C   UNL     1       1.293   8.499  20.718  0.00  0.00    +0.000 C 
ATOM      3  O   UNL     1       1.640   8.899  19.613  0.00  0.00    +0.000 OA
ATOM      4  N   UNL     1       1.340   7.200  21.196  0.00  0.00    +0.000 N 
ATOM      5  C   UNL     1       1.835   6.113  20.465  0.00  0.00    +0.000 A 
ATOM      6  C   UNL     1       1.594   4.831  20.936  0.00  0.00    +0.000 A 
ATOM      7  C   UNL     1       1.991   3.727  20.167  0.00  0.00    +0.000 A 
ATOM      8  C   UNL     1       2.761   3.957  19.010  0.00  0.00    +0.000 A 
ATOM      9  C   UNL     1       3.017   5.274  18.652  0.00  0.00    +0.000 A 
ATOM     10  N   UNL     1       2.532   6.323  19.347  0.00  0.00    +0.000 NA
ATOM     11  H   UNL     1       0.914   7.007  22.089  0.00  0.00    +0.000 HD
ENDROOT
BRANCH   7  12
ATOM     12  N   UNL     1       1.791   2.441  20.711  0.00  0.00    +0.000 N 
ATOM     13  H   UNL     1       0.824   2.204  20.914  0.00  0.00    +0.000 HD
ATOM     14  H   UNL     1       2.266   1.683  20.227  0.00  0.00    +0.000 HD
ENDBRANCH   7  12
BRANCH   8  15
ATOM     15  C   UNL     1       3.260   2.874  18.220  0.00  0.00    +0.000 C 
ATOM     16  N   UNL     1       3.694   1.969  17.637  0.00  0.00    +0.000 NA
ENDBRANCH   8  15
BRANCH   9  17
ATOM     17  O   UNL     1       3.791   5.558  17.539  0.00  0.00    +0.000 OA
BRANCH  17  18
ATOM     18  C   UNL     1       5.130   5.915  17.941  0.00  0.00    +0.000 C 
BRANCH  18  19
ATOM     19  C   UNL     1       5.986   6.362  16.743  0.00  0.00    +0.000 C 
BRANCH  19  20
ATOM     20  N   UNL     1       7.159   5.490  16.516  0.00  0.00    +0.000 NA
ATOM     21  C   UNL     1       7.505   4.697  17.698  0.00  0.00    +0.000 C 
ATOM     22  C   UNL     1       6.945   4.607  15.370  0.00  0.00    +0.000 C 
ENDBRANCH  19  20
ENDBRANCH  18  19
ENDBRANCH  17  18
ENDBRANCH   9  17
TORSDOF 6
ENDMDL
MODEL 8
REMARK VINA RESULT:      -5.7      2.172      5.557
REMARK  Name = 
REMARK  9 active torsions:
REMARK  status: ('A' for Active; 'I' for Inactive)
REMARK    1  A    between atoms: C_1  and  C_2
REMARK    2  A    between atoms: C_7  and  N_8
REMARK    3  A    between atoms: C_9  and  C_10
REMARK    4  A    between atoms: C_12  and  O_13
REMARK    5  A    between atoms: O_13  and  C_14
REMARK    6  A    between atoms: C_14  and  C_15
REMARK    7  A    between atoms: C_15  and  N_16
REMARK    8  A    between atoms: N_16  and  C_17
REMARK    9  A    between atoms: N_16  and  C_18
REMARK                            x       y       z     vdW  Elec       q    Type
REMARK                         _______ _______ _______ _____ _____    ______ ____
ROOT
ATOM      1  C   UNL     1       1.470   2.583  21.918  0.00  0.00    +0.000 C 
ATOM      2  C   UNL     1       1.882   3.602  20.891  0.00  0.00    +0.000 C 
ATOM      3  O   UNL     1       1.321   4.690  20.835  0.00  0.00    +0.000 OA
ATOM      4  N   UNL     1       2.901   3.137  20.076  0.00  0.00    +0.000 N 
ATOM      5  C   UNL     1       3.480   3.881  19.041  0.00  0.00    +0.000 A 
ATOM      6  C   UNL     1       4.298   3.230  18.132  0.00  0.00    +0.000 A 
ATOM      7  C   UNL     1       4.805   3.935  17.030  0.00  0.00    +0.000 A 
ATOM      8  C   UNL     1       4.589   5.326  16.966  0.00  0.00    +0.000 A 
ATOM      9  C   UNL     1       3.816   5.909  17.962  0.00  0.00    +0.000 A 
ATOM     10  N   UNL     1       3.247   5.192  18.953  0.00  0.00    +0.000 NA
ATOM     11  H   UNL     1       3.185   2.174  20.174  0.00  0.00    +0.000 HD
ENDROOT
BRANCH   7  12
ATOM     12  N   UNL     1       5.690   3.257  16.165  0.00  0.00    +0.000 N 
ATOM     13  H   UNL     1       5.248   2.613  15.514  0.00  0.00    +0.000 HD
ATOM     14  H   UNL     1       6.380   3.842  15.700  0.00  0.00    +0.000 HD
ENDBRANCH   7  12
BRANCH   8  15
ATOM     15  C   UNL     1       5.139   6.117  15.910  0.00  0.00    +0.000 C 
ATOM     16  N   UNL     1       5.647   6.756  15.084  0.00  0.00    +0.000 NA
ENDBRANCH   8  15
BRANCH   9  17
ATOM     17  O   UNL     1       3.593   7.276  17.964  0.00  0.00    +0.000 OA
BRANCH  17  18
ATOM     18  C   UNL     1       2.288   7.568  18.507  0.00  0.00    +0.000 C 
BRANCH  18  19
ATOM     19  C   UNL     1       1.735   8.902  17.978  0.00  0.00    +0.000 C 
BRANCH  19  20
ATOM     20  N   UNL     1       0.879   9.601  18.962  0.00  0.00    +0.000 NA
ATOM     21  C   UNL     1       1.016   9.053  20.313  0.00  0.00    +0.000 C 
ATOM     22  C   UNL     1       1.158  11.037  18.976  0.00  0.00    +0.000 C 
ENDBRANCH  19  20
ENDBRANCH  18  19
ENDBRANCH  17  18
ENDBRANCH   9  17
TORSDOF 6
ENDMDL
MODEL 9
REMARK VINA RESULT:      -5.7      1.695      1.888
REMARK  Name = 
REMARK  9 active torsions:
REMARK  status: ('A' for Active; 'I' for Inactive)
REMARK    1  A    between atoms: C_1  and  C_2
REMARK    2  A    between atoms: C_7  and  N_8
REMARK    3  A    between atoms: C_9  and  C_10
REMARK    4  A    between atoms: C_12  and  O_13
REMARK    5  A    between atoms: O_13  and  C_14
REMARK    6  A    between atoms: C_14  and  C_15
REMARK    7  A    between atoms: C_15  and  N_16
REMARK    8  A    between atoms: N_16  and  C_17
REMARK    9  A    between atoms: N_16  and  C_18
REMARK                            x       y       z     vdW  Elec       q    Type
REMARK                         _______ _______ _______ _____ _____    ______ ____
ROOT
ATOM      1  C   UNL     1       1.001   9.435  21.005  0.00  0.00    +0.000 C 
ATOM      2  C   UNL     1       1.590   8.305  20.205  0.00  0.00    +0.000 C 
ATOM      3  O   UNL     1       2.049   8.508  19.087  0.00  0.00    +0.000 OA
ATOM      4  N   UNL     1       1.513   7.096  20.877  0.00  0.00    +0.000 N 
ATOM      5  C   UNL     1       1.992   5.883  20.367  0.00  0.00    +0.000 A 
ATOM      6  C   UNL     1       1.630   4.706  21.003  0.00  0.00    +0.000 A 
ATOM      7  C   UNL     1       2.013   3.475  20.450  0.00  0.00    +0.000 A 
ATOM      8  C   UNL     1       2.886   3.480  19.345  0.00  0.00    +0.000 A 
ATOM      9  C   UNL     1       3.257   4.709  18.815  0.00  0.00    +0.000 A 
ATOM     10  N   UNL     1       2.787   5.878  19.297  0.00  0.00    +0.000 NA
ATOM     11  H   UNL     1       1.005   7.069  21.748  0.00  0.00    +0.000 HD
ENDROOT
BRANCH   7  12
ATOM     12  N   UNL     1       1.687   2.303  21.163  0.00  0.00    +0.000 N 
ATOM     13  H   UNL     1       1.371   1.524  20.590  0.00  0.00    +0.000 HD
ATOM     14  H   UNL     1       2.372   2.005  21.852  0.00  0.00    +0.000 HD
ENDBRANCH   7  12
BRANCH   8  15
ATOM     15  C   UNL     1       3.375   2.262  18.776  0.00  0.00    +0.000 C 
ATOM     16  N   UNL     1       3.743   1.239  18.369  0.00  0.00    +0.000 NA
ENDBRANCH   8  15
BRANCH   9  17
ATOM     17  O   UNL     1       4.134   4.774  17.745  0.00  0.00    +0.000 OA
BRANCH  17  18
ATOM     18  C   UNL     1       5.480   4.994  18.216  0.00  0.00    +0.000 C 
BRANCH  18  19
ATOM     19  C   UNL     1       6.416   5.443  17.082  0.00  0.00    +0.000 C 
BRANCH  19  20
ATOM     20  N   UNL     1       7.618   6.154  17.574  0.00  0.00    +0.000 NA
ATOM     21  C   UNL     1       7.483   7.609  17.485  0.00  0.00    +0.000 C 
ATOM     22  C   UNL     1       7.933   5.766  18.948  0.00  0.00    +0.000 C 
ENDBRANCH  19  20
ENDBRANCH  18  19
ENDBRANCH  17  18
ENDBRANCH   9  17
TORSDOF 6
ENDMDL
