MODEL 1
REMARK VINA RESULT:      -8.2      0.000      0.000
REMARK  Name = 
REMARK  4 active torsions:
REMARK  status: ('A' for Active; 'I' for Inactive)
REMARK    1  A    between atoms: C_5  and  C_6
REMARK    2  A    between atoms: C_9  and  C_10
REMARK    3  A    between atoms: C_10  and  C_11
REMARK    4  A    between atoms: C_10  and  C_12
REMARK                            x       y       z     vdW  Elec       q    Type
REMARK                         _______ _______ _______ _____ _____    ______ ____
ROOT
ATOM      1  C   UNL     1       6.139   4.430  16.232  0.00  0.00    +0.000 C 
ATOM      2  C   UNL     1       5.972   3.697  15.137  0.00  0.00    +0.000 C 
ATOM      3  C   UNL     1       6.598   4.318  14.030  0.00  0.00    +0.000 C 
ATOM      4  C   UNL     1       6.523   3.939  12.747  0.00  0.00    +0.000 C 
ATOM      5  O   UNL     1       7.296   5.437  14.455  0.00  0.00    +0.000 OA
ATOM      6  C   UNL     1       7.017   5.533  15.800  0.00  0.00    +0.000 C 
ATOM      7  O   UNL     1       7.449   6.404  16.534  0.00  0.00    +0.000 OA
ENDROOT
BRANCH   1  12
ATOM      8  C   UNL     1       1.486   4.968  18.151  0.00  0.00    +0.000 C 
ATOM      9  C   UNL     1       2.737   4.800  17.695  0.00  0.00    +0.000 C 
ATOM     10  C   UNL     1       3.737   5.928  17.652  0.00  0.00    +0.000 C 
ATOM     11  C   UNL     1       5.073   5.507  18.268  0.00  0.00    +0.000 C 
ATOM     12  C   UNL     1       5.648   4.222  17.638  0.00  0.00    +0.000 C 
ATOM     13  C   UNL     1       4.593   3.097  17.766  0.00  0.00    +0.000 C 
ATOM     14  C   UNL     1       3.221   3.469  17.186  0.00  0.00    +0.000 C 
ENDBRANCH   1  12
BRANCH   4  15
ATOM     15  C   UNL     1       5.663   2.801  12.237  0.00  0.00    +0.000 C 
ATOM     16  C   UNL     1       4.485   3.288  11.400  0.00  0.00    +0.000 C 
BRANCH  15  17
ATOM     17  C   UNL     1       6.496   1.768  11.475  0.00  0.00    +0.000 C 
ATOM     18  N   UNL     1       5.961   0.524  11.329  0.00  0.00    +0.000 N 
ATOM     19  O   UNL     1       7.606   2.027  11.015  0.00  0.00    +0.000 OA
ATOM     20  H   UNL     1       4.998   0.311  11.548  0.00  0.00    +0.000 HD
ATOM     21  H   UNL     1       6.494  -0.149  10.795  0.00  0.00    +0.000 HD
ENDBRANCH  15  17
ENDBRANCH   4  15
TORSDOF 3
ENDMDL
MODEL 2
REMARK VINA RESULT:      -7.7      0.902      1.843
REMARK  Name = 
REMARK  4 active torsions:
REMARK  status: ('A' for Active; 'I' for Inactive)
REMARK    1  A    between atoms: C_5  and  C_6
REMARK    2  A    between atoms: C_9  and  C_10
REMARK    3  A    between atoms: C_10  and  C_11
REMARK    4  A    between atoms: C_10  and  C_12
REMARK                            x       y       z     vdW  Elec       q    Type
REMARK                         _______ _______ _______ _____ _____    ______ ____
ROOT
ATOM      1  C   UNL     1       5.257   5.143  15.990  0.00  0.00    +0.000 C 
ATOM      2  C   UNL     1       5.274   4.250  15.006  0.00  0.00    +0.000 C 
ATOM      3  C   UNL     1       6.410   4.445  14.185  0.00  0.00    +0.000 C 
ATOM      4  C   UNL     1       6.683   3.824  13.030  0.00  0.00    +0.000 C 
ATOM      5  O   UNL     1       7.218   5.429  14.731  0.00  0.00    +0.000 OA
ATOM      6  C   UNL     1       6.523   5.881  15.831  0.00  0.00    +0.000 C 
ATOM      7  O   UNL     1       6.910   6.763  16.578  0.00  0.00    +0.000 OA
ENDROOT
BRANCH   1  12
ATOM      8  C   UNL     1       4.301   2.366  20.112  0.00  0.00    +0.000 C 
ATOM      9  C   UNL     1       4.518   3.145  19.042  0.00  0.00    +0.000 C 
ATOM     10  C   UNL     1       3.806   2.931  17.731  0.00  0.00    +0.000 C 
ATOM     11  C   UNL     1       3.216   4.239  17.199  0.00  0.00    +0.000 C 
ATOM     12  C   UNL     1       4.261   5.370  17.092  0.00  0.00    +0.000 C 
ATOM     13  C   UNL     1       4.911   5.572  18.483  0.00  0.00    +0.000 C 
ATOM     14  C   UNL     1       5.499   4.286  19.081  0.00  0.00    +0.000 C 
ENDBRANCH   1  12
BRANCH   4  15
ATOM     15  C   UNL     1       5.757   2.841  12.343  0.00  0.00    +0.000 C 
ATOM     16  C   UNL     1       4.678   3.535  11.519  0.00  0.00    +0.000 C 
BRANCH  15  17
ATOM     17  C   UNL     1       6.538   1.833  11.498  0.00  0.00    +0.000 C 
ATOM     18  N   UNL     1       6.012   0.582  11.382  0.00  0.00    +0.000 N 
ATOM     19  O   UNL     1       7.600   2.116  10.949  0.00  0.00    +0.000 OA
ATOM     20  H   UNL     1       5.075   0.350  11.680  0.00  0.00    +0.000 HD
ATOM     21  H   UNL     1       6.508  -0.076  10.795  0.00  0.00    +0.000 HD
ENDBRANCH  15  17
ENDBRANCH   4  15
TORSDOF 3
ENDMDL
MODEL 3
REMARK VINA RESULT:      -7.3      4.770      7.150
REMARK  Name = 
REMARK  4 active torsions:
REMARK  status: ('A' for Active; 'I' for Inactive)
REMARK    1  A    between atoms: C_5  and  C_6
REMARK    2  A    between atoms: C_9  and  C_10
REMARK    3  A    between atoms: C_10  and  C_11
REMARK    4  A    between atoms: C_10  and  C_12
REMARK                            x       y       z     vdW  Elec       q    Type
REMARK                         _______ _______ _______ _____ _____    ______ ____
ROOT
ATOM      1  C   UNL     1       3.029   4.735  17.830  0.00  0.00    +0.000 C 
ATOM      2  C   UNL     1       2.319   5.836  18.047  0.00  0.00    +0.000 C 
ATOM      3  C   UNL     1       3.088   6.984  17.737  0.00  0.00    +0.000 C 
ATOM      4  C   UNL     1       2.750   8.262  17.960  0.00  0.00    +0.000 C 
ATOM      5  O   UNL     1       4.301   6.601  17.188  0.00  0.00    +0.000 OA
ATOM      6  C   UNL     1       4.292   5.225  17.249  0.00  0.00    +0.000 C 
ATOM      7  O   UNL     1       5.201   4.511  16.862  0.00  0.00    +0.000 OA
ENDROOT
BRANCH   1  12
ATOM      8  C   UNL     1       1.444   2.333  21.995  0.00  0.00    +0.000 C 
ATOM      9  C   UNL     1       1.852   2.920  20.859  0.00  0.00    +0.000 C 
ATOM     10  C   UNL     1       3.311   3.061  20.504  0.00  0.00    +0.000 C 
ATOM     11  C   UNL     1       3.581   2.591  19.073  0.00  0.00    +0.000 C 
ATOM     12  C   UNL     1       2.680   3.286  18.031  0.00  0.00    +0.000 C 
ATOM     13  C   UNL     1       1.202   3.054  18.427  0.00  0.00    +0.000 C 
ATOM     14  C   UNL     1       0.873   3.484  19.864  0.00  0.00    +0.000 C 
ENDBRANCH   1  12
BRANCH   4  15
ATOM     15  C   UNL     1       1.491   8.705  18.677  0.00  0.00    +0.000 C 
ATOM     16  C   UNL     1       1.587   8.531  20.188  0.00  0.00    +0.000 C 
BRANCH  15  17
ATOM     17  C   UNL     1       1.112  10.140  18.306  0.00  0.00    +0.000 C 
ATOM     18  N   UNL     1       2.114  10.953  17.870  0.00  0.00    +0.000 N 
ATOM     19  O   UNL     1      -0.038  10.563  18.399  0.00  0.00    +0.000 OA
ATOM     20  H   UNL     1       3.034  10.611  17.629  0.00  0.00    +0.000 HD
ATOM     21  H   UNL     1       1.860  11.892  17.590  0.00  0.00    +0.000 HD
ENDBRANCH  15  17
ENDBRANCH   4  15
TORSDOF 3
ENDMDL
MODEL 4
REMARK VINA RESULT:      -7.3      3.978      6.796
REMARK  Name = 
REMARK  4 active torsions:
REMARK  status: ('A' for Active; 'I' for Inactive)
REMARK    1  A    between atoms: C_5  and  C_6
REMARK    2  A    between atoms: C_9  and  C_10
REMARK    3  A    between atoms: C_10  and  C_11
REMARK    4  A    between atoms: C_10  and  C_12
REMARK                            x       y       z     vdW  Elec       q    Type
REMARK                         _______ _______ _______ _____ _____    ______ ____
ROOT
ATOM      1  C   UNL     1       5.607   4.360  17.324  0.00  0.00    +0.000 C 
ATOM      2  C   UNL     1       4.855   4.332  18.418  0.00  0.00    +0.000 C 
ATOM      3  C   UNL     1       3.496   4.134  18.074  0.00  0.00    +0.000 C 
ATOM      4  C   UNL     1       2.442   4.186  18.901  0.00  0.00    +0.000 C 
ATOM      5  O   UNL     1       3.386   3.910  16.712  0.00  0.00    +0.000 OA
ATOM      6  C   UNL     1       4.667   4.058  16.229  0.00  0.00    +0.000 C 
ATOM      7  O   UNL     1       4.982   3.942  15.057  0.00  0.00    +0.000 OA
ENDROOT
BRANCH   1  12
ATOM      8  C   UNL     1       8.448   8.409  18.403  0.00  0.00    +0.000 C 
ATOM      9  C   UNL     1       7.745   7.304  18.107  0.00  0.00    +0.000 C 
ATOM     10  C   UNL     1       7.090   7.102  16.764  0.00  0.00    +0.000 C 
ATOM     11  C   UNL     1       7.421   5.724  16.187  0.00  0.00    +0.000 C 
ATOM     12  C   UNL     1       7.086   4.570  17.155  0.00  0.00    +0.000 C 
ATOM     13  C   UNL     1       7.834   4.814  18.488  0.00  0.00    +0.000 C 
ATOM     14  C   UNL     1       7.561   6.193  19.105  0.00  0.00    +0.000 C 
ENDBRANCH   1  12
BRANCH   4  15
ATOM     15  C   UNL     1       2.517   4.559  20.367  0.00  0.00    +0.000 C 
ATOM     16  C   UNL     1       1.893   5.919  20.657  0.00  0.00    +0.000 C 
BRANCH  15  17
ATOM     17  C   UNL     1       1.911   3.469  21.253  0.00  0.00    +0.000 C 
ATOM     18  N   UNL     1       0.730   2.924  20.845  0.00  0.00    +0.000 N 
ATOM     19  O   UNL     1       2.443   3.094  22.295  0.00  0.00    +0.000 OA
ATOM     20  H   UNL     1       0.339   3.084  19.928  0.00  0.00    +0.000 HD
ATOM     21  H   UNL     1       0.346   2.178  21.410  0.00  0.00    +0.000 HD
ENDBRANCH  15  17
ENDBRANCH   4  15
TORSDOF 3
ENDMDL
MODEL 5
REMARK VINA RESULT:      -7.2      1.079      1.577
REMARK  Name = 
REMARK  4 active torsions:
REMARK  status: ('A' for Active; 'I' for Inactive)
REMARK    1  A    between atoms: C_5  and  C_6
REMARK    2  A    between atoms: C_9  and  C_10
REMARK    3  A    between atoms: C_10  and  C_11
REMARK    4  A    between atoms: C_10  and  C_12
REMARK                            x       y       z     vdW  Elec       q    Type
REMARK                         _______ _______ _______ _____ _____    ______ ____
ROOT
ATOM      1  C   UNL     1       5.688   5.046  16.299  0.00  0.00    +0.000 C 
ATOM      2  C   UNL     1       5.519   4.217  15.275  0.00  0.00    +0.000 C 
ATOM      3  C   UNL     1       6.521   4.434  14.298  0.00  0.00    +0.000 C 
ATOM      4  C   UNL     1       6.589   3.880  13.080  0.00  0.00    +0.000 C 
ATOM      5  O   UNL     1       7.439   5.360  14.767  0.00  0.00    +0.000 OA
ATOM      6  C   UNL     1       6.940   5.759  15.987  0.00  0.00    +0.000 C 
ATOM      7  O   UNL     1       7.469   6.582  16.714  0.00  0.00    +0.000 OA
ENDROOT
BRANCH   1  12
ATOM      8  C   UNL     1       2.546   1.834  18.630  0.00  0.00    +0.000 C 
ATOM      9  C   UNL     1       3.375   2.723  18.060  0.00  0.00    +0.000 C 
ATOM     10  C   UNL     1       2.913   3.689  16.999  0.00  0.00    +0.000 C 
ATOM     11  C   UNL     1       3.363   5.117  17.316  0.00  0.00    +0.000 C 
ATOM     12  C   UNL     1       4.884   5.230  17.556  0.00  0.00    +0.000 C 
ATOM     13  C   UNL     1       5.276   4.253  18.691  0.00  0.00    +0.000 C 
ATOM     14  C   UNL     1       4.828   2.806  18.441  0.00  0.00    +0.000 C 
ENDBRANCH   1  12
BRANCH   4  15
ATOM     15  C   UNL     1       5.532   2.968  12.491  0.00  0.00    +0.000 C 
ATOM     16  C   UNL     1       4.461   3.734  11.724  0.00  0.00    +0.000 C 
BRANCH  15  17
ATOM     17  C   UNL     1       6.159   1.873  11.625  0.00  0.00    +0.000 C 
ATOM     18  N   UNL     1       7.480   2.002  11.321  0.00  0.00    +0.000 N 
ATOM     19  O   UNL     1       5.514   0.915  11.205  0.00  0.00    +0.000 OA
ATOM     20  H   UNL     1       8.083   2.679  11.767  0.00  0.00    +0.000 HD
ATOM     21  H   UNL     1       7.905   1.261  10.779  0.00  0.00    +0.000 HD
ENDBRANCH  15  17
ENDBRANCH   4  15
TORSDOF 3
ENDMDL
MODEL 6
REMARK VINA RESULT:      -7.2      3.729      6.462
REMARK  Name = 
REMARK  4 active torsions:
REMARK  status: ('A' for Active; 'I' for Inactive)
REMARK    1  A    between atoms: C_5  and  C_6
REMARK    2  A    between atoms: C_9  and  C_10
REMARK    3  A    between atoms: C_10  and  C_11
REMARK    4  A    between atoms: C_10  and  C_12
REMARK                            x       y       z     vdW  Elec       q    Type
REMARK                         _______ _______ _______ _____ _____    ______ ____
ROOT
ATOM      1  C   UNL     1       4.348   5.997  18.078  0.00  0.00    +0.000 C 
ATOM      2  C   UNL     1       3.720   4.931  18.563  0.00  0.00    +0.000 C 
ATOM      3  C   UNL     1       2.443   5.296  19.055  0.00  0.00    +0.000 C 
ATOM      4  C   UNL     1       1.591   4.515  19.733  0.00  0.00    +0.000 C 
ATOM      5  O   UNL     1       2.194   6.628  18.769  0.00  0.00    +0.000 OA
ATOM      6  C   UNL     1       3.354   7.082  18.182  0.00  0.00    +0.000 C 
ATOM      7  O   UNL     1       3.530   8.223  17.790  0.00  0.00    +0.000 OA
ENDROOT
BRANCH   1  12
ATOM      8  C   UNL     1       6.285   3.897  13.900  0.00  0.00    +0.000 C 
ATOM      9  C   UNL     1       5.821   4.488  15.012  0.00  0.00    +0.000 C 
ATOM     10  C   UNL     1       5.912   3.838  16.369  0.00  0.00    +0.000 C 
ATOM     11  C   UNL     1       6.485   4.803  17.409  0.00  0.00    +0.000 C 
ATOM     12  C   UNL     1       5.718   6.140  17.477  0.00  0.00    +0.000 C 
ATOM     13  C   UNL     1       5.712   6.775  16.066  0.00  0.00    +0.000 C 
ATOM     14  C   UNL     1       5.170   5.844  14.972  0.00  0.00    +0.000 C 
ENDBRANCH   1  12
BRANCH   4  15
ATOM     15  C   UNL     1       1.890   3.097  20.175  0.00  0.00    +0.000 C 
ATOM     16  C   UNL     1       1.274   2.765  21.530  0.00  0.00    +0.000 C 
BRANCH  15  17
ATOM     17  C   UNL     1       1.472   2.080  19.111  0.00  0.00    +0.000 C 
ATOM     18  N   UNL     1       2.462   1.339  18.538  0.00  0.00    +0.000 N 
ATOM     19  O   UNL     1       0.303   1.929  18.766  0.00  0.00    +0.000 OA
ATOM     20  H   UNL     1       3.407   1.316  18.895  0.00  0.00    +0.000 HD
ATOM     21  H   UNL     1       2.184   0.641  17.861  0.00  0.00    +0.000 HD
ENDBRANCH  15  17
ENDBRANCH   4  15
TORSDOF 3
ENDMDL
MODEL 7
REMARK VINA RESULT:      -7.1      1.366      1.674
REMARK  Name = 
REMARK  4 active torsions:
REMARK  status: ('A' for Active; 'I' for Inactive)
REMARK    1  A    between atoms: C_5  and  C_6
REMARK    2  A    between atoms: C_9  and  C_10
REMARK    3  A    between atoms: C_10  and  C_11
REMARK    4  A    between atoms: C_10  and  C_12
REMARK                            x       y       z     vdW  Elec       q    Type
REMARK                         _______ _______ _______ _____ _____    ______ ____
ROOT
ATOM      1  C   UNL     1       6.098   4.954  17.708  0.00  0.00    +0.000 C 
ATOM      2  C   UNL     1       6.094   4.332  16.535  0.00  0.00    +0.000 C 
ATOM      3  C   UNL     1       6.943   5.002  15.621  0.00  0.00    +0.000 C 
ATOM      4  C   UNL     1       7.082   4.741  14.314  0.00  0.00    +0.000 C 
ATOM      5  O   UNL     1       7.610   6.028  16.269  0.00  0.00    +0.000 OA
ATOM      6  C   UNL     1       7.096   6.027  17.547  0.00  0.00    +0.000 C 
ATOM      7  O   UNL     1       7.433   6.800  18.427  0.00  0.00    +0.000 OA
ENDROOT
BRANCH   1  12
ATOM      8  C   UNL     1       1.245   3.685  18.388  0.00  0.00    +0.000 C 
ATOM      9  C   UNL     1       2.542   4.009  18.267  0.00  0.00    +0.000 C 
ATOM     10  C   UNL     1       3.017   5.440  18.261  0.00  0.00    +0.000 C 
ATOM     11  C   UNL     1       4.185   5.640  19.229  0.00  0.00    +0.000 C 
ATOM     12  C   UNL     1       5.350   4.659  18.979  0.00  0.00    +0.000 C 
ATOM     13  C   UNL     1       4.801   3.214  19.053  0.00  0.00    +0.000 C 
ATOM     14  C   UNL     1       3.609   2.958  18.120  0.00  0.00    +0.000 C 
ENDBRANCH   1  12
BRANCH   4  15
ATOM     15  C   UNL     1       6.271   3.713  13.552  0.00  0.00    +0.000 C 
ATOM     16  C   UNL     1       4.795   4.084  13.462  0.00  0.00    +0.000 C 
BRANCH  15  17
ATOM     17  C   UNL     1       6.863   3.449  12.166  0.00  0.00    +0.000 C 
ATOM     18  N   UNL     1       6.758   2.181  11.678  0.00  0.00    +0.000 N 
ATOM     19  O   UNL     1       7.421   4.325  11.510  0.00  0.00    +0.000 OA
ATOM     20  H   UNL     1       6.177   1.474  12.105  0.00  0.00    +0.000 HD
ATOM     21  H   UNL     1       7.117   2.013  10.747  0.00  0.00    +0.000 HD
ENDBRANCH  15  17
ENDBRANCH   4  15
TORSDOF 3
ENDMDL
MODEL 8
REMARK VINA RESULT:      -7.0      4.451      6.637
REMARK  Name = 
REMARK  4 active torsions:
REMARK  status: ('A' for Active; 'I' for Inactive)
REMARK    1  A    between atoms: C_5  and  C_6
REMARK    2  A    between atoms: C_9  and  C_10
REMARK    3  A    between atoms: C_10  and  C_11
REMARK    4  A    between atoms: C_10  and  C_12
REMARK                            x       y       z     vdW  Elec       q    Type
REMARK                         _______ _______ _______ _____ _____    ______ ____
ROOT
ATOM      1  C   UNL     1       3.588   6.320  17.786  0.00  0.00    +0.000 C 
ATOM      2  C   UNL     1       3.130   5.210  18.352  0.00  0.00    +0.000 C 
ATOM      3  C   UNL     1       2.103   5.518  19.278  0.00  0.00    +0.000 C 
ATOM      4  C   UNL     1       1.507   4.670  20.128  0.00  0.00    +0.000 C 
ATOM      5  O   UNL     1       1.809   6.870  19.217  0.00  0.00    +0.000 OA
ATOM      6  C   UNL     1       2.717   7.385  18.319  0.00  0.00    +0.000 C 
ATOM      7  O   UNL     1       2.783   8.559  17.999  0.00  0.00    +0.000 OA
ENDROOT
BRANCH   1  12
ATOM      8  C   UNL     1       8.244   4.344  17.597  0.00  0.00    +0.000 C 
ATOM      9  C   UNL     1       7.018   4.891  17.592  0.00  0.00    +0.000 C 
ATOM     10  C   UNL     1       6.709   6.185  18.300  0.00  0.00    +0.000 C 
ATOM     11  C   UNL     1       5.952   7.151  17.386  0.00  0.00    +0.000 C 
ATOM     12  C   UNL     1       4.680   6.528  16.774  0.00  0.00    +0.000 C 
ATOM     13  C   UNL     1       5.079   5.238  16.019  0.00  0.00    +0.000 C 
ATOM     14  C   UNL     1       5.865   4.237  16.878  0.00  0.00    +0.000 C 
ENDBRANCH   1  12
BRANCH   4  15
ATOM     15  C   UNL     1       1.898   3.218  20.309  0.00  0.00    +0.000 C 
ATOM     16  C   UNL     1       1.466   2.661  21.661  0.00  0.00    +0.000 C 
BRANCH  15  17
ATOM     17  C   UNL     1       1.378   2.352  19.160  0.00  0.00    +0.000 C 
ATOM     18  N   UNL     1       2.292   1.592  18.493  0.00  0.00    +0.000 N 
ATOM     19  O   UNL     1       0.194   2.335  18.830  0.00  0.00    +0.000 OA
ATOM     20  H   UNL     1       3.236   1.454  18.823  0.00  0.00    +0.000 HD
ATOM     21  H   UNL     1       1.945   0.992  17.756  0.00  0.00    +0.000 HD
ENDBRANCH  15  17
ENDBRANCH   4  15
TORSDOF 3
ENDMDL
MODEL 9
REMARK VINA RESULT:      -7.0      5.263      7.870
REMARK  Name = 
REMARK  4 active torsions:
REMARK  status: ('A' for Active; 'I' for Inactive)
REMARK    1  A    between atoms: C_5  and  C_6
REMARK    2  A    between atoms: C_9  and  C_10
REMARK    3  A    between atoms: C_10  and  C_11
REMARK    4  A    between atoms: C_10  and  C_12
REMARK                            x       y       z     vdW  Elec       q    Type
REMARK                         _______ _______ _______ _____ _____    ______ ____
ROOT
ATOM      1  C   UNL     1       3.184   6.606  18.560  0.00  0.00    +0.000 C 
ATOM      2  C   UNL     1       2.149   7.393  18.832  0.00  0.00    +0.000 C 
ATOM      3  C   UNL     1       2.180   8.546  18.010  0.00  0.00    +0.000 C 
ATOM      4  C   UNL     1       1.377   9.616  18.097  0.00  0.00    +0.000 C 
ATOM      5  O   UNL     1       3.212   8.439  17.092  0.00  0.00    +0.000 OA
ATOM      6  C   UNL     1       3.850   7.263  17.421  0.00  0.00    +0.000 C 
ATOM      7  O   UNL     1       4.826   6.822  16.839  0.00  0.00    +0.000 OA
ENDROOT
BRANCH   1  12
ATOM      8  C   UNL     1       0.694   2.210  18.865  0.00  0.00    +0.000 C 
ATOM      9  C   UNL     1       1.404   3.348  18.805  0.00  0.00    +0.000 C 
ATOM     10  C   UNL     1       1.311   4.413  19.867  0.00  0.00    +0.000 C 
ATOM     11  C   UNL     1       2.700   4.855  20.333  0.00  0.00    +0.000 C 
ATOM     12  C   UNL     1       3.611   5.300  19.169  0.00  0.00    +0.000 C 
ATOM     13  C   UNL     1       3.704   4.141  18.148  0.00  0.00    +0.000 C 
ATOM     14  C   UNL     1       2.339   3.636  17.661  0.00  0.00    +0.000 C 
ENDBRANCH   1  12
BRANCH   4  15
ATOM     15  C   UNL     1       0.328   9.819  19.171  0.00  0.00    +0.000 C 
ATOM     16  C   UNL     1       0.852  10.624  20.355  0.00  0.00    +0.000 C 
BRANCH  15  17
ATOM     17  C   UNL     1      -0.946  10.439  18.597  0.00  0.00    +0.000 C 
ATOM     18  N   UNL     1      -1.280  10.103  17.320  0.00  0.00    +0.000 N 
ATOM     19  O   UNL     1      -1.648  11.217  19.240  0.00  0.00    +0.000 OA
ATOM     20  H   UNL     1      -0.827   9.356  16.813  0.00  0.00    +0.000 HD
ATOM     21  H   UNL     1      -2.141  10.484  16.951  0.00  0.00    +0.000 HD
ENDBRANCH  15  17
ENDBRANCH   4  15
TORSDOF 3
ENDMDL
