MODEL 1
REMARK VINA RESULT:      -7.5      0.000      0.000
REMARK  Name = 
REMARK  10 active torsions:
REMARK  status: ('A' for Active; 'I' for Inactive)
REMARK    1  A    between atoms: C_1  and  C_2
REMARK    2  A    between atoms: C_2  and  N_3
REMARK    3  A    between atoms: C_2  and  C_9
REMARK    4  A    between atoms: C_4  and  C_6
REMARK    5  A    between atoms: C_6  and  C_7
REMARK    6  A    between atoms: C_12  and  C_13
REMARK    7  A    between atoms: C_13  and  N_14
REMARK    8  A    between atoms: C_19  and  O_20
REMARK    9  A    between atoms: O_20  and  C_21
REMARK   10  A    between atoms: C_21  and  C_22
REMARK                            x       y       z     vdW  Elec       q    Type
REMARK                         _______ _______ _______ _____ _____    ______ ____
ROOT
ATOM      1  C   UNL     1      -0.077  11.997  21.784  0.00  0.00    +0.000 C 
ENDROOT
BRANCH   1   2
ATOM      2  N   UNL     1       0.074  10.786  20.991  0.00  0.00    +0.000 NA
ATOM      3  C   UNL     1       0.924  10.814  19.801  0.00  0.00    +0.000 C 
ATOM      4  C   UNL     1       1.489   9.450  19.384  0.00  0.00    +0.000 A 
ATOM      5  C   UNL     1       1.842   9.180  18.058  0.00  0.00    +0.000 A 
ATOM      6  C   UNL     1       2.277   7.896  17.688  0.00  0.00    +0.000 A 
ATOM      7  C   UNL     1       2.386   6.871  18.632  0.00  0.00    +0.000 A 
ATOM      8  C   UNL     1       2.105   7.150  19.965  0.00  0.00    +0.000 A 
ATOM      9  C   UNL     1       1.640   8.418  20.332  0.00  0.00    +0.000 A 
ATOM     10  C   UNL     1       1.167   8.675  21.739  0.00  0.00    +0.000 C 
ATOM     11  F   UNL     1       2.078   9.373  22.473  0.00  0.00    +0.000 F 
ATOM     12  C   UNL     1      -0.137   9.475  21.597  0.00  0.00    +0.000 C 
BRANCH   7  13
ATOM     13  O   UNL     1       2.780   5.646  18.157  0.00  0.00    +0.000 OA
BRANCH  13  14
ATOM     14  C   UNL     1       2.692   4.570  19.099  0.00  0.00    +0.000 C 
BRANCH  14  15
ATOM     15  C   UNL     1       1.351   3.913  18.977  0.00  0.00    +0.000 C 
ATOM     16  C   UNL     1       1.245   2.440  18.671  0.00  0.00    +0.000 C 
ATOM     17  C   UNL     1       0.888   2.945  20.040  0.00  0.00    +0.000 C 
ENDBRANCH  14  15
ENDBRANCH  13  14
ENDBRANCH   7  13
ENDBRANCH   1   2
BRANCH   1  21
ATOM     18  C   UNL     1      -4.324  12.872  22.294  0.00  0.00    +0.000 A 
ATOM     19  C   UNL     1      -3.647  13.176  21.109  0.00  0.00    +0.000 A 
ATOM     20  C   UNL     1      -2.288  12.931  20.949  0.00  0.00    +0.000 A 
ATOM     21  C   UNL     1      -1.515  12.402  21.998  0.00  0.00    +0.000 A 
ATOM     22  C   UNL     1      -2.162  12.200  23.227  0.00  0.00    +0.000 A 
ATOM     23  C   UNL     1      -3.560  12.391  23.357  0.00  0.00    +0.000 A 
BRANCH  18  25
ATOM     24  C   UNL     1      -6.384  13.110  23.813  0.00  0.00    +0.000 C 
ATOM     25  C   UNL     1      -5.840  13.003  22.381  0.00  0.00    +0.000 C 
BRANCH  25  26
ATOM     26  N   UNL     1      -6.470  11.882  21.684  0.00  0.00    +0.000 N 
ATOM     27  C   UNL     1      -6.938  12.014  20.390  0.00  0.00    +0.000 C 
ATOM     28  O   UNL     1      -6.824  13.058  19.749  0.00  0.00    +0.000 OA
ATOM     29  H   UNL     1      -6.341  10.961  22.082  0.00  0.00    +0.000 HD
BRANCH  27  30
ATOM     30  C   UNL     1      -7.606  10.789  19.797  0.00  0.00    +0.000 C 
BRANCH  30  31
ATOM     31  C   UNL     1      -7.771   9.775  20.918  0.00  0.00    +0.000 C 
ATOM     32  N   UNL     1      -7.908   8.934  21.849  0.00  0.00    +0.000 NA
ENDBRANCH  30  31
ENDBRANCH  27  30
ENDBRANCH  25  26
ENDBRANCH  18  25
ENDBRANCH   1  21
TORSDOF 9
ENDMDL
MODEL 2
REMARK VINA RESULT:      -7.3      3.102     10.642
REMARK  Name = 
REMARK  10 active torsions:
REMARK  status: ('A' for Active; 'I' for Inactive)
REMARK    1  A    between atoms: C_1  and  C_2
REMARK    2  A    between atoms: C_2  and  N_3
REMARK    3  A    between atoms: C_2  and  C_9
REMARK    4  A    between atoms: C_4  and  C_6
REMARK    5  A    between atoms: C_6  and  C_7
REMARK    6  A    between atoms: C_12  and  C_13
REMARK    7  A    between atoms: C_13  and  N_14
REMARK    8  A    between atoms: C_19  and  O_20
REMARK    9  A    between atoms: O_20  and  C_21
REMARK   10  A    between atoms: C_21  and  C_22
REMARK                            x       y       z     vdW  Elec       q    Type
REMARK                         _______ _______ _______ _____ _____    ______ ____
ROOT
ATOM      1  C   UNL     1       1.091  10.585  19.013  0.00  0.00    +0.000 C 
ENDROOT
BRANCH   1   2
ATOM      2  N   UNL     1      -0.270  10.708  19.515  0.00  0.00    +0.000 NA
ATOM      3  C   UNL     1      -0.549  11.658  20.591  0.00  0.00    +0.000 C 
ATOM      4  C   UNL     1      -2.002  12.148  20.654  0.00  0.00    +0.000 A 
ATOM      5  C   UNL     1      -2.572  12.592  21.850  0.00  0.00    +0.000 A 
ATOM      6  C   UNL     1      -3.929  12.955  21.897  0.00  0.00    +0.000 A 
ATOM      7  C   UNL     1      -4.731  12.901  20.752  0.00  0.00    +0.000 A 
ATOM      8  C   UNL     1      -4.154  12.528  19.544  0.00  0.00    +0.000 A 
ATOM      9  C   UNL     1      -2.811  12.134  19.499  0.00  0.00    +0.000 A 
ATOM     10  C   UNL     1      -2.229  11.563  18.233  0.00  0.00    +0.000 C 
ATOM     11  F   UNL     1      -1.444  12.458  17.574  0.00  0.00    +0.000 F 
ATOM     12  C   UNL     1      -1.404  10.343  18.672  0.00  0.00    +0.000 C 
BRANCH   7  13
ATOM     13  O   UNL     1      -6.050  13.237  20.918  0.00  0.00    +0.000 OA
BRANCH  13  14
ATOM     14  C   UNL     1      -6.327  14.083  22.040  0.00  0.00    +0.000 C 
BRANCH  14  15
ATOM     15  C   UNL     1      -7.418  13.472  22.864  0.00  0.00    +0.000 C 
ATOM     16  C   UNL     1      -7.098  12.772  24.161  0.00  0.00    +0.000 C 
ATOM     17  C   UNL     1      -7.805  14.097  24.184  0.00  0.00    +0.000 C 
ENDBRANCH  14  15
ENDBRANCH  13  14
ENDBRANCH   7  13
ENDBRANCH   1   2
BRANCH   1  21
ATOM     18  C   UNL     1       2.805   6.571  18.915  0.00  0.00    +0.000 A 
ATOM     19  C   UNL     1       2.802   7.397  17.788  0.00  0.00    +0.000 A 
ATOM     20  C   UNL     1       2.231   8.664  17.800  0.00  0.00    +0.000 A 
ATOM     21  C   UNL     1       1.582   9.159  18.946  0.00  0.00    +0.000 A 
ATOM     22  C   UNL     1       1.481   8.293  20.045  0.00  0.00    +0.000 A 
ATOM     23  C   UNL     1       2.125   7.030  20.042  0.00  0.00    +0.000 A 
BRANCH  18  25
ATOM     24  C   UNL     1       3.210   4.307  20.065  0.00  0.00    +0.000 C 
ATOM     25  C   UNL     1       3.578   5.257  18.916  0.00  0.00    +0.000 C 
BRANCH  25  26
ATOM     26  N   UNL     1       5.015   5.534  18.932  0.00  0.00    +0.000 N 
ATOM     27  C   UNL     1       5.868   4.941  18.020  0.00  0.00    +0.000 C 
ATOM     28  O   UNL     1       5.470   4.182  17.138  0.00  0.00    +0.000 OA
ATOM     29  H   UNL     1       5.323   6.337  19.463  0.00  0.00    +0.000 HD
BRANCH  27  30
ATOM     30  C   UNL     1       7.339   5.280  18.170  0.00  0.00    +0.000 C 
BRANCH  30  31
ATOM     31  C   UNL     1       7.524   6.713  17.696  0.00  0.00    +0.000 C 
ATOM     32  N   UNL     1       7.677   7.902  17.302  0.00  0.00    +0.000 NA
ENDBRANCH  30  31
ENDBRANCH  27  30
ENDBRANCH  25  26
ENDBRANCH  18  25
ENDBRANCH   1  21
TORSDOF 9
ENDMDL
MODEL 3
REMARK VINA RESULT:      -7.3      1.606      2.570
REMARK  Name = 
REMARK  10 active torsions:
REMARK  status: ('A' for Active; 'I' for Inactive)
REMARK    1  A    between atoms: C_1  and  C_2
REMARK    2  A    between atoms: C_2  and  N_3
REMARK    3  A    between atoms: C_2  and  C_9
REMARK    4  A    between atoms: C_4  and  C_6
REMARK    5  A    between atoms: C_6  and  C_7
REMARK    6  A    between atoms: C_12  and  C_13
REMARK    7  A    between atoms: C_13  and  N_14
REMARK    8  A    between atoms: C_19  and  O_20
REMARK    9  A    between atoms: O_20  and  C_21
REMARK   10  A    between atoms: C_21  and  C_22
REMARK                            x       y       z     vdW  Elec       q    Type
REMARK                         _______ _______ _______ _____ _____    ______ ____
ROOT
ATOM      1  C   UNL     1      -0.401  11.921  20.851  0.00  0.00    +0.000 C 
ENDROOT
BRANCH   1   2
ATOM      2  N   UNL     1      -0.116  10.603  20.301  0.00  0.00    +0.000 NA
ATOM      3  C   UNL     1       0.912  10.467  19.270  0.00  0.00    +0.000 C 
ATOM      4  C   UNL     1       1.547   9.074  19.177  0.00  0.00    +0.000 A 
ATOM      5  C   UNL     1       2.109   8.605  17.986  0.00  0.00    +0.000 A 
ATOM      6  C   UNL     1       2.607   7.294  17.905  0.00  0.00    +0.000 A 
ATOM      7  C   UNL     1       2.573   6.439  19.010  0.00  0.00    +0.000 A 
ATOM      8  C   UNL     1       2.081   6.920  20.218  0.00  0.00    +0.000 A 
ATOM      9  C   UNL     1       1.554   8.214  20.295  0.00  0.00    +0.000 A 
ATOM     10  C   UNL     1       0.861   8.679  21.549  0.00  0.00    +0.000 C 
ATOM     11  F   UNL     1       1.637   9.517  22.290  0.00  0.00    +0.000 F 
ATOM     12  C   UNL     1      -0.410   9.401  21.076  0.00  0.00    +0.000 C 
BRANCH   7  13
ATOM     13  O   UNL     1       3.047   5.168  18.811  0.00  0.00    +0.000 OA
BRANCH  13  14
ATOM     14  C   UNL     1       3.331   4.429  20.005  0.00  0.00    +0.000 C 
BRANCH  14  15
ATOM     15  C   UNL     1       2.409   3.252  20.091  0.00  0.00    +0.000 C 
ATOM     16  C   UNL     1       1.954   2.731  21.431  0.00  0.00    +0.000 C 
ATOM     17  C   UNL     1       0.980   3.446  20.539  0.00  0.00    +0.000 C 
ENDBRANCH  14  15
ENDBRANCH  13  14
ENDBRANCH   7  13
ENDBRANCH   1   2
BRANCH   1  21
ATOM     18  C   UNL     1      -4.721  12.520  21.059  0.00  0.00    +0.000 A 
ATOM     19  C   UNL     1      -4.049  12.423  19.837  0.00  0.00    +0.000 A 
ATOM     20  C   UNL     1      -2.670  12.264  19.760  0.00  0.00    +0.000 A 
ATOM     21  C   UNL     1      -1.875  12.240  20.919  0.00  0.00    +0.000 A 
ATOM     22  C   UNL     1      -2.527  12.450  22.144  0.00  0.00    +0.000 A 
ATOM     23  C   UNL     1      -3.939  12.544  22.213  0.00  0.00    +0.000 A 
BRANCH  18  25
ATOM     24  C   UNL     1      -6.920  12.945  19.797  0.00  0.00    +0.000 C 
ATOM     25  C   UNL     1      -6.244  12.532  21.112  0.00  0.00    +0.000 C 
BRANCH  25  26
ATOM     26  N   UNL     1      -6.689  13.401  22.202  0.00  0.00    +0.000 N 
ATOM     27  C   UNL     1      -7.315  12.883  23.321  0.00  0.00    +0.000 C 
ATOM     28  O   UNL     1      -7.501  11.677  23.476  0.00  0.00    +0.000 OA
ATOM     29  H   UNL     1      -6.320  14.342  22.221  0.00  0.00    +0.000 HD
BRANCH  27  30
ATOM     30  C   UNL     1      -7.763  13.894  24.359  0.00  0.00    +0.000 C 
BRANCH  30  31
ATOM     31  C   UNL     1      -7.166  15.237  23.970  0.00  0.00    +0.000 C 
ATOM     32  N   UNL     1      -6.671  16.352  23.648  0.00  0.00    +0.000 NA
ENDBRANCH  30  31
ENDBRANCH  27  30
ENDBRANCH  25  26
ENDBRANCH  18  25
ENDBRANCH   1  21
TORSDOF 9
ENDMDL
MODEL 4
REMARK VINA RESULT:      -7.2      2.918      9.943
REMARK  Name = 
REMARK  10 active torsions:
REMARK  status: ('A' for Active; 'I' for Inactive)
REMARK    1  A    between atoms: C_1  and  C_2
REMARK    2  A    between atoms: C_2  and  N_3
REMARK    3  A    between atoms: C_2  and  C_9
REMARK    4  A    between atoms: C_4  and  C_6
REMARK    5  A    between atoms: C_6  and  C_7
REMARK    6  A    between atoms: C_12  and  C_13
REMARK    7  A    between atoms: C_13  and  N_14
REMARK    8  A    between atoms: C_19  and  O_20
REMARK    9  A    between atoms: O_20  and  C_21
REMARK   10  A    between atoms: C_21  and  C_22
REMARK                            x       y       z     vdW  Elec       q    Type
REMARK                         _______ _______ _______ _____ _____    ______ ____
ROOT
ATOM      1  C   UNL     1       1.158  10.488  18.749  0.00  0.00    +0.000 C 
ENDROOT
BRANCH   1   2
ATOM      2  N   UNL     1      -0.080  10.641  19.499  0.00  0.00    +0.000 NA
ATOM      3  C   UNL     1      -0.031  11.203  20.848  0.00  0.00    +0.000 C 
ATOM      4  C   UNL     1      -1.336  11.859  21.317  0.00  0.00    +0.000 A 
ATOM      5  C   UNL     1      -1.658  11.956  22.674  0.00  0.00    +0.000 A 
ATOM      6  C   UNL     1      -2.898  12.484  23.073  0.00  0.00    +0.000 A 
ATOM      7  C   UNL     1      -3.824  12.942  22.130  0.00  0.00    +0.000 A 
ATOM      8  C   UNL     1      -3.483  12.915  20.783  0.00  0.00    +0.000 A 
ATOM      9  C   UNL     1      -2.263  12.359  20.380  0.00  0.00    +0.000 A 
ATOM     10  C   UNL     1      -1.964  12.165  18.916  0.00  0.00    +0.000 C 
ATOM     11  F   UNL     1      -1.097  13.100  18.437  0.00  0.00    +0.000 F 
ATOM     12  C   UNL     1      -1.357  10.758  18.801  0.00  0.00    +0.000 C 
BRANCH   7  13
ATOM     13  O   UNL     1      -5.018  13.400  22.625  0.00  0.00    +0.000 OA
BRANCH  13  14
ATOM     14  C   UNL     1      -4.929  14.125  23.857  0.00  0.00    +0.000 C 
BRANCH  14  15
ATOM     15  C   UNL     1      -4.843  15.592  23.564  0.00  0.00    +0.000 C 
ATOM     16  C   UNL     1      -4.844  16.599  24.687  0.00  0.00    +0.000 C 
ATOM     17  C   UNL     1      -3.585  16.355  23.905  0.00  0.00    +0.000 C 
ENDBRANCH  14  15
ENDBRANCH  13  14
ENDBRANCH   7  13
ENDBRANCH   1   2
BRANCH   1  21
ATOM     18  C   UNL     1       2.936   6.500  18.752  0.00  0.00    +0.000 A 
ATOM     19  C   UNL     1       2.927   7.301  17.607  0.00  0.00    +0.000 A 
ATOM     20  C   UNL     1       2.336   8.558  17.586  0.00  0.00    +0.000 A 
ATOM     21  C   UNL     1       1.672   9.069  18.717  0.00  0.00    +0.000 A 
ATOM     22  C   UNL     1       1.578   8.226  19.834  0.00  0.00    +0.000 A 
ATOM     23  C   UNL     1       2.241   6.974  19.864  0.00  0.00    +0.000 A 
BRANCH  18  25
ATOM     24  C   UNL     1       4.297   4.767  17.428  0.00  0.00    +0.000 C 
ATOM     25  C   UNL     1       3.729   5.199  18.788  0.00  0.00    +0.000 C 
BRANCH  25  26
ATOM     26  N   UNL     1       2.899   4.134  19.350  0.00  0.00    +0.000 N 
ATOM     27  C   UNL     1       1.776   3.675  18.686  0.00  0.00    +0.000 C 
ATOM     28  O   UNL     1       1.435   4.108  17.586  0.00  0.00    +0.000 OA
ATOM     29  H   UNL     1       3.295   3.591  20.105  0.00  0.00    +0.000 HD
BRANCH  27  30
ATOM     30  C   UNL     1       0.980   2.597  19.395  0.00  0.00    +0.000 C 
BRANCH  30  31
ATOM     31  C   UNL     1       1.398   2.612  20.857  0.00  0.00    +0.000 C 
ATOM     32  N   UNL     1       1.744   2.626  22.071  0.00  0.00    +0.000 NA
ENDBRANCH  30  31
ENDBRANCH  27  30
ENDBRANCH  25  26
ENDBRANCH  18  25
ENDBRANCH   1  21
TORSDOF 9
ENDMDL
MODEL 5
REMARK VINA RESULT:      -7.2      8.681     10.914
REMARK  Name = 
REMARK  10 active torsions:
REMARK  status: ('A' for Active; 'I' for Inactive)
REMARK    1  A    between atoms: C_1  and  C_2
REMARK    2  A    between atoms: C_2  and  N_3
REMARK    3  A    between atoms: C_2  and  C_9
REMARK    4  A    between atoms: C_4  and  C_6
REMARK    5  A    between atoms: C_6  and  C_7
REMARK    6  A    between atoms: C_12  and  C_13
REMARK    7  A    between atoms: C_13  and  N_14
REMARK    8  A    between atoms: C_19  and  O_20
REMARK    9  A    between atoms: O_20  and  C_21
REMARK   10  A    between atoms: C_21  and  C_22
REMARK                            x       y       z     vdW  Elec       q    Type
REMARK                         _______ _______ _______ _____ _____    ______ ____
ROOT
ATOM      1  C   UNL     1       8.151   8.012  17.219  0.00  0.00    +0.000 C 
ENDROOT
BRANCH   1   2
ATOM      2  N   UNL     1       7.082   7.195  17.775  0.00  0.00    +0.000 NA
ATOM      3  C   UNL     1       5.706   7.425  17.334  0.00  0.00    +0.000 C 
ATOM      4  C   UNL     1       4.774   6.217  17.485  0.00  0.00    +0.000 A 
ATOM      5  C   UNL     1       3.393   6.374  17.635  0.00  0.00    +0.000 A 
ATOM      6  C   UNL     1       2.572   5.255  17.857  0.00  0.00    +0.000 A 
ATOM      7  C   UNL     1       3.109   3.965  17.912  0.00  0.00    +0.000 A 
ATOM      8  C   UNL     1       4.470   3.793  17.693  0.00  0.00    +0.000 A 
ATOM      9  C   UNL     1       5.297   4.907  17.505  0.00  0.00    +0.000 A 
ATOM     10  C   UNL     1       6.793   4.742  17.444  0.00  0.00    +0.000 C 
ATOM     11  F   UNL     1       7.272   4.828  16.173  0.00  0.00    +0.000 F 
ATOM     12  C   UNL     1       7.369   5.870  18.314  0.00  0.00    +0.000 C 
BRANCH   7  13
ATOM     13  O   UNL     1       2.225   2.950  18.174  0.00  0.00    +0.000 OA
BRANCH  13  14
ATOM     14  C   UNL     1       2.395   2.307  19.444  0.00  0.00    +0.000 C 
BRANCH  14  15
ATOM     15  C   UNL     1       1.512   2.971  20.457  0.00  0.00    +0.000 C 
ATOM     16  C   UNL     1       1.564   2.556  21.906  0.00  0.00    +0.000 C 
ATOM     17  C   UNL     1       2.114   3.890  21.492  0.00  0.00    +0.000 C 
ENDBRANCH  14  15
ENDBRANCH  13  14
ENDBRANCH   7  13
ENDBRANCH   1   2
BRANCH   1  21
ATOM     18  C   UNL     1       9.249  11.638  19.389  0.00  0.00    +0.000 A 
ATOM     19  C   UNL     1       9.394  10.368  19.956  0.00  0.00    +0.000 A 
ATOM     20  C   UNL     1       9.018   9.210  19.286  0.00  0.00    +0.000 A 
ATOM     21  C   UNL     1       8.425   9.267  18.011  0.00  0.00    +0.000 A 
ATOM     22  C   UNL     1       8.173  10.542  17.483  0.00  0.00    +0.000 A 
ATOM     23  C   UNL     1       8.621  11.711  18.147  0.00  0.00    +0.000 A 
BRANCH  18  25
ATOM     24  C   UNL     1      11.345  12.998  19.993  0.00  0.00    +0.000 C 
ATOM     25  C   UNL     1       9.818  12.870  20.082  0.00  0.00    +0.000 C 
BRANCH  25  26
ATOM     26  N   UNL     1       9.391  12.885  21.482  0.00  0.00    +0.000 N 
ATOM     27  C   UNL     1       8.849  14.022  22.053  0.00  0.00    +0.000 C 
ATOM     28  O   UNL     1       8.667  15.059  21.418  0.00  0.00    +0.000 OA
ATOM     29  H   UNL     1       9.287  11.991  21.941  0.00  0.00    +0.000 HD
BRANCH  27  30
ATOM     30  C   UNL     1       8.486  13.918  23.522  0.00  0.00    +0.000 C 
BRANCH  30  31
ATOM     31  C   UNL     1       8.118  12.468  23.797  0.00  0.00    +0.000 C 
ATOM     32  N   UNL     1       7.813  11.265  24.024  0.00  0.00    +0.000 NA
ENDBRANCH  30  31
ENDBRANCH  27  30
ENDBRANCH  25  26
ENDBRANCH  18  25
ENDBRANCH   1  21
TORSDOF 9
ENDMDL
MODEL 6
REMARK VINA RESULT:      -7.2      3.258      9.784
REMARK  Name = 
REMARK  10 active torsions:
REMARK  status: ('A' for Active; 'I' for Inactive)
REMARK    1  A    between atoms: C_1  and  C_2
REMARK    2  A    between atoms: C_2  and  N_3
REMARK    3  A    between atoms: C_2  and  C_9
REMARK    4  A    between atoms: C_4  and  C_6
REMARK    5  A    between atoms: C_6  and  C_7
REMARK    6  A    between atoms: C_12  and  C_13
REMARK    7  A    between atoms: C_13  and  N_14
REMARK    8  A    between atoms: C_19  and  O_20
REMARK    9  A    between atoms: O_20  and  C_21
REMARK   10  A    between atoms: C_21  and  C_22
REMARK                            x       y       z     vdW  Elec       q    Type
REMARK                         _______ _______ _______ _____ _____    ______ ____
ROOT
ATOM      1  C   UNL     1       1.592   9.938  18.117  0.00  0.00    +0.000 C 
ENDROOT
BRANCH   1   2
ATOM      2  N   UNL     1       0.451  10.096  19.009  0.00  0.00    +0.000 NA
ATOM      3  C   UNL     1       0.684  10.469  20.404  0.00  0.00    +0.000 C 
ATOM      4  C   UNL     1      -0.500  11.167  21.087  0.00  0.00    +0.000 A 
ATOM      5  C   UNL     1      -0.680  11.111  22.472  0.00  0.00    +0.000 A 
ATOM      6  C   UNL     1      -1.819  11.686  23.062  0.00  0.00    +0.000 A 
ATOM      7  C   UNL     1      -2.780  12.341  22.288  0.00  0.00    +0.000 A 
ATOM      8  C   UNL     1      -2.573  12.464  20.919  0.00  0.00    +0.000 A 
ATOM      9  C   UNL     1      -1.458  11.863  20.322  0.00  0.00    +0.000 A 
ATOM     10  C   UNL     1      -1.320  11.840  18.822  0.00  0.00    +0.000 C 
ATOM     11  F   UNL     1      -0.414  12.752  18.371  0.00  0.00    +0.000 F 
ATOM     12  C   UNL     1      -0.868  10.414  18.471  0.00  0.00    +0.000 C 
BRANCH   7  13
ATOM     13  O   UNL     1      -3.871  12.831  22.959  0.00  0.00    +0.000 OA
BRANCH  13  14
ATOM     14  C   UNL     1      -3.592  13.395  24.246  0.00  0.00    +0.000 C 
BRANCH  14  15
ATOM     15  C   UNL     1      -2.988  14.754  24.071  0.00  0.00    +0.000 C 
ATOM     16  C   UNL     1      -2.845  15.686  25.248  0.00  0.00    +0.000 C 
ATOM     17  C   UNL     1      -1.624  15.052  24.646  0.00  0.00    +0.000 C 
ENDBRANCH  14  15
ENDBRANCH  13  14
ENDBRANCH   7  13
ENDBRANCH   1   2
BRANCH   1  21
ATOM     18  C   UNL     1       3.465   6.013  18.497  0.00  0.00    +0.000 A 
ATOM     19  C   UNL     1       2.618   6.522  19.485  0.00  0.00    +0.000 A 
ATOM     20  C   UNL     1       2.042   7.784  19.388  0.00  0.00    +0.000 A 
ATOM     21  C   UNL     1       2.325   8.632  18.303  0.00  0.00    +0.000 A 
ATOM     22  C   UNL     1       3.262   8.174  17.364  0.00  0.00    +0.000 A 
ATOM     23  C   UNL     1       3.791   6.861  17.440  0.00  0.00    +0.000 A 
BRANCH  18  25
ATOM     24  C   UNL     1       4.302   3.965  17.188  0.00  0.00    +0.000 C 
ATOM     25  C   UNL     1       3.950   4.569  18.555  0.00  0.00    +0.000 C 
BRANCH  25  26
ATOM     26  N   UNL     1       2.948   3.743  19.229  0.00  0.00    +0.000 N 
ATOM     27  C   UNL     1       1.739   3.448  18.626  0.00  0.00    +0.000 C 
ATOM     28  O   UNL     1       1.454   3.832  17.493  0.00  0.00    +0.000 OA
ATOM     29  H   UNL     1       3.256   3.209  20.031  0.00  0.00    +0.000 HD
BRANCH  27  30
ATOM     30  C   UNL     1       0.774   2.616  19.448  0.00  0.00    +0.000 C 
BRANCH  30  31
ATOM     31  C   UNL     1       1.277   2.623  20.883  0.00  0.00    +0.000 C 
ATOM     32  N   UNL     1       1.694   2.628  22.074  0.00  0.00    +0.000 NA
ENDBRANCH  30  31
ENDBRANCH  27  30
ENDBRANCH  25  26
ENDBRANCH  18  25
ENDBRANCH   1  21
TORSDOF 9
ENDMDL
MODEL 7
REMARK VINA RESULT:      -7.1      3.165      9.840
REMARK  Name = 
REMARK  10 active torsions:
REMARK  status: ('A' for Active; 'I' for Inactive)
REMARK    1  A    between atoms: C_1  and  C_2
REMARK    2  A    between atoms: C_2  and  N_3
REMARK    3  A    between atoms: C_2  and  C_9
REMARK    4  A    between atoms: C_4  and  C_6
REMARK    5  A    between atoms: C_6  and  C_7
REMARK    6  A    between atoms: C_12  and  C_13
REMARK    7  A    between atoms: C_13  and  N_14
REMARK    8  A    between atoms: C_19  and  O_20
REMARK    9  A    between atoms: O_20  and  C_21
REMARK   10  A    between atoms: C_21  and  C_22
REMARK                            x       y       z     vdW  Elec       q    Type
REMARK                         _______ _______ _______ _____ _____    ______ ____
ROOT
ATOM      1  C   UNL     1       1.451  10.876  19.203  0.00  0.00    +0.000 C 
ENDROOT
BRANCH   1   2
ATOM      2  N   UNL     1       0.174  11.331  18.672  0.00  0.00    +0.000 NA
ATOM      3  C   UNL     1      -0.768  10.347  18.140  0.00  0.00    +0.000 C 
ATOM      4  C   UNL     1      -2.237  10.790  18.156  0.00  0.00    +0.000 A 
ATOM      5  C   UNL     1      -3.167  10.271  17.251  0.00  0.00    +0.000 A 
ATOM      6  C   UNL     1      -4.485  10.757  17.232  0.00  0.00    +0.000 A 
ATOM      7  C   UNL     1      -4.902  11.749  18.124  0.00  0.00    +0.000 A 
ATOM      8  C   UNL     1      -4.003  12.221  19.074  0.00  0.00    +0.000 A 
ATOM      9  C   UNL     1      -2.680  11.764  19.075  0.00  0.00    +0.000 A 
ATOM     10  C   UNL     1      -1.659  12.397  19.983  0.00  0.00    +0.000 C 
ATOM     11  F   UNL     1      -1.375  11.620  21.065  0.00  0.00    +0.000 F 
ATOM     12  C   UNL     1      -0.403  12.595  19.119  0.00  0.00    +0.000 C 
BRANCH   7  13
ATOM     13  O   UNL     1      -6.197  12.180  17.993  0.00  0.00    +0.000 OA
BRANCH  13  14
ATOM     14  C   UNL     1      -7.189  11.304  18.541  0.00  0.00    +0.000 C 
BRANCH  14  15
ATOM     15  C   UNL     1      -6.837  10.982  19.961  0.00  0.00    +0.000 C 
ATOM     16  C   UNL     1      -7.274  11.891  21.082  0.00  0.00    +0.000 C 
ATOM     17  C   UNL     1      -7.915  10.543  20.923  0.00  0.00    +0.000 C 
ENDBRANCH  14  15
ENDBRANCH  13  14
ENDBRANCH   7  13
ENDBRANCH   1   2
BRANCH   1  21
ATOM     18  C   UNL     1       2.393   6.626  18.868  0.00  0.00    +0.000 A 
ATOM     19  C   UNL     1       2.488   7.489  17.773  0.00  0.00    +0.000 A 
ATOM     20  C   UNL     1       2.159   8.837  17.861  0.00  0.00    +0.000 A 
ATOM     21  C   UNL     1       1.668   9.390  19.058  0.00  0.00    +0.000 A 
ATOM     22  C   UNL     1       1.463   8.507  20.130  0.00  0.00    +0.000 A 
ATOM     23  C   UNL     1       1.864   7.150  20.047  0.00  0.00    +0.000 A 
BRANCH  18  25
ATOM     24  C   UNL     1       3.511   4.658  20.087  0.00  0.00    +0.000 C 
ATOM     25  C   UNL     1       2.912   5.196  18.780  0.00  0.00    +0.000 C 
BRANCH  25  26
ATOM     26  N   UNL     1       3.892   5.096  17.698  0.00  0.00    +0.000 N 
ATOM     27  C   UNL     1       4.227   3.873  17.146  0.00  0.00    +0.000 C 
ATOM     28  O   UNL     1       3.706   2.819  17.506  0.00  0.00    +0.000 OA
ATOM     29  H   UNL     1       4.133   5.951  17.215  0.00  0.00    +0.000 HD
BRANCH  27  30
ATOM     30  C   UNL     1       5.285   3.903  16.060  0.00  0.00    +0.000 C 
BRANCH  30  31
ATOM     31  C   UNL     1       5.439   5.349  15.617  0.00  0.00    +0.000 C 
ATOM     32  N   UNL     1       5.568   6.550  15.249  0.00  0.00    +0.000 NA
ENDBRANCH  30  31
ENDBRANCH  27  30
ENDBRANCH  25  26
ENDBRANCH  18  25
ENDBRANCH   1  21
TORSDOF 9
ENDMDL
MODEL 8
REMARK VINA RESULT:      -7.1      5.440     11.473
REMARK  Name = 
REMARK  10 active torsions:
REMARK  status: ('A' for Active; 'I' for Inactive)
REMARK    1  A    between atoms: C_1  and  C_2
REMARK    2  A    between atoms: C_2  and  N_3
REMARK    3  A    between atoms: C_2  and  C_9
REMARK    4  A    between atoms: C_4  and  C_6
REMARK    5  A    between atoms: C_6  and  C_7
REMARK    6  A    between atoms: C_12  and  C_13
REMARK    7  A    between atoms: C_13  and  N_14
REMARK    8  A    between atoms: C_19  and  O_20
REMARK    9  A    between atoms: O_20  and  C_21
REMARK   10  A    between atoms: C_21  and  C_22
REMARK                            x       y       z     vdW  Elec       q    Type
REMARK                         _______ _______ _______ _____ _____    ______ ____
ROOT
ATOM      1  C   UNL     1       3.738   4.497  19.602  0.00  0.00    +0.000 C 
ENDROOT
BRANCH   1   2
ATOM      2  N   UNL     1       2.713   5.514  19.415  0.00  0.00    +0.000 NA
ATOM      3  C   UNL     1       2.463   6.479  20.485  0.00  0.00    +0.000 C 
ATOM      4  C   UNL     1       1.846   7.805  20.022  0.00  0.00    +0.000 A 
ATOM      5  C   UNL     1       1.069   8.589  20.881  0.00  0.00    +0.000 A 
ATOM      6  C   UNL     1       0.445   9.755  20.406  0.00  0.00    +0.000 A 
ATOM      7  C   UNL     1       0.600  10.168  19.080  0.00  0.00    +0.000 A 
ATOM      8  C   UNL     1       1.428   9.434  18.238  0.00  0.00    +0.000 A 
ATOM      9  C   UNL     1       2.025   8.254  18.697  0.00  0.00    +0.000 A 
ATOM     10  C   UNL     1       2.776   7.362  17.744  0.00  0.00    +0.000 C 
ATOM     11  F   UNL     1       4.126   7.478  17.880  0.00  0.00    +0.000 F 
ATOM     12  C   UNL     1       2.323   5.931  18.072  0.00  0.00    +0.000 C 
BRANCH   7  13
ATOM     13  O   UNL     1      -0.085  11.297  18.711  0.00  0.00    +0.000 OA
BRANCH  13  14
ATOM     14  C   UNL     1      -1.510  11.155  18.656  0.00  0.00    +0.000 C 
BRANCH  14  15
ATOM     15  C   UNL     1      -1.869  10.162  17.594  0.00  0.00    +0.000 C 
ATOM     16  C   UNL     1      -3.309   9.784  17.353  0.00  0.00    +0.000 C 
ATOM     17  C   UNL     1      -2.578  10.622  16.343  0.00  0.00    +0.000 C 
ENDBRANCH  14  15
ENDBRANCH  13  14
ENDBRANCH   7  13
ENDBRANCH   1   2
BRANCH   1  21
ATOM     18  C   UNL     1       6.017   4.051  15.906  0.00  0.00    +0.000 A 
ATOM     19  C   UNL     1       4.799   3.394  16.103  0.00  0.00    +0.000 A 
ATOM     20  C   UNL     1       4.082   3.504  17.288  0.00  0.00    +0.000 A 
ATOM     21  C   UNL     1       4.576   4.253  18.372  0.00  0.00    +0.000 A 
ATOM     22  C   UNL     1       5.850   4.822  18.223  0.00  0.00    +0.000 A 
ATOM     23  C   UNL     1       6.541   4.757  16.987  0.00  0.00    +0.000 A 
BRANCH  18  25
ATOM     24  C   UNL     1       6.967   5.432  13.957  0.00  0.00    +0.000 C 
ATOM     25  C   UNL     1       6.697   4.038  14.542  0.00  0.00    +0.000 C 
BRANCH  25  26
ATOM     26  N   UNL     1       5.902   3.244  13.605  0.00  0.00    +0.000 N 
ATOM     27  C   UNL     1       6.298   3.077  12.291  0.00  0.00    +0.000 C 
ATOM     28  O   UNL     1       7.343   3.553  11.850  0.00  0.00    +0.000 OA
ATOM     29  H   UNL     1       5.195   2.639  14.000  0.00  0.00    +0.000 HD
BRANCH  27  30
ATOM     30  C   UNL     1       5.364   2.266  11.414  0.00  0.00    +0.000 C 
BRANCH  30  31
ATOM     31  C   UNL     1       4.259   3.198  10.944  0.00  0.00    +0.000 C 
ATOM     32  N   UNL     1       3.341   3.971  10.554  0.00  0.00    +0.000 NA
ENDBRANCH  30  31
ENDBRANCH  27  30
ENDBRANCH  25  26
ENDBRANCH  18  25
ENDBRANCH   1  21
TORSDOF 9
ENDMDL
MODEL 9
REMARK VINA RESULT:      -7.1      3.079     10.349
REMARK  Name = 
REMARK  10 active torsions:
REMARK  status: ('A' for Active; 'I' for Inactive)
REMARK    1  A    between atoms: C_1  and  C_2
REMARK    2  A    between atoms: C_2  and  N_3
REMARK    3  A    between atoms: C_2  and  C_9
REMARK    4  A    between atoms: C_4  and  C_6
REMARK    5  A    between atoms: C_6  and  C_7
REMARK    6  A    between atoms: C_12  and  C_13
REMARK    7  A    between atoms: C_13  and  N_14
REMARK    8  A    between atoms: C_19  and  O_20
REMARK    9  A    between atoms: O_20  and  C_21
REMARK   10  A    between atoms: C_21  and  C_22
REMARK                            x       y       z     vdW  Elec       q    Type
REMARK                         _______ _______ _______ _____ _____    ______ ____
ROOT
ATOM      1  C   UNL     1       1.723   8.256  21.559  0.00  0.00    +0.000 C 
ENDROOT
BRANCH   1   2
ATOM      2  N   UNL     1       0.441   8.944  21.498  0.00  0.00    +0.000 NA
ATOM      3  C   UNL     1       0.012   9.754  22.637  0.00  0.00    +0.000 C 
ATOM      4  C   UNL     1      -0.989  10.864  22.294  0.00  0.00    +0.000 A 
ATOM      5  C   UNL     1      -1.886  11.359  23.246  0.00  0.00    +0.000 A 
ATOM      6  C   UNL     1      -2.850  12.314  22.882  0.00  0.00    +0.000 A 
ATOM      7  C   UNL     1      -2.922  12.807  21.576  0.00  0.00    +0.000 A 
ATOM      8  C   UNL     1      -1.988  12.374  20.641  0.00  0.00    +0.000 A 
ATOM      9  C   UNL     1      -1.048  11.397  20.990  0.00  0.00    +0.000 A 
ATOM     10  C   UNL     1      -0.152  10.796  19.939  0.00  0.00    +0.000 C 
ATOM     11  F   UNL     1       1.116  11.289  19.997  0.00  0.00    +0.000 F 
ATOM     12  C   UNL     1      -0.154   9.284  20.209  0.00  0.00    +0.000 C 
BRANCH   7  13
ATOM     13  O   UNL     1      -3.925  13.705  21.319  0.00  0.00    +0.000 OA
BRANCH  13  14
ATOM     14  C   UNL     1      -4.847  13.313  20.293  0.00  0.00    +0.000 C 
BRANCH  14  15
ATOM     15  C   UNL     1      -5.869  12.386  20.874  0.00  0.00    +0.000 C 
ATOM     16  C   UNL     1      -7.304  12.826  21.027  0.00  0.00    +0.000 C 
ATOM     17  C   UNL     1      -6.945  11.801  19.989  0.00  0.00    +0.000 C 
ENDBRANCH  14  15
ENDBRANCH  13  14
ENDBRANCH   7  13
ENDBRANCH   1   2
BRANCH   1  21
ATOM     18  C   UNL     1       2.617   5.338  18.437  0.00  0.00    +0.000 A 
ATOM     19  C   UNL     1       2.736   6.713  18.215  0.00  0.00    +0.000 A 
ATOM     20  C   UNL     1       2.424   7.651  19.192  0.00  0.00    +0.000 A 
ATOM     21  C   UNL     1       1.924   7.256  20.446  0.00  0.00    +0.000 A 
ATOM     22  C   UNL     1       1.693   5.885  20.638  0.00  0.00    +0.000 A 
ATOM     23  C   UNL     1       2.078   4.935  19.659  0.00  0.00    +0.000 A 
BRANCH  18  25
ATOM     24  C   UNL     1       2.535   2.923  17.559  0.00  0.00    +0.000 C 
ATOM     25  C   UNL     1       3.118   4.335  17.405  0.00  0.00    +0.000 C 
BRANCH  25  26
ATOM     26  N   UNL     1       4.580   4.284  17.441  0.00  0.00    +0.000 N 
ATOM     27  C   UNL     1       5.334   4.532  16.309  0.00  0.00    +0.000 C 
ATOM     28  O   UNL     1       4.828   4.836  15.231  0.00  0.00    +0.000 OA
ATOM     29  H   UNL     1       5.018   4.296  18.352  0.00  0.00    +0.000 HD
BRANCH  27  30
ATOM     30  C   UNL     1       6.837   4.407  16.472  0.00  0.00    +0.000 C 
BRANCH  30  31
ATOM     31  C   UNL     1       7.170   4.780  17.908  0.00  0.00    +0.000 C 
ATOM     32  N   UNL     1       7.446   5.091  19.099  0.00  0.00    +0.000 NA
ENDBRANCH  30  31
ENDBRANCH  27  30
ENDBRANCH  25  26
ENDBRANCH  18  25
ENDBRANCH   1  21
TORSDOF 9
ENDMDL
