MODEL 1
REMARK VINA RESULT:      -8.2      0.000      0.000
REMARK  Name = 
REMARK  8 active torsions:
REMARK  status: ('A' for Active; 'I' for Inactive)
REMARK    1  A    between atoms: C_1  and  C_2
REMARK    2  A    between atoms: C_2  and  C_3
REMARK    3  A    between atoms: C_2  and  C_4
REMARK    4  A    between atoms: C_4  and  C_5
REMARK    5  A    between atoms: C_5  and  N_6
REMARK    6  A    between atoms: C_7  and  C_9
REMARK    7  A    between atoms: C_13  and  C_14
REMARK    8  A    between atoms: C_19  and  C_20
REMARK                            x       y       z     vdW  Elec       q    Type
REMARK                         _______ _______ _______ _____ _____    ______ ____
ROOT
ATOM      1  C   UNL     1       4.859   4.529  16.555  0.00  0.00    +0.000 A 
ATOM      2  C   UNL     1       4.795   3.178  16.942  0.00  0.00    +0.000 A 
ATOM      3  N   UNL     1       3.895   2.946  17.888  0.00  0.00    +0.000 NA
ATOM      4  N   UNL     1       3.340   4.148  18.147  0.00  0.00    +0.000 N 
ATOM      5  C   UNL     1       2.332   4.440  19.054  0.00  0.00    +0.000 A 
ATOM      6  C   UNL     1       1.915   5.713  19.184  0.00  0.00    +0.000 A 
ATOM      7  C   UNL     1       2.582   6.748  18.330  0.00  0.00    +0.000 A 
ATOM      8  N   UNL     1       3.522   6.479  17.459  0.00  0.00    +0.000 NA
ATOM      9  C   UNL     1       3.918   5.163  17.353  0.00  0.00    +0.000 A 
ENDROOT
BRANCH   7  10
ATOM     10  C   UNL     1       2.137   8.118  18.506  0.00  0.00    +0.000 A 
ATOM     11  C   UNL     1       1.462   8.753  19.535  0.00  0.00    +0.000 A 
ATOM     12  C   UNL     1       1.283  10.103  19.142  0.00  0.00    +0.000 A 
ATOM     13  C   UNL     1       1.858  10.221  17.899  0.00  0.00    +0.000 A 
ATOM     14  O   UNL     1       2.379   9.029  17.508  0.00  0.00    +0.000 OA
ENDBRANCH   7  10
BRANCH   1  16
ATOM     15  N   UNL     1       5.946   4.238  14.430  0.00  0.00    +0.000 N 
ATOM     16  C   UNL     1       5.764   5.027  15.540  0.00  0.00    +0.000 C 
ATOM     17  O   UNL     1       6.327   6.110  15.675  0.00  0.00    +0.000 OA
ATOM     18  H   UNL     1       5.490   3.333  14.403  0.00  0.00    +0.000 HD
BRANCH  15  19
ATOM     19  C   UNL     1       6.812   4.667  13.349  0.00  0.00    +0.000 C 
BRANCH  19  20
ATOM     20  C   UNL     1       6.816   3.697  12.164  0.00  0.00    +0.000 C 
BRANCH  20  22
ATOM     21  C   UNL     1       4.390   3.436  11.439  0.00  0.00    +0.000 C 
ATOM     22  C   UNL     1       5.591   2.764  12.105  0.00  0.00    +0.000 C 
ATOM     23  C   UNL     1       5.938   1.475  11.356  0.00  0.00    +0.000 C 
ENDBRANCH  20  22
ENDBRANCH  19  20
ENDBRANCH  15  19
ENDBRANCH   1  16
BRANCH   5  24
ATOM     24  C   UNL     1       1.728   3.347  19.855  0.00  0.00    +0.000 C 
ATOM     25  F   UNL     1       2.557   2.646  20.661  0.00  0.00    +0.000 F 
ATOM     26  F   UNL     1       0.741   3.832  20.658  0.00  0.00    +0.000 F 
ATOM     27  F   UNL     1       1.127   2.437  19.040  0.00  0.00    +0.000 F 
ENDBRANCH   5  24
TORSDOF 6
ENDMDL
MODEL 2
REMARK VINA RESULT:      -8.1      0.711      1.104
REMARK  Name = 
REMARK  8 active torsions:
REMARK  status: ('A' for Active; 'I' for Inactive)
REMARK    1  A    between atoms: C_1  and  C_2
REMARK    2  A    between atoms: C_2  and  C_3
REMARK    3  A    between atoms: C_2  and  C_4
REMARK    4  A    between atoms: C_4  and  C_5
REMARK    5  A    between atoms: C_5  and  N_6
REMARK    6  A    between atoms: C_7  and  C_9
REMARK    7  A    between atoms: C_13  and  C_14
REMARK    8  A    between atoms: C_19  and  C_20
REMARK                            x       y       z     vdW  Elec       q    Type
REMARK                         _______ _______ _______ _____ _____    ______ ____
ROOT
ATOM      1  C   UNL     1       4.762   4.297  16.602  0.00  0.00    +0.000 A 
ATOM      2  C   UNL     1       4.769   2.974  17.082  0.00  0.00    +0.000 A 
ATOM      3  N   UNL     1       3.966   2.789  18.121  0.00  0.00    +0.000 NA
ATOM      4  N   UNL     1       3.405   3.994  18.351  0.00  0.00    +0.000 N 
ATOM      5  C   UNL     1       2.478   4.328  19.327  0.00  0.00    +0.000 A 
ATOM      6  C   UNL     1       2.041   5.598  19.410  0.00  0.00    +0.000 A 
ATOM      7  C   UNL     1       2.599   6.585  18.431  0.00  0.00    +0.000 A 
ATOM      8  N   UNL     1       3.462   6.276  17.496  0.00  0.00    +0.000 NA
ATOM      9  C   UNL     1       3.881   4.965  17.441  0.00  0.00    +0.000 A 
ENDROOT
BRANCH   7  10
ATOM     10  C   UNL     1       2.136   7.954  18.557  0.00  0.00    +0.000 A 
ATOM     11  C   UNL     1       2.174   9.035  17.692  0.00  0.00    +0.000 A 
ATOM     12  C   UNL     1       1.583  10.130  18.370  0.00  0.00    +0.000 A 
ATOM     13  C   UNL     1       1.213   9.662  19.608  0.00  0.00    +0.000 A 
ATOM     14  O   UNL     1       1.539   8.349  19.729  0.00  0.00    +0.000 OA
ENDBRANCH   7  10
BRANCH   1  16
ATOM     15  N   UNL     1       6.093   3.767  14.671  0.00  0.00    +0.000 N 
ATOM     16  C   UNL     1       5.557   4.742  15.477  0.00  0.00    +0.000 C 
ATOM     17  O   UNL     1       5.726   5.939  15.260  0.00  0.00    +0.000 OA
ATOM     18  H   UNL     1       5.956   2.797  14.934  0.00  0.00    +0.000 HD
BRANCH  15  19
ATOM     19  C   UNL     1       6.879   4.117  13.505  0.00  0.00    +0.000 C 
BRANCH  19  20
ATOM     20  C   UNL     1       6.067   4.100  12.207  0.00  0.00    +0.000 C 
BRANCH  20  22
ATOM     21  C   UNL     1       3.957   3.117  11.176  0.00  0.00    +0.000 C 
ATOM     22  C   UNL     1       5.204   2.838  12.018  0.00  0.00    +0.000 C 
ATOM     23  C   UNL     1       6.024   1.723  11.363  0.00  0.00    +0.000 C 
ENDBRANCH  20  22
ENDBRANCH  19  20
ENDBRANCH  15  19
ENDBRANCH   1  16
BRANCH   5  24
ATOM     24  C   UNL     1       1.979   3.279  20.251  0.00  0.00    +0.000 C 
ATOM     25  F   UNL     1       1.544   2.127  19.694  0.00  0.00    +0.000 F 
ATOM     26  F   UNL     1       2.949   2.927  21.140  0.00  0.00    +0.000 F 
ATOM     27  F   UNL     1       0.947   3.757  21.000  0.00  0.00    +0.000 F 
ENDBRANCH   5  24
TORSDOF 6
ENDMDL
MODEL 3
REMARK VINA RESULT:      -8.1      3.450      5.040
REMARK  Name = 
REMARK  8 active torsions:
REMARK  status: ('A' for Active; 'I' for Inactive)
REMARK    1  A    between atoms: C_1  and  C_2
REMARK    2  A    between atoms: C_2  and  C_3
REMARK    3  A    between atoms: C_2  and  C_4
REMARK    4  A    between atoms: C_4  and  C_5
REMARK    5  A    between atoms: C_5  and  N_6
REMARK    6  A    between atoms: C_7  and  C_9
REMARK    7  A    between atoms: C_13  and  C_14
REMARK    8  A    between atoms: C_19  and  C_20
REMARK                            x       y       z     vdW  Elec       q    Type
REMARK                         _______ _______ _______ _____ _____    ______ ____
ROOT
ATOM      1  C   UNL     1       5.947   5.905  17.263  0.00  0.00    +0.000 A 
ATOM      2  C   UNL     1       6.074   4.507  17.163  0.00  0.00    +0.000 A 
ATOM      3  N   UNL     1       4.954   3.856  17.447  0.00  0.00    +0.000 NA
ATOM      4  N   UNL     1       4.055   4.818  17.743  0.00  0.00    +0.000 N 
ATOM      5  C   UNL     1       2.723   4.656  18.097  0.00  0.00    +0.000 A 
ATOM      6  C   UNL     1       1.981   5.744  18.372  0.00  0.00    +0.000 A 
ATOM      7  C   UNL     1       2.655   7.079  18.283  0.00  0.00    +0.000 A 
ATOM      8  N   UNL     1       3.906   7.243  17.934  0.00  0.00    +0.000 NA
ATOM      9  C   UNL     1       4.631   6.105  17.656  0.00  0.00    +0.000 A 
ENDROOT
BRANCH   7  10
ATOM     10  C   UNL     1       1.843   8.237  18.611  0.00  0.00    +0.000 A 
ATOM     11  C   UNL     1       1.306   9.249  17.835  0.00  0.00    +0.000 A 
ATOM     12  C   UNL     1       0.614  10.122  18.711  0.00  0.00    +0.000 A 
ATOM     13  C   UNL     1       0.762   9.596  19.972  0.00  0.00    +0.000 A 
ATOM     14  O   UNL     1       1.498   8.457  19.922  0.00  0.00    +0.000 OA
ENDBRANCH   7  10
BRANCH   1  16
ATOM     15  N   UNL     1       7.023   8.010  17.699  0.00  0.00    +0.000 N 
ATOM     16  C   UNL     1       7.032   6.827  17.000  0.00  0.00    +0.000 C 
ATOM     17  O   UNL     1       7.916   6.546  16.196  0.00  0.00    +0.000 OA
ATOM     18  H   UNL     1       6.238   8.202  18.311  0.00  0.00    +0.000 HD
BRANCH  15  19
ATOM     19  C   UNL     1       8.084   8.983  17.523  0.00  0.00    +0.000 C 
BRANCH  19  20
ATOM     20  C   UNL     1       8.867   9.256  18.810  0.00  0.00    +0.000 C 
BRANCH  20  22
ATOM     21  C   UNL     1       9.563  11.013  20.515  0.00  0.00    +0.000 C 
ATOM     22  C   UNL     1       9.175  10.744  19.060  0.00  0.00    +0.000 C 
ATOM     23  C   UNL     1      10.298  11.219  18.134  0.00  0.00    +0.000 C 
ENDBRANCH  20  22
ENDBRANCH  19  20
ENDBRANCH  15  19
ENDBRANCH   1  16
BRANCH   5  24
ATOM     24  C   UNL     1       2.143   3.292  18.155  0.00  0.00    +0.000 C 
ATOM     25  F   UNL     1       2.292   2.513  17.059  0.00  0.00    +0.000 F 
ATOM     26  F   UNL     1       2.676   2.590  19.193  0.00  0.00    +0.000 F 
ATOM     27  F   UNL     1       0.805   3.355  18.400  0.00  0.00    +0.000 F 
ENDBRANCH   5  24
TORSDOF 6
ENDMDL
MODEL 4
REMARK VINA RESULT:      -7.9      3.387      4.927
REMARK  Name = 
REMARK  8 active torsions:
REMARK  status: ('A' for Active; 'I' for Inactive)
REMARK    1  A    between atoms: C_1  and  C_2
REMARK    2  A    between atoms: C_2  and  C_3
REMARK    3  A    between atoms: C_2  and  C_4
REMARK    4  A    between atoms: C_4  and  C_5
REMARK    5  A    between atoms: C_5  and  N_6
REMARK    6  A    between atoms: C_7  and  C_9
REMARK    7  A    between atoms: C_13  and  C_14
REMARK    8  A    between atoms: C_19  and  C_20
REMARK                            x       y       z     vdW  Elec       q    Type
REMARK                         _______ _______ _______ _____ _____    ______ ____
ROOT
ATOM      1  C   UNL     1       5.953   5.820  17.251  0.00  0.00    +0.000 A 
ATOM      2  C   UNL     1       6.069   4.423  17.119  0.00  0.00    +0.000 A 
ATOM      3  N   UNL     1       4.953   3.773  17.418  0.00  0.00    +0.000 NA
ATOM      4  N   UNL     1       4.067   4.733  17.757  0.00  0.00    +0.000 N 
ATOM      5  C   UNL     1       2.744   4.572  18.141  0.00  0.00    +0.000 A 
ATOM      6  C   UNL     1       2.016   5.659  18.458  0.00  0.00    +0.000 A 
ATOM      7  C   UNL     1       2.695   6.991  18.378  0.00  0.00    +0.000 A 
ATOM      8  N   UNL     1       3.938   7.155  18.001  0.00  0.00    +0.000 NA
ATOM      9  C   UNL     1       4.649   6.019  17.681  0.00  0.00    +0.000 A 
ENDROOT
BRANCH   7  10
ATOM     10  C   UNL     1       1.899   8.146  18.751  0.00  0.00    +0.000 A 
ATOM     11  C   UNL     1       1.414   8.590  19.970  0.00  0.00    +0.000 A 
ATOM     12  C   UNL     1       0.681   9.776  19.718  0.00  0.00    +0.000 A 
ATOM     13  C   UNL     1       0.759   9.995  18.364  0.00  0.00    +0.000 A 
ATOM     14  O   UNL     1       1.495   9.020  17.772  0.00  0.00    +0.000 OA
ENDBRANCH   7  10
BRANCH   1  16
ATOM     15  N   UNL     1       7.084   7.884  17.740  0.00  0.00    +0.000 N 
ATOM     16  C   UNL     1       7.036   6.741  16.979  0.00  0.00    +0.000 C 
ATOM     17  O   UNL     1       7.872   6.493  16.115  0.00  0.00    +0.000 OA
ATOM     18  H   UNL     1       6.335   8.053  18.403  0.00  0.00    +0.000 HD
BRANCH  15  19
ATOM     19  C   UNL     1       8.148   8.852  17.559  0.00  0.00    +0.000 C 
BRANCH  19  20
ATOM     20  C   UNL     1       8.825   9.251  18.874  0.00  0.00    +0.000 C 
BRANCH  20  22
ATOM     21  C   UNL     1       9.668  11.119  20.382  0.00  0.00    +0.000 C 
ATOM     22  C   UNL     1       9.126  10.756  18.999  0.00  0.00    +0.000 C 
ATOM     23  C   UNL     1      10.128  11.191  17.926  0.00  0.00    +0.000 C 
ENDBRANCH  20  22
ENDBRANCH  19  20
ENDBRANCH  15  19
ENDBRANCH   1  16
BRANCH   5  24
ATOM     24  C   UNL     1       2.157   3.210  18.186  0.00  0.00    +0.000 C 
ATOM     25  F   UNL     1       2.662   2.353  19.101  0.00  0.00    +0.000 F 
ATOM     26  F   UNL     1       0.818   3.276  18.428  0.00  0.00    +0.000 F 
ATOM     27  F   UNL     1       2.283   2.598  16.976  0.00  0.00    +0.000 F 
ENDBRANCH   5  24
TORSDOF 6
ENDMDL
MODEL 5
REMARK VINA RESULT:      -7.9      1.257      1.421
REMARK  Name = 
REMARK  8 active torsions:
REMARK  status: ('A' for Active; 'I' for Inactive)
REMARK    1  A    between atoms: C_1  and  C_2
REMARK    2  A    between atoms: C_2  and  C_3
REMARK    3  A    between atoms: C_2  and  C_4
REMARK    4  A    between atoms: C_4  and  C_5
REMARK    5  A    between atoms: C_5  and  N_6
REMARK    6  A    between atoms: C_7  and  C_9
REMARK    7  A    between atoms: C_13  and  C_14
REMARK    8  A    between atoms: C_19  and  C_20
REMARK                            x       y       z     vdW  Elec       q    Type
REMARK                         _______ _______ _______ _____ _____    ______ ____
ROOT
ATOM      1  C   UNL     1       4.403   4.489  17.204  0.00  0.00    +0.000 A 
ATOM      2  C   UNL     1       4.580   3.141  17.566  0.00  0.00    +0.000 A 
ATOM      3  N   UNL     1       3.947   2.811  18.684  0.00  0.00    +0.000 NA
ATOM      4  N   UNL     1       3.333   3.943  19.088  0.00  0.00    +0.000 N 
ATOM      5  C   UNL     1       2.530   4.123  20.204  0.00  0.00    +0.000 A 
ATOM      6  C   UNL     1       2.013   5.341  20.451  0.00  0.00    +0.000 A 
ATOM      7  C   UNL     1       2.350   6.441  19.492  0.00  0.00    +0.000 A 
ATOM      8  N   UNL     1       3.094   6.278  18.427  0.00  0.00    +0.000 NA
ATOM      9  C   UNL     1       3.600   5.015  18.206  0.00  0.00    +0.000 A 
ENDROOT
BRANCH   7  10
ATOM     10  C   UNL     1       1.806   7.752  19.794  0.00  0.00    +0.000 A 
ATOM     11  C   UNL     1       1.594   8.875  19.013  0.00  0.00    +0.000 A 
ATOM     12  C   UNL     1       1.049   9.872  19.859  0.00  0.00    +0.000 A 
ATOM     13  C   UNL     1       0.954   9.307  21.108  0.00  0.00    +0.000 A 
ATOM     14  O   UNL     1       1.405   8.026  21.078  0.00  0.00    +0.000 OA
ENDBRANCH   7  10
BRANCH   1  16
ATOM     15  N   UNL     1       5.277   4.237  14.978  0.00  0.00    +0.000 N 
ATOM     16  C   UNL     1       4.995   5.083  16.024  0.00  0.00    +0.000 C 
ATOM     17  O   UNL     1       5.219   6.289  15.970  0.00  0.00    +0.000 OA
ATOM     18  H   UNL     1       5.113   3.244  15.105  0.00  0.00    +0.000 HD
BRANCH  15  19
ATOM     19  C   UNL     1       5.845   4.745  13.745  0.00  0.00    +0.000 C 
BRANCH  19  20
ATOM     20  C   UNL     1       6.467   3.648  12.875  0.00  0.00    +0.000 C 
BRANCH  20  22
ATOM     21  C   UNL     1       4.367   3.485  11.447  0.00  0.00    +0.000 C 
ATOM     22  C   UNL     1       5.442   2.710  12.211  0.00  0.00    +0.000 C 
ATOM     23  C   UNL     1       6.146   1.739  11.259  0.00  0.00    +0.000 C 
ENDBRANCH  20  22
ENDBRANCH  19  20
ENDBRANCH  15  19
ENDBRANCH   1  16
BRANCH   5  24
ATOM     24  C   UNL     1       2.248   2.971  21.095  0.00  0.00    +0.000 C 
ATOM     25  F   UNL     1       3.313   2.335  21.633  0.00  0.00    +0.000 F 
ATOM     26  F   UNL     1       1.469   3.358  22.144  0.00  0.00    +0.000 F 
ATOM     27  F   UNL     1       1.530   2.022  20.433  0.00  0.00    +0.000 F 
ENDBRANCH   5  24
TORSDOF 6
ENDMDL
MODEL 6
REMARK VINA RESULT:      -7.8      1.443      1.935
REMARK  Name = 
REMARK  8 active torsions:
REMARK  status: ('A' for Active; 'I' for Inactive)
REMARK    1  A    between atoms: C_1  and  C_2
REMARK    2  A    between atoms: C_2  and  C_3
REMARK    3  A    between atoms: C_2  and  C_4
REMARK    4  A    between atoms: C_4  and  C_5
REMARK    5  A    between atoms: C_5  and  N_6
REMARK    6  A    between atoms: C_7  and  C_9
REMARK    7  A    between atoms: C_13  and  C_14
REMARK    8  A    between atoms: C_19  and  C_20
REMARK                            x       y       z     vdW  Elec       q    Type
REMARK                         _______ _______ _______ _____ _____    ______ ____
ROOT
ATOM      1  C   UNL     1       4.230   4.482  17.475  0.00  0.00    +0.000 A 
ATOM      2  C   UNL     1       4.342   3.112  17.777  0.00  0.00    +0.000 A 
ATOM      3  N   UNL     1       3.667   2.758  18.863  0.00  0.00    +0.000 NA
ATOM      4  N   UNL     1       3.091   3.895  19.305  0.00  0.00    +0.000 N 
ATOM      5  C   UNL     1       2.267   4.056  20.409  0.00  0.00    +0.000 A 
ATOM      6  C   UNL     1       1.795   5.282  20.701  0.00  0.00    +0.000 A 
ATOM      7  C   UNL     1       2.201   6.410  19.804  0.00  0.00    +0.000 A 
ATOM      8  N   UNL     1       2.965   6.265  18.750  0.00  0.00    +0.000 NA
ATOM      9  C   UNL     1       3.424   4.994  18.482  0.00  0.00    +0.000 A 
ENDROOT
BRANCH   7  10
ATOM     10  C   UNL     1       1.703   7.727  20.154  0.00  0.00    +0.000 A 
ATOM     11  C   UNL     1       1.475   8.868  19.403  0.00  0.00    +0.000 A 
ATOM     12  C   UNL     1       0.999   9.862  20.293  0.00  0.00    +0.000 A 
ATOM     13  C   UNL     1       0.958   9.278  21.536  0.00  0.00    +0.000 A 
ATOM     14  O   UNL     1       1.377   7.989  21.462  0.00  0.00    +0.000 OA
ENDBRANCH   7  10
BRANCH   1  16
ATOM     15  N   UNL     1       5.238   4.278  15.302  0.00  0.00    +0.000 N 
ATOM     16  C   UNL     1       4.876   5.104  16.339  0.00  0.00    +0.000 C 
ATOM     17  O   UNL     1       5.074   6.315  16.312  0.00  0.00    +0.000 OA
ATOM     18  H   UNL     1       5.090   3.280  15.407  0.00  0.00    +0.000 HD
BRANCH  15  19
ATOM     19  C   UNL     1       5.864   4.814  14.110  0.00  0.00    +0.000 C 
BRANCH  19  20
ATOM     20  C   UNL     1       6.722   3.785  13.368  0.00  0.00    +0.000 C 
BRANCH  20  22
ATOM     21  C   UNL     1       6.849   2.172  11.403  0.00  0.00    +0.000 C 
ATOM     22  C   UNL     1       6.236   3.466  11.942  0.00  0.00    +0.000 C 
ATOM     23  C   UNL     1       4.709   3.361  11.910  0.00  0.00    +0.000 C 
ENDBRANCH  20  22
ENDBRANCH  19  20
ENDBRANCH  15  19
ENDBRANCH   1  16
BRANCH   5  24
ATOM     24  C   UNL     1       1.915   2.877  21.238  0.00  0.00    +0.000 C 
ATOM     25  F   UNL     1       0.960   3.050  22.179  0.00  0.00    +0.000 F 
ATOM     26  F   UNL     1       1.489   1.850  20.451  0.00  0.00    +0.000 F 
ATOM     27  F   UNL     1       3.015   2.409  21.890  0.00  0.00    +0.000 F 
ENDBRANCH   5  24
TORSDOF 6
ENDMDL
MODEL 7
REMARK VINA RESULT:      -7.8      3.262      4.832
REMARK  Name = 
REMARK  8 active torsions:
REMARK  status: ('A' for Active; 'I' for Inactive)
REMARK    1  A    between atoms: C_1  and  C_2
REMARK    2  A    between atoms: C_2  and  C_3
REMARK    3  A    between atoms: C_2  and  C_4
REMARK    4  A    between atoms: C_4  and  C_5
REMARK    5  A    between atoms: C_5  and  N_6
REMARK    6  A    between atoms: C_7  and  C_9
REMARK    7  A    between atoms: C_13  and  C_14
REMARK    8  A    between atoms: C_19  and  C_20
REMARK                            x       y       z     vdW  Elec       q    Type
REMARK                         _______ _______ _______ _____ _____    ______ ____
ROOT
ATOM      1  C   UNL     1       5.785   5.491  17.148  0.00  0.00    +0.000 A 
ATOM      2  C   UNL     1       5.862   4.119  16.844  0.00  0.00    +0.000 A 
ATOM      3  N   UNL     1       4.783   3.440  17.212  0.00  0.00    +0.000 NA
ATOM      4  N   UNL     1       3.965   4.356  17.770  0.00  0.00    +0.000 N 
ATOM      5  C   UNL     1       2.701   4.152  18.304  0.00  0.00    +0.000 A 
ATOM      6  C   UNL     1       2.037   5.196  18.834  0.00  0.00    +0.000 A 
ATOM      7  C   UNL     1       2.721   6.528  18.819  0.00  0.00    +0.000 A 
ATOM      8  N   UNL     1       3.907   6.734  18.303  0.00  0.00    +0.000 NA
ATOM      9  C   UNL     1       4.552   5.641  17.765  0.00  0.00    +0.000 A 
ENDROOT
BRANCH   7  10
ATOM     10  C   UNL     1       1.999   7.633  19.422  0.00  0.00    +0.000 A 
ATOM     11  C   UNL     1       1.617   8.872  18.936  0.00  0.00    +0.000 A 
ATOM     12  C   UNL     1       0.947   9.542  19.990  0.00  0.00    +0.000 A 
ATOM     13  C   UNL     1       0.953   8.679  21.060  0.00  0.00    +0.000 A 
ATOM     14  O   UNL     1       1.582   7.523  20.725  0.00  0.00    +0.000 OA
ENDBRANCH   7  10
BRANCH   1  16
ATOM     15  N   UNL     1       6.939   7.538  17.658  0.00  0.00    +0.000 N 
ATOM     16  C   UNL     1       6.839   6.436  16.843  0.00  0.00    +0.000 C 
ATOM     17  O   UNL     1       7.605   6.244  15.903  0.00  0.00    +0.000 OA
ATOM     18  H   UNL     1       6.245   7.662  18.387  0.00  0.00    +0.000 HD
BRANCH  15  19
ATOM     19  C   UNL     1       7.981   8.524  17.448  0.00  0.00    +0.000 C 
BRANCH  19  20
ATOM     20  C   UNL     1       8.589   9.042  18.755  0.00  0.00    +0.000 C 
BRANCH  20  22
ATOM     21  C   UNL     1       8.540  11.417  17.841  0.00  0.00    +0.000 C 
ATOM     22  C   UNL     1       9.350  10.374  18.614  0.00  0.00    +0.000 C 
ATOM     23  C   UNL     1       9.713  10.929  19.994  0.00  0.00    +0.000 C 
ENDBRANCH  20  22
ENDBRANCH  19  20
ENDBRANCH  15  19
ENDBRANCH   1  16
BRANCH   5  24
ATOM     24  C   UNL     1       2.103   2.795  18.270  0.00  0.00    +0.000 C 
ATOM     25  F   UNL     1       2.558   1.900  19.176  0.00  0.00    +0.000 F 
ATOM     26  F   UNL     1       0.754   2.864  18.451  0.00  0.00    +0.000 F 
ATOM     27  F   UNL     1       2.282   2.226  17.046  0.00  0.00    +0.000 F 
ENDBRANCH   5  24
TORSDOF 6
ENDMDL
MODEL 8
REMARK VINA RESULT:      -7.6      3.264      4.841
REMARK  Name = 
REMARK  8 active torsions:
REMARK  status: ('A' for Active; 'I' for Inactive)
REMARK    1  A    between atoms: C_1  and  C_2
REMARK    2  A    between atoms: C_2  and  C_3
REMARK    3  A    between atoms: C_2  and  C_4
REMARK    4  A    between atoms: C_4  and  C_5
REMARK    5  A    between atoms: C_5  and  N_6
REMARK    6  A    between atoms: C_7  and  C_9
REMARK    7  A    between atoms: C_13  and  C_14
REMARK    8  A    between atoms: C_19  and  C_20
REMARK                            x       y       z     vdW  Elec       q    Type
REMARK                         _______ _______ _______ _____ _____    ______ ____
ROOT
ATOM      1  C   UNL     1       5.820   5.601  17.390  0.00  0.00    +0.000 A 
ATOM      2  C   UNL     1       5.885   4.195  17.356  0.00  0.00    +0.000 A 
ATOM      3  N   UNL     1       4.766   3.609  17.759  0.00  0.00    +0.000 NA
ATOM      4  N   UNL     1       3.931   4.622  18.071  0.00  0.00    +0.000 N 
ATOM      5  C   UNL     1       2.626   4.535  18.532  0.00  0.00    +0.000 A 
ATOM      6  C   UNL     1       1.950   5.667  18.804  0.00  0.00    +0.000 A 
ATOM      7  C   UNL     1       2.666   6.966  18.592  0.00  0.00    +0.000 A 
ATOM      8  N   UNL     1       3.892   7.058  18.141  0.00  0.00    +0.000 NA
ATOM      9  C   UNL     1       4.548   5.877  17.870  0.00  0.00    +0.000 A 
ENDROOT
BRANCH   7  10
ATOM     10  C   UNL     1       1.928   8.172  18.918  0.00  0.00    +0.000 A 
ATOM     11  C   UNL     1       1.397   8.648  20.105  0.00  0.00    +0.000 A 
ATOM     12  C   UNL     1       0.764   9.881  19.812  0.00  0.00    +0.000 A 
ATOM     13  C   UNL     1       0.944  10.095  18.467  0.00  0.00    +0.000 A 
ATOM     14  O   UNL     1       1.649   9.072  17.919  0.00  0.00    +0.000 OA
ENDBRANCH   7  10
BRANCH   1  16
ATOM     15  N   UNL     1       7.183   7.537  17.807  0.00  0.00    +0.000 N 
ATOM     16  C   UNL     1       6.916   6.460  16.996  0.00  0.00    +0.000 C 
ATOM     17  O   UNL     1       7.574   6.220  15.988  0.00  0.00    +0.000 OA
ATOM     18  H   UNL     1       6.571   7.707  18.598  0.00  0.00    +0.000 HD
BRANCH  15  19
ATOM     19  C   UNL     1       8.279   8.437  17.509  0.00  0.00    +0.000 C 
BRANCH  19  20
ATOM     20  C   UNL     1       8.169   9.779  18.239  0.00  0.00    +0.000 C 
BRANCH  20  22
ATOM     21  C   UNL     1      10.073  11.442  17.945  0.00  0.00    +0.000 C 
ATOM     22  C   UNL     1       9.504  10.307  18.797  0.00  0.00    +0.000 C 
ATOM     23  C   UNL     1       9.326  10.789  20.240  0.00  0.00    +0.000 C 
ENDBRANCH  20  22
ENDBRANCH  19  20
ENDBRANCH  15  19
ENDBRANCH   1  16
BRANCH   5  24
ATOM     24  C   UNL     1       1.998   3.203  18.708  0.00  0.00    +0.000 C 
ATOM     25  F   UNL     1       0.731   3.177  19.178  0.00  0.00    +0.000 F 
ATOM     26  F   UNL     1       1.976   2.527  17.525  0.00  0.00    +0.000 F 
ATOM     27  F   UNL     1       2.738   2.437  19.557  0.00  0.00    +0.000 F 
ENDBRANCH   5  24
TORSDOF 6
ENDMDL
MODEL 9
REMARK VINA RESULT:      -7.6      1.345      1.632
REMARK  Name = 
REMARK  8 active torsions:
REMARK  status: ('A' for Active; 'I' for Inactive)
REMARK    1  A    between atoms: C_1  and  C_2
REMARK    2  A    between atoms: C_2  and  C_3
REMARK    3  A    between atoms: C_2  and  C_4
REMARK    4  A    between atoms: C_4  and  C_5
REMARK    5  A    between atoms: C_5  and  N_6
REMARK    6  A    between atoms: C_7  and  C_9
REMARK    7  A    between atoms: C_13  and  C_14
REMARK    8  A    between atoms: C_19  and  C_20
REMARK                            x       y       z     vdW  Elec       q    Type
REMARK                         _______ _______ _______ _____ _____    ______ ____
ROOT
ATOM      1  C   UNL     1       4.305   4.234  17.505  0.00  0.00    +0.000 A 
ATOM      2  C   UNL     1       4.424   2.883  17.879  0.00  0.00    +0.000 A 
ATOM      3  N   UNL     1       3.752   2.584  18.983  0.00  0.00    +0.000 NA
ATOM      4  N   UNL     1       3.171   3.740  19.365  0.00  0.00    +0.000 N 
ATOM      5  C   UNL     1       2.348   3.956  20.460  0.00  0.00    +0.000 A 
ATOM      6  C   UNL     1       1.870   5.194  20.688  0.00  0.00    +0.000 A 
ATOM      7  C   UNL     1       2.270   6.274  19.731  0.00  0.00    +0.000 A 
ATOM      8  N   UNL     1       3.034   6.077  18.686  0.00  0.00    +0.000 NA
ATOM      9  C   UNL     1       3.498   4.795  18.484  0.00  0.00    +0.000 A 
ENDROOT
BRANCH   7  10
ATOM     10  C   UNL     1       1.767   7.606  20.012  0.00  0.00    +0.000 A 
ATOM     11  C   UNL     1       1.282   8.195  21.167  0.00  0.00    +0.000 A 
ATOM     12  C   UNL     1       0.917   9.523  20.834  0.00  0.00    +0.000 A 
ATOM     13  C   UNL     1       1.201   9.676  19.499  0.00  0.00    +0.000 A 
ATOM     14  O   UNL     1       1.718   8.527  18.994  0.00  0.00    +0.000 OA
ENDBRANCH   7  10
BRANCH   1  16
ATOM     15  N   UNL     1       5.550   3.915  15.473  0.00  0.00    +0.000 N 
ATOM     16  C   UNL     1       4.947   4.798  16.336  0.00  0.00    +0.000 C 
ATOM     17  O   UNL     1       4.936   6.009  16.134  0.00  0.00    +0.000 OA
ATOM     18  H   UNL     1       5.567   2.932  15.723  0.00  0.00    +0.000 HD
BRANCH  15  19
ATOM     19  C   UNL     1       6.193   4.384  14.261  0.00  0.00    +0.000 C 
BRANCH  19  20
ATOM     20  C   UNL     1       5.756   3.613  13.013  0.00  0.00    +0.000 C 
BRANCH  20  22
ATOM     21  C   UNL     1       7.715   4.911  12.035  0.00  0.00    +0.000 C 
ATOM     22  C   UNL     1       6.661   3.830  11.786  0.00  0.00    +0.000 C 
ATOM     23  C   UNL     1       7.353   2.522  11.394  0.00  0.00    +0.000 C 
ENDBRANCH  20  22
ENDBRANCH  19  20
ENDBRANCH  15  19
ENDBRANCH   1  16
BRANCH   5  24
ATOM     24  C   UNL     1       2.002   2.821  21.351  0.00  0.00    +0.000 C 
ATOM     25  F   UNL     1       3.024   2.210  21.993  0.00  0.00    +0.000 F 
ATOM     26  F   UNL     1       1.133   3.222  22.320  0.00  0.00    +0.000 F 
ATOM     27  F   UNL     1       1.353   1.849  20.653  0.00  0.00    +0.000 F 
ENDBRANCH   5  24
TORSDOF 6
ENDMDL
