MODEL 1
REMARK VINA RESULT:      -8.0      0.000      0.000
REMARK  Name = 
REMARK  8 active torsions:
REMARK  status: ('A' for Active; 'I' for Inactive)
REMARK    1  A    between atoms: C_1  and  C_2
REMARK    2  A    between atoms: C_2  and  C_3
REMARK    3  A    between atoms: C_2  and  C_4
REMARK    4  A    between atoms: C_2  and  C_5
REMARK    5  A    between atoms: C_10  and  O_11
REMARK    6  A    between atoms: O_11  and  C_12
REMARK    7  A    between atoms: C_12  and  C_13
REMARK    8  A    between atoms: C_13  and  N_14
REMARK                            x       y       z     vdW  Elec       q    Type
REMARK                         _______ _______ _______ _____ _____    ______ ____
ROOT
ATOM      1  C   UNL     1       3.499   4.277  16.904  0.00  0.00    +0.000 C 
ENDROOT
BRANCH   1   2
ATOM      2  O   UNL     1       3.740   5.287  17.881  0.00  0.00    +0.000 OA
BRANCH   2   8
ATOM      3  C   UNL     1       2.290   4.890  19.978  0.00  0.00    +0.000 A 
ATOM      4  C   UNL     1       1.548   5.670  20.907  0.00  0.00    +0.000 A 
ATOM      5  C   UNL     1       1.363   7.056  20.843  0.00  0.00    +0.000 A 
ATOM      6  C   UNL     1       1.959   7.739  19.807  0.00  0.00    +0.000 A 
ATOM      7  C   UNL     1       2.731   7.027  18.882  0.00  0.00    +0.000 A 
ATOM      8  C   UNL     1       2.948   5.621  18.945  0.00  0.00    +0.000 A 
BRANCH   3  10
ATOM      9  C   UNL     1       3.526   2.577  20.122  0.00  0.00    +0.000 C 
ATOM     10  C   UNL     1       2.156   3.341  20.171  0.00  0.00    +0.000 C 
ATOM     11  C   UNL     1       1.347   2.616  19.076  0.00  0.00    +0.000 C 
ATOM     12  C   UNL     1       1.582   3.047  21.571  0.00  0.00    +0.000 C 
ENDBRANCH   3  10
ENDBRANCH   2   8
ENDBRANCH   1   2
BRANCH   1  13
ATOM     13  C   UNL     1       4.784   3.466  16.588  0.00  0.00    +0.000 C 
BRANCH  13  14
ATOM     14  N   UNL     1       5.841   4.158  15.841  0.00  0.00    +0.000 N 
ATOM     15  C   UNL     1       6.938   4.844  16.415  0.00  0.00    +0.000 A 
ATOM     16  S   UNL     1       7.538   4.755  17.957  0.00  0.00    +0.000 S 
ATOM     17  N   UNL     1       7.586   5.546  15.389  0.00  0.00    +0.000 N 
ATOM     18  C   UNL     1       7.138   5.026  14.177  0.00  0.00    +0.000 A 
ATOM     19  C   UNL     1       7.720   5.217  12.935  0.00  0.00    +0.000 A 
ATOM     20  C   UNL     1       7.280   4.359  11.930  0.00  0.00    +0.000 A 
ATOM     21  C   UNL     1       6.258   3.412  12.184  0.00  0.00    +0.000 A 
ATOM     22  C   UNL     1       5.636   3.302  13.444  0.00  0.00    +0.000 A 
ATOM     23  C   UNL     1       6.101   4.116  14.448  0.00  0.00    +0.000 A 
ATOM     24  H   UNL     1       7.665   6.550  15.478  0.00  0.00    +0.000 HD
ENDBRANCH  13  14
ENDBRANCH   1  13
TORSDOF 5
ENDMDL
MODEL 2
REMARK VINA RESULT:      -7.5      3.372      5.350
REMARK  Name = 
REMARK  8 active torsions:
REMARK  status: ('A' for Active; 'I' for Inactive)
REMARK    1  A    between atoms: C_1  and  C_2
REMARK    2  A    between atoms: C_2  and  C_3
REMARK    3  A    between atoms: C_2  and  C_4
REMARK    4  A    between atoms: C_2  and  C_5
REMARK    5  A    between atoms: C_10  and  O_11
REMARK    6  A    between atoms: O_11  and  C_12
REMARK    7  A    between atoms: C_12  and  C_13
REMARK    8  A    between atoms: C_13  and  N_14
REMARK                            x       y       z     vdW  Elec       q    Type
REMARK                         _______ _______ _______ _____ _____    ______ ____
ROOT
ATOM      1  C   UNL     1       1.871   6.135  20.449  0.00  0.00    +0.000 C 
ENDROOT
BRANCH   1   2
ATOM      2  O   UNL     1       2.121   7.538  20.417  0.00  0.00    +0.000 OA
BRANCH   2   8
ATOM      3  C   UNL     1       0.623   9.604  20.031  0.00  0.00    +0.000 A 
ATOM      4  C   UNL     1      -0.229  10.443  20.799  0.00  0.00    +0.000 A 
ATOM      5  C   UNL     1      -0.432  10.353  22.182  0.00  0.00    +0.000 A 
ATOM      6  C   UNL     1       0.230   9.359  22.867  0.00  0.00    +0.000 A 
ATOM      7  C   UNL     1       1.055   8.481  22.156  0.00  0.00    +0.000 A 
ATOM      8  C   UNL     1       1.255   8.545  20.747  0.00  0.00    +0.000 A 
BRANCH   3  10
ATOM      9  C   UNL     1       1.675   9.060  17.687  0.00  0.00    +0.000 C 
ATOM     10  C   UNL     1       0.826  10.061  18.546  0.00  0.00    +0.000 C 
ATOM     11  C   UNL     1       1.611  11.377  18.372  0.00  0.00    +0.000 C 
ATOM     12  C   UNL     1      -0.543  10.134  17.842  0.00  0.00    +0.000 C 
ENDBRANCH   3  10
ENDBRANCH   2   8
ENDBRANCH   1   2
BRANCH   1  13
ATOM     13  C   UNL     1       2.243   5.455  19.105  0.00  0.00    +0.000 C 
BRANCH  13  14
ATOM     14  N   UNL     1       3.615   4.949  18.972  0.00  0.00    +0.000 N 
ATOM     15  C   UNL     1       4.028   3.619  19.223  0.00  0.00    +0.000 A 
ATOM     16  S   UNL     1       3.112   2.244  19.350  0.00  0.00    +0.000 S 
ATOM     17  N   UNL     1       5.430   3.596  19.199  0.00  0.00    +0.000 N 
ATOM     18  C   UNL     1       5.858   4.776  18.595  0.00  0.00    +0.000 A 
ATOM     19  C   UNL     1       7.128   5.036  18.107  0.00  0.00    +0.000 A 
ATOM     20  C   UNL     1       7.234   6.152  17.281  0.00  0.00    +0.000 A 
ATOM     21  C   UNL     1       6.110   6.978  17.033  0.00  0.00    +0.000 A 
ATOM     22  C   UNL     1       4.851   6.722  17.612  0.00  0.00    +0.000 A 
ATOM     23  C   UNL     1       4.734   5.596  18.390  0.00  0.00    +0.000 A 
ATOM     24  H   UNL     1       5.914   3.282  20.029  0.00  0.00    +0.000 HD
ENDBRANCH  13  14
ENDBRANCH   1  13
TORSDOF 5
ENDMDL
MODEL 3
REMARK VINA RESULT:      -7.3      0.535      1.035
REMARK  Name = 
REMARK  8 active torsions:
REMARK  status: ('A' for Active; 'I' for Inactive)
REMARK    1  A    between atoms: C_1  and  C_2
REMARK    2  A    between atoms: C_2  and  C_3
REMARK    3  A    between atoms: C_2  and  C_4
REMARK    4  A    between atoms: C_2  and  C_5
REMARK    5  A    between atoms: C_10  and  O_11
REMARK    6  A    between atoms: O_11  and  C_12
REMARK    7  A    between atoms: C_12  and  C_13
REMARK    8  A    between atoms: C_13  and  N_14
REMARK                            x       y       z     vdW  Elec       q    Type
REMARK                         _______ _______ _______ _____ _____    ______ ____
ROOT
ATOM      1  C   UNL     1       3.501   3.698  16.809  0.00  0.00    +0.000 C 
ENDROOT
BRANCH   1   2
ATOM      2  O   UNL     1       2.978   4.972  17.178  0.00  0.00    +0.000 OA
BRANCH   2   8
ATOM      3  C   UNL     1       2.151   4.707  19.608  0.00  0.00    +0.000 A 
ATOM      4  C   UNL     1       1.808   5.550  20.699  0.00  0.00    +0.000 A 
ATOM      5  C   UNL     1       1.783   6.950  20.673  0.00  0.00    +0.000 A 
ATOM      6  C   UNL     1       2.137   7.579  19.500  0.00  0.00    +0.000 A 
ATOM      7  C   UNL     1       2.519   6.799  18.403  0.00  0.00    +0.000 A 
ATOM      8  C   UNL     1       2.570   5.376  18.420  0.00  0.00    +0.000 A 
BRANCH   3  10
ATOM      9  C   UNL     1       1.237   2.868  21.244  0.00  0.00    +0.000 C 
ATOM     10  C   UNL     1       1.888   3.182  19.852  0.00  0.00    +0.000 C 
ATOM     11  C   UNL     1       3.153   2.301  19.885  0.00  0.00    +0.000 C 
ATOM     12  C   UNL     1       0.877   2.664  18.810  0.00  0.00    +0.000 C 
ENDBRANCH   3  10
ENDBRANCH   2   8
ENDBRANCH   1   2
BRANCH   1  13
ATOM     13  C   UNL     1       5.006   3.571  17.166  0.00  0.00    +0.000 C 
BRANCH  13  14
ATOM     14  N   UNL     1       5.956   4.301  16.317  0.00  0.00    +0.000 N 
ATOM     15  C   UNL     1       7.026   5.101  16.783  0.00  0.00    +0.000 A 
ATOM     16  S   UNL     1       7.725   5.145  18.285  0.00  0.00    +0.000 S 
ATOM     17  N   UNL     1       7.551   5.793  15.683  0.00  0.00    +0.000 N 
ATOM     18  C   UNL     1       7.073   5.173  14.531  0.00  0.00    +0.000 A 
ATOM     19  C   UNL     1       7.560   5.340  13.245  0.00  0.00    +0.000 A 
ATOM     20  C   UNL     1       7.130   4.395  12.316  0.00  0.00    +0.000 A 
ATOM     21  C   UNL     1       6.206   3.387  12.683  0.00  0.00    +0.000 A 
ATOM     22  C   UNL     1       5.674   3.299  13.986  0.00  0.00    +0.000 A 
ATOM     23  C   UNL     1       6.132   4.202  14.915  0.00  0.00    +0.000 A 
ATOM     24  H   UNL     1       7.553   6.804  15.715  0.00  0.00    +0.000 HD
ENDBRANCH  13  14
ENDBRANCH   1  13
TORSDOF 5
ENDMDL
MODEL 4
REMARK VINA RESULT:      -7.2      3.066      5.466
REMARK  Name = 
REMARK  8 active torsions:
REMARK  status: ('A' for Active; 'I' for Inactive)
REMARK    1  A    between atoms: C_1  and  C_2
REMARK    2  A    between atoms: C_2  and  C_3
REMARK    3  A    between atoms: C_2  and  C_4
REMARK    4  A    between atoms: C_2  and  C_5
REMARK    5  A    between atoms: C_10  and  O_11
REMARK    6  A    between atoms: O_11  and  C_12
REMARK    7  A    between atoms: C_12  and  C_13
REMARK    8  A    between atoms: C_13  and  N_14
REMARK                            x       y       z     vdW  Elec       q    Type
REMARK                         _______ _______ _______ _____ _____    ______ ____
ROOT
ATOM      1  C   UNL     1       1.533   6.223  20.283  0.00  0.00    +0.000 C 
ENDROOT
BRANCH   1   2
ATOM      2  O   UNL     1       1.914   7.580  20.496  0.00  0.00    +0.000 OA
BRANCH   2   8
ATOM      3  C   UNL     1       0.491   9.706  20.162  0.00  0.00    +0.000 A 
ATOM      4  C   UNL     1      -0.292  10.583  20.960  0.00  0.00    +0.000 A 
ATOM      5  C   UNL     1      -0.442  10.507  22.351  0.00  0.00    +0.000 A 
ATOM      6  C   UNL     1       0.205   9.488  23.013  0.00  0.00    +0.000 A 
ATOM      7  C   UNL     1       0.962   8.573  22.273  0.00  0.00    +0.000 A 
ATOM      8  C   UNL     1       1.107   8.624  20.857  0.00  0.00    +0.000 A 
BRANCH   3  10
ATOM      9  C   UNL     1      -0.689  10.114  17.851  0.00  0.00    +0.000 C 
ATOM     10  C   UNL     1       0.651  10.149  18.668  0.00  0.00    +0.000 C 
ATOM     11  C   UNL     1       1.567   9.248  17.816  0.00  0.00    +0.000 C 
ATOM     12  C   UNL     1       1.114  11.619  18.617  0.00  0.00    +0.000 C 
ENDBRANCH   3  10
ENDBRANCH   2   8
ENDBRANCH   1   2
BRANCH   1  13
ATOM     13  C   UNL     1       2.753   5.266  20.355  0.00  0.00    +0.000 C 
BRANCH  13  14
ATOM     14  N   UNL     1       3.170   4.624  19.102  0.00  0.00    +0.000 N 
ATOM     15  C   UNL     1       2.649   3.413  18.587  0.00  0.00    +0.000 A 
ATOM     16  S   UNL     1       1.255   2.615  18.994  0.00  0.00    +0.000 S 
ATOM     17  N   UNL     1       3.452   3.030  17.504  0.00  0.00    +0.000 N 
ATOM     18  C   UNL     1       4.209   4.139  17.131  0.00  0.00    +0.000 A 
ATOM     19  C   UNL     1       4.909   4.295  15.946  0.00  0.00    +0.000 A 
ATOM     20  C   UNL     1       5.331   5.593  15.668  0.00  0.00    +0.000 A 
ATOM     21  C   UNL     1       5.098   6.643  16.590  0.00  0.00    +0.000 A 
ATOM     22  C   UNL     1       4.449   6.425  17.823  0.00  0.00    +0.000 A 
ATOM     23  C   UNL     1       3.992   5.155  18.077  0.00  0.00    +0.000 A 
ATOM     24  H   UNL     1       3.913   2.131  17.548  0.00  0.00    +0.000 HD
ENDBRANCH  13  14
ENDBRANCH   1  13
TORSDOF 5
ENDMDL
MODEL 5
REMARK VINA RESULT:      -7.1      4.666      8.485
REMARK  Name = 
REMARK  8 active torsions:
REMARK  status: ('A' for Active; 'I' for Inactive)
REMARK    1  A    between atoms: C_1  and  C_2
REMARK    2  A    between atoms: C_2  and  C_3
REMARK    3  A    between atoms: C_2  and  C_4
REMARK    4  A    between atoms: C_2  and  C_5
REMARK    5  A    between atoms: C_10  and  O_11
REMARK    6  A    between atoms: O_11  and  C_12
REMARK    7  A    between atoms: C_12  and  C_13
REMARK    8  A    between atoms: C_13  and  N_14
REMARK                            x       y       z     vdW  Elec       q    Type
REMARK                         _______ _______ _______ _____ _____    ______ ____
ROOT
ATOM      1  C   UNL     1       2.000   9.014  18.309  0.00  0.00    +0.000 C 
ENDROOT
BRANCH   1   2
ATOM      2  O   UNL     1       2.120   7.659  18.736  0.00  0.00    +0.000 OA
BRANCH   2   8
ATOM      3  C   UNL     1       3.039   5.276  18.375  0.00  0.00    +0.000 A 
ATOM      4  C   UNL     1       4.036   4.642  17.584  0.00  0.00    +0.000 A 
ATOM      5  C   UNL     1       4.929   5.291  16.722  0.00  0.00    +0.000 A 
ATOM      6  C   UNL     1       4.833   6.659  16.608  0.00  0.00    +0.000 A 
ATOM      7  C   UNL     1       3.848   7.333  17.337  0.00  0.00    +0.000 A 
ATOM      8  C   UNL     1       2.918   6.686  18.200  0.00  0.00    +0.000 A 
BRANCH   3  10
ATOM      9  C   UNL     1       1.132   3.520  18.794  0.00  0.00    +0.000 C 
ATOM     10  C   UNL     1       2.326   4.335  19.405  0.00  0.00    +0.000 C 
ATOM     11  C   UNL     1       1.648   5.058  20.586  0.00  0.00    +0.000 C 
ATOM     12  C   UNL     1       3.324   3.272  19.904  0.00  0.00    +0.000 C 
ENDBRANCH   3  10
ENDBRANCH   2   8
ENDBRANCH   1   2
BRANCH   1  13
ATOM     13  C   UNL     1       0.518   9.410  18.068  0.00  0.00    +0.000 C 
BRANCH  13  14
ATOM     14  N   UNL     1      -0.132  10.215  19.109  0.00  0.00    +0.000 N 
ATOM     15  C   UNL     1      -1.090  11.233  18.882  0.00  0.00    +0.000 A 
ATOM     16  S   UNL     1      -1.991  11.539  17.526  0.00  0.00    +0.000 S 
ATOM     17  N   UNL     1      -1.297  11.902  20.096  0.00  0.00    +0.000 N 
ATOM     18  C   UNL     1      -0.774  11.103  21.110  0.00  0.00    +0.000 A 
ATOM     19  C   UNL     1      -1.016  11.234  22.467  0.00  0.00    +0.000 A 
ATOM     20  C   UNL     1      -0.635  10.146  23.250  0.00  0.00    +0.000 A 
ATOM     21  C   UNL     1       0.012   9.028  22.669  0.00  0.00    +0.000 A 
ATOM     22  C   UNL     1       0.310   8.968  21.293  0.00  0.00    +0.000 A 
ATOM     23  C   UNL     1      -0.106  10.020  20.513  0.00  0.00    +0.000 A 
ATOM     24  H   UNL     1      -1.112  12.896  20.128  0.00  0.00    +0.000 HD
ENDBRANCH  13  14
ENDBRANCH   1  13
TORSDOF 5
ENDMDL
MODEL 6
REMARK VINA RESULT:      -7.1      0.856      2.625
REMARK  Name = 
REMARK  8 active torsions:
REMARK  status: ('A' for Active; 'I' for Inactive)
REMARK    1  A    between atoms: C_1  and  C_2
REMARK    2  A    between atoms: C_2  and  C_3
REMARK    3  A    between atoms: C_2  and  C_4
REMARK    4  A    between atoms: C_2  and  C_5
REMARK    5  A    between atoms: C_10  and  O_11
REMARK    6  A    between atoms: O_11  and  C_12
REMARK    7  A    between atoms: C_12  and  C_13
REMARK    8  A    between atoms: C_13  and  N_14
REMARK                            x       y       z     vdW  Elec       q    Type
REMARK                         _______ _______ _______ _____ _____    ______ ____
ROOT
ATOM      1  C   UNL     1       3.228   3.983  16.403  0.00  0.00    +0.000 C 
ENDROOT
BRANCH   1   2
ATOM      2  O   UNL     1       2.295   3.387  17.301  0.00  0.00    +0.000 OA
BRANCH   2   8
ATOM      3  C   UNL     1       2.178   4.846  19.426  0.00  0.00    +0.000 A 
ATOM      4  C   UNL     1       1.932   4.663  20.815  0.00  0.00    +0.000 A 
ATOM      5  C   UNL     1       1.720   3.434  21.451  0.00  0.00    +0.000 A 
ATOM      6  C   UNL     1       1.730   2.297  20.676  0.00  0.00    +0.000 A 
ATOM      7  C   UNL     1       1.932   2.420  19.297  0.00  0.00    +0.000 A 
ATOM      8  C   UNL     1       2.128   3.663  18.631  0.00  0.00    +0.000 A 
BRANCH   3  10
ATOM      9  C   UNL     1       1.894   6.815  17.713  0.00  0.00    +0.000 C 
ATOM     10  C   UNL     1       2.591   6.301  19.021  0.00  0.00    +0.000 C 
ATOM     11  C   UNL     1       4.084   6.483  18.680  0.00  0.00    +0.000 C 
ATOM     12  C   UNL     1       2.150   7.284  20.124  0.00  0.00    +0.000 C 
ENDBRANCH   3  10
ENDBRANCH   2   8
ENDBRANCH   1   2
BRANCH   1  13
ATOM     13  C   UNL     1       4.679   3.514  16.689  0.00  0.00    +0.000 C 
BRANCH  13  14
ATOM     14  N   UNL     1       5.753   4.175  15.935  0.00  0.00    +0.000 N 
ATOM     15  C   UNL     1       6.872   4.829  16.504  0.00  0.00    +0.000 A 
ATOM     16  S   UNL     1       7.477   4.724  18.042  0.00  0.00    +0.000 S 
ATOM     17  N   UNL     1       7.535   5.510  15.473  0.00  0.00    +0.000 N 
ATOM     18  C   UNL     1       7.065   5.002  14.264  0.00  0.00    +0.000 A 
ATOM     19  C   UNL     1       7.646   5.176  13.019  0.00  0.00    +0.000 A 
ATOM     20  C   UNL     1       7.175   4.329  12.017  0.00  0.00    +0.000 A 
ATOM     21  C   UNL     1       6.128   3.413  12.277  0.00  0.00    +0.000 A 
ATOM     22  C   UNL     1       5.510   3.322  13.541  0.00  0.00    +0.000 A 
ATOM     23  C   UNL     1       6.003   4.124  14.542  0.00  0.00    +0.000 A 
ATOM     24  H   UNL     1       7.644   6.512  15.560  0.00  0.00    +0.000 HD
ENDBRANCH  13  14
ENDBRANCH   1  13
TORSDOF 5
ENDMDL
MODEL 7
REMARK VINA RESULT:      -7.1      4.236      8.160
REMARK  Name = 
REMARK  8 active torsions:
REMARK  status: ('A' for Active; 'I' for Inactive)
REMARK    1  A    between atoms: C_1  and  C_2
REMARK    2  A    between atoms: C_2  and  C_3
REMARK    3  A    between atoms: C_2  and  C_4
REMARK    4  A    between atoms: C_2  and  C_5
REMARK    5  A    between atoms: C_10  and  O_11
REMARK    6  A    between atoms: O_11  and  C_12
REMARK    7  A    between atoms: C_12  and  C_13
REMARK    8  A    between atoms: C_13  and  N_14
REMARK                            x       y       z     vdW  Elec       q    Type
REMARK                         _______ _______ _______ _____ _____    ______ ____
ROOT
ATOM      1  C   UNL     1       1.771   7.861  17.943  0.00  0.00    +0.000 C 
ENDROOT
BRANCH   1   2
ATOM      2  O   UNL     1       3.133   7.459  18.064  0.00  0.00    +0.000 OA
BRANCH   2   8
ATOM      3  C   UNL     1       3.598   4.937  17.779  0.00  0.00    +0.000 A 
ATOM      4  C   UNL     1       4.427   4.105  16.979  0.00  0.00    +0.000 A 
ATOM      5  C   UNL     1       5.379   4.549  16.052  0.00  0.00    +0.000 A 
ATOM      6  C   UNL     1       5.522   5.907  15.877  0.00  0.00    +0.000 A 
ATOM      7  C   UNL     1       4.707   6.774  16.613  0.00  0.00    +0.000 A 
ATOM      8  C   UNL     1       3.720   6.338  17.542  0.00  0.00    +0.000 A 
BRANCH   3  10
ATOM      9  C   UNL     1       2.546   5.022  20.183  0.00  0.00    +0.000 C 
ATOM     10  C   UNL     1       2.779   4.180  18.879  0.00  0.00    +0.000 C 
ATOM     11  C   UNL     1       3.455   2.911  19.436  0.00  0.00    +0.000 C 
ATOM     12  C   UNL     1       1.368   3.869  18.344  0.00  0.00    +0.000 C 
ENDBRANCH   3  10
ENDBRANCH   2   8
ENDBRANCH   1   2
BRANCH   1  13
ATOM     13  C   UNL     1       1.613   9.399  18.074  0.00  0.00    +0.000 C 
BRANCH  13  14
ATOM     14  N   UNL     1       0.614   9.886  19.034  0.00  0.00    +0.000 N 
ATOM     15  C   UNL     1      -0.673  10.374  18.703  0.00  0.00    +0.000 A 
ATOM     16  S   UNL     1      -1.531  10.198  17.297  0.00  0.00    +0.000 S 
ATOM     17  N   UNL     1      -1.225  10.939  19.861  0.00  0.00    +0.000 N 
ATOM     18  C   UNL     1      -0.472  10.493  20.945  0.00  0.00    +0.000 A 
ATOM     19  C   UNL     1      -0.832  10.565  22.280  0.00  0.00    +0.000 A 
ATOM     20  C   UNL     1      -0.068   9.786  23.148  0.00  0.00    +0.000 A 
ATOM     21  C   UNL     1       1.033   9.037  22.668  0.00  0.00    +0.000 A 
ATOM     22  C   UNL     1       1.414   9.053  21.310  0.00  0.00    +0.000 A 
ATOM     23  C   UNL     1       0.634   9.783  20.447  0.00  0.00    +0.000 A 
ATOM     24  H   UNL     1      -1.490  11.915  19.834  0.00  0.00    +0.000 HD
ENDBRANCH  13  14
ENDBRANCH   1  13
TORSDOF 5
ENDMDL
MODEL 8
REMARK VINA RESULT:      -7.0      4.363      7.898
REMARK  Name = 
REMARK  8 active torsions:
REMARK  status: ('A' for Active; 'I' for Inactive)
REMARK    1  A    between atoms: C_1  and  C_2
REMARK    2  A    between atoms: C_2  and  C_3
REMARK    3  A    between atoms: C_2  and  C_4
REMARK    4  A    between atoms: C_2  and  C_5
REMARK    5  A    between atoms: C_10  and  O_11
REMARK    6  A    between atoms: O_11  and  C_12
REMARK    7  A    between atoms: C_12  and  C_13
REMARK    8  A    between atoms: C_13  and  N_14
REMARK                            x       y       z     vdW  Elec       q    Type
REMARK                         _______ _______ _______ _____ _____    ______ ____
ROOT
ATOM      1  C   UNL     1       2.800   8.382  17.727  0.00  0.00    +0.000 C 
ENDROOT
BRANCH   1   2
ATOM      2  O   UNL     1       3.004   7.200  18.497  0.00  0.00    +0.000 OA
BRANCH   2   8
ATOM      3  C   UNL     1       4.117   5.178  17.343  0.00  0.00    +0.000 A 
ATOM      4  C   UNL     1       3.797   3.823  17.058  0.00  0.00    +0.000 A 
ATOM      5  C   UNL     1       2.576   3.196  17.338  0.00  0.00    +0.000 A 
ATOM      6  C   UNL     1       1.598   3.940  17.958  0.00  0.00    +0.000 A 
ATOM      7  C   UNL     1       1.870   5.271  18.294  0.00  0.00    +0.000 A 
ATOM      8  C   UNL     1       3.113   5.916  18.037  0.00  0.00    +0.000 A 
BRANCH   3  10
ATOM      9  C   UNL     1       6.392   4.511  16.214  0.00  0.00    +0.000 C 
ATOM     10  C   UNL     1       5.472   5.672  16.732  0.00  0.00    +0.000 C 
ATOM     11  C   UNL     1       6.405   6.400  17.721  0.00  0.00    +0.000 C 
ATOM     12  C   UNL     1       5.188   6.543  15.492  0.00  0.00    +0.000 C 
ENDBRANCH   3  10
ENDBRANCH   2   8
ENDBRANCH   1   2
BRANCH   1  13
ATOM     13  C   UNL     1       1.383   8.974  17.949  0.00  0.00    +0.000 C 
BRANCH  13  14
ATOM     14  N   UNL     1       1.250  10.017  18.973  0.00  0.00    +0.000 N 
ATOM     15  C   UNL     1       0.900   9.798  20.327  0.00  0.00    +0.000 A 
ATOM     16  S   UNL     1       0.915   8.389  21.198  0.00  0.00    +0.000 S 
ATOM     17  N   UNL     1       0.666  11.050  20.914  0.00  0.00    +0.000 N 
ATOM     18  C   UNL     1       1.206  12.017  20.069  0.00  0.00    +0.000 A 
ATOM     19  C   UNL     1       1.456  13.341  20.390  0.00  0.00    +0.000 A 
ATOM     20  C   UNL     1       2.272  14.028  19.493  0.00  0.00    +0.000 A 
ATOM     21  C   UNL     1       2.740  13.401  18.313  0.00  0.00    +0.000 A 
ATOM     22  C   UNL     1       2.397  12.073  17.985  0.00  0.00    +0.000 A 
ATOM     23  C   UNL     1       1.630  11.380  18.890  0.00  0.00    +0.000 A 
ATOM     24  H   UNL     1      -0.245  11.223  21.317  0.00  0.00    +0.000 HD
ENDBRANCH  13  14
ENDBRANCH   1  13
TORSDOF 5
ENDMDL
MODEL 9
REMARK VINA RESULT:      -7.0      2.657      4.795
REMARK  Name = 
REMARK  8 active torsions:
REMARK  status: ('A' for Active; 'I' for Inactive)
REMARK    1  A    between atoms: C_1  and  C_2
REMARK    2  A    between atoms: C_2  and  C_3
REMARK    3  A    between atoms: C_2  and  C_4
REMARK    4  A    between atoms: C_2  and  C_5
REMARK    5  A    between atoms: C_10  and  O_11
REMARK    6  A    between atoms: O_11  and  C_12
REMARK    7  A    between atoms: C_12  and  C_13
REMARK    8  A    between atoms: C_13  and  N_14
REMARK                            x       y       z     vdW  Elec       q    Type
REMARK                         _______ _______ _______ _____ _____    ______ ____
ROOT
ATOM      1  C   UNL     1       2.093   5.655  19.968  0.00  0.00    +0.000 C 
ENDROOT
BRANCH   1   2
ATOM      2  O   UNL     1       2.206   6.974  20.498  0.00  0.00    +0.000 OA
BRANCH   2   8
ATOM      3  C   UNL     1       1.053   9.277  20.352  0.00  0.00    +0.000 A 
ATOM      4  C   UNL     1       0.859  10.296  19.380  0.00  0.00    +0.000 A 
ATOM      5  C   UNL     1       1.273  10.239  18.044  0.00  0.00    +0.000 A 
ATOM      6  C   UNL     1       1.942   9.111  17.625  0.00  0.00    +0.000 A 
ATOM      7  C   UNL     1       2.192   8.090  18.548  0.00  0.00    +0.000 A 
ATOM      8  C   UNL     1       1.798   8.142  19.915  0.00  0.00    +0.000 A 
BRANCH   3  10
ATOM      9  C   UNL     1       1.239   9.457  22.965  0.00  0.00    +0.000 C 
ATOM     10  C   UNL     1       0.303   9.514  21.707  0.00  0.00    +0.000 C 
ATOM     11  C   UNL     1      -0.764   8.457  22.055  0.00  0.00    +0.000 C 
ATOM     12  C   UNL     1      -0.298  10.934  21.718  0.00  0.00    +0.000 C 
ENDBRANCH   3  10
ENDBRANCH   2   8
ENDBRANCH   1   2
BRANCH   1  13
ATOM     13  C   UNL     1       3.448   4.899  20.015  0.00  0.00    +0.000 C 
BRANCH  13  14
ATOM     14  N   UNL     1       3.909   4.282  18.765  0.00  0.00    +0.000 N 
ATOM     15  C   UNL     1       3.613   2.964  18.342  0.00  0.00    +0.000 A 
ATOM     16  S   UNL     1       2.436   1.931  18.881  0.00  0.00    +0.000 S 
ATOM     17  N   UNL     1       4.410   2.687  17.223  0.00  0.00    +0.000 N 
ATOM     18  C   UNL     1       4.904   3.900  16.749  0.00  0.00    +0.000 A 
ATOM     19  C   UNL     1       5.486   4.124  15.512  0.00  0.00    +0.000 A 
ATOM     20  C   UNL     1       5.620   5.462  15.148  0.00  0.00    +0.000 A 
ATOM     21  C   UNL     1       5.237   6.496  16.037  0.00  0.00    +0.000 A 
ATOM     22  C   UNL     1       4.720   6.225  17.321  0.00  0.00    +0.000 A 
ATOM     23  C   UNL     1       4.545   4.906  17.663  0.00  0.00    +0.000 A 
ATOM     24  H   UNL     1       5.045   1.901  17.274  0.00  0.00    +0.000 HD
ENDBRANCH  13  14
ENDBRANCH   1  13
TORSDOF 5
ENDMDL
