MODEL 1
REMARK VINA RESULT:      -8.2      0.000      0.000
REMARK  Name = 
REMARK  10 active torsions:
REMARK  status: ('A' for Active; 'I' for Inactive)
REMARK    1  A    between atoms: C_1  and  C_2
REMARK    2  A    between atoms: C_2  and  N_3
REMARK    3  A    between atoms: N_3  and  C_4
REMARK    4  A    between atoms: C_4  and  C_5
REMARK    5  A    between atoms: C_6  and  C_8
REMARK    6  A    between atoms: C_8  and  N_9
REMARK    7  A    between atoms: C_11  and  S_12
REMARK    8  A    between atoms: S_12  and  C_15
REMARK    9  A    between atoms: C_15  and  C_16
REMARK   10  A    between atoms: C_21  and  C_22
REMARK                            x       y       z     vdW  Elec       q    Type
REMARK                         _______ _______ _______ _____ _____    ______ ____
ROOT
ATOM      1  N   UNL     1       2.869   6.401  18.701  0.00  0.00    +0.000 N 
ATOM      2  C   UNL     1       3.937   6.655  17.882  0.00  0.00    +0.000 A 
ATOM      3  C   UNL     1       4.242   5.482  17.211  0.00  0.00    +0.000 A 
ATOM      4  C   UNL     1       3.334   4.479  17.646  0.00  0.00    +0.000 A 
ATOM      5  C   UNL     1       3.134   3.117  17.330  0.00  0.00    +0.000 A 
ATOM      6  C   UNL     1       2.117   2.398  17.960  0.00  0.00    +0.000 A 
ATOM      7  C   UNL     1       1.299   3.009  18.904  0.00  0.00    +0.000 A 
ATOM      8  C   UNL     1       1.472   4.357  19.235  0.00  0.00    +0.000 A 
ATOM      9  C   UNL     1       2.489   5.078  18.591  0.00  0.00    +0.000 A 
ENDROOT
BRANCH   3  10
ATOM     10  S   UNL     1       5.468   5.274  16.022  0.00  0.00    +0.000 S 
ATOM     11  O   UNL     1       5.081   4.097  15.264  0.00  0.00    +0.000 OA
ATOM     12  O   UNL     1       5.579   6.576  15.374  0.00  0.00    +0.000 OA
BRANCH  10  13
ATOM     13  C   UNL     1       6.966   4.943  16.885  0.00  0.00    +0.000 C 
BRANCH  13  14
ATOM     14  C   UNL     1       7.301   6.129  17.726  0.00  0.00    +0.000 C 
ATOM     15  O   UNL     1       7.198   6.094  18.949  0.00  0.00    +0.000 OA
ATOM     16  N   UNL     1       7.679   7.246  17.012  0.00  0.00    +0.000 N 
ATOM     17  C   UNL     1       8.057   8.402  17.664  0.00  0.00    +0.000 A 
ATOM     18  C   UNL     1       8.882   8.522  18.800  0.00  0.00    +0.000 A 
ATOM     19  C   UNL     1       8.903   9.867  19.055  0.00  0.00    +0.000 A 
ATOM     20  C   UNL     1       9.557  10.704  20.075  0.00  0.00    +0.000 C 
ATOM     21  O   UNL     1       8.148  10.514  18.128  0.00  0.00    +0.000 OA
ATOM     22  N   UNL     1       7.671   9.594  17.207  0.00  0.00    +0.000 NA
ATOM     23  H   UNL     1       7.324   7.392  16.075  0.00  0.00    +0.000 HD
ENDBRANCH  13  14
ENDBRANCH  10  13
ENDBRANCH   3  10
BRANCH   1  24
ATOM     24  C   UNL     1       2.291   7.376  19.623  0.00  0.00    +0.000 C 
BRANCH  24  26
ATOM     25  N   UNL     1       0.974   9.527  19.652  0.00  0.00    +0.000 N 
ATOM     26  C   UNL     1       1.639   8.549  18.894  0.00  0.00    +0.000 C 
ATOM     27  O   UNL     1       1.691   8.619  17.663  0.00  0.00    +0.000 OA
BRANCH  25  29
ATOM     28  C   UNL     1      -0.985  10.673  18.576  0.00  0.00    +0.000 C 
ATOM     29  C   UNL     1       0.494  10.718  18.937  0.00  0.00    +0.000 C 
ENDBRANCH  25  29
BRANCH  25  30
ATOM     30  C   UNL     1       0.856   9.414  21.110  0.00  0.00    +0.000 C 
ATOM     31  C   UNL     1      -0.347   8.710  21.709  0.00  0.00    +0.000 C 
ENDBRANCH  25  30
ENDBRANCH  24  26
ENDBRANCH   1  24
TORSDOF 7
ENDMDL
MODEL 2
REMARK VINA RESULT:      -7.6      3.075      6.368
REMARK  Name = 
REMARK  10 active torsions:
REMARK  status: ('A' for Active; 'I' for Inactive)
REMARK    1  A    between atoms: C_1  and  C_2
REMARK    2  A    between atoms: C_2  and  N_3
REMARK    3  A    between atoms: N_3  and  C_4
REMARK    4  A    between atoms: C_4  and  C_5
REMARK    5  A    between atoms: C_6  and  C_8
REMARK    6  A    between atoms: C_8  and  N_9
REMARK    7  A    between atoms: C_11  and  S_12
REMARK    8  A    between atoms: S_12  and  C_15
REMARK    9  A    between atoms: C_15  and  C_16
REMARK   10  A    between atoms: C_21  and  C_22
REMARK                            x       y       z     vdW  Elec       q    Type
REMARK                         _______ _______ _______ _____ _____    ______ ____
ROOT
ATOM      1  N   UNL     1       3.480   5.616  19.773  0.00  0.00    +0.000 N 
ATOM      2  C   UNL     1       4.638   5.299  19.113  0.00  0.00    +0.000 A 
ATOM      3  C   UNL     1       4.845   6.262  18.139  0.00  0.00    +0.000 A 
ATOM      4  C   UNL     1       3.770   7.189  18.204  0.00  0.00    +0.000 A 
ATOM      5  C   UNL     1       3.429   8.365  17.497  0.00  0.00    +0.000 A 
ATOM      6  C   UNL     1       2.266   9.061  17.825  0.00  0.00    +0.000 A 
ATOM      7  C   UNL     1       1.429   8.605  18.838  0.00  0.00    +0.000 A 
ATOM      8  C   UNL     1       1.742   7.445  19.556  0.00  0.00    +0.000 A 
ATOM      9  C   UNL     1       2.920   6.755  19.230  0.00  0.00    +0.000 A 
ENDROOT
BRANCH   3  10
ATOM     10  S   UNL     1       6.188   6.359  17.067  0.00  0.00    +0.000 S 
ATOM     11  O   UNL     1       5.652   6.862  15.814  0.00  0.00    +0.000 OA
ATOM     12  O   UNL     1       7.195   7.113  17.805  0.00  0.00    +0.000 OA
BRANCH  10  13
ATOM     13  C   UNL     1       6.772   4.714  16.831  0.00  0.00    +0.000 C 
BRANCH  13  14
ATOM     14  C   UNL     1       6.032   4.109  15.685  0.00  0.00    +0.000 C 
ATOM     15  O   UNL     1       4.973   3.513  15.853  0.00  0.00    +0.000 OA
ATOM     16  N   UNL     1       6.663   4.242  14.467  0.00  0.00    +0.000 N 
ATOM     17  C   UNL     1       6.071   3.765  13.315  0.00  0.00    +0.000 A 
ATOM     18  C   UNL     1       4.720   3.876  12.929  0.00  0.00    +0.000 A 
ATOM     19  C   UNL     1       4.659   3.208  11.735  0.00  0.00    +0.000 A 
ATOM     20  C   UNL     1       3.579   2.927  10.774  0.00  0.00    +0.000 C 
ATOM     21  O   UNL     1       5.894   2.734  11.419  0.00  0.00    +0.000 OA
ATOM     22  N   UNL     1       6.800   3.148  12.384  0.00  0.00    +0.000 NA
ATOM     23  H   UNL     1       7.672   4.304  14.422  0.00  0.00    +0.000 HD
ENDBRANCH  13  14
ENDBRANCH  10  13
ENDBRANCH   3  10
BRANCH   1  24
ATOM     24  C   UNL     1       2.888   4.800  20.830  0.00  0.00    +0.000 C 
BRANCH  24  26
ATOM     25  N   UNL     1       2.123   2.801  19.496  0.00  0.00    +0.000 N 
ATOM     26  C   UNL     1       2.948   3.307  20.514  0.00  0.00    +0.000 C 
ATOM     27  O   UNL     1       3.700   2.569  21.155  0.00  0.00    +0.000 OA
BRANCH  25  29
ATOM     28  C   UNL     1       3.568   1.142  18.282  0.00  0.00    +0.000 C 
ATOM     29  C   UNL     1       2.317   1.394  19.113  0.00  0.00    +0.000 C 
ENDBRANCH  25  29
BRANCH  25  30
ATOM     30  C   UNL     1       1.182   3.664  18.775  0.00  0.00    +0.000 C 
ATOM     31  C   UNL     1       1.493   4.081  17.349  0.00  0.00    +0.000 C 
ENDBRANCH  25  30
ENDBRANCH  24  26
ENDBRANCH   1  24
TORSDOF 7
ENDMDL
MODEL 3
REMARK VINA RESULT:      -7.5      3.426      7.504
REMARK  Name = 
REMARK  10 active torsions:
REMARK  status: ('A' for Active; 'I' for Inactive)
REMARK    1  A    between atoms: C_1  and  C_2
REMARK    2  A    between atoms: C_2  and  N_3
REMARK    3  A    between atoms: N_3  and  C_4
REMARK    4  A    between atoms: C_4  and  C_5
REMARK    5  A    between atoms: C_6  and  C_8
REMARK    6  A    between atoms: C_8  and  N_9
REMARK    7  A    between atoms: C_11  and  S_12
REMARK    8  A    between atoms: S_12  and  C_15
REMARK    9  A    between atoms: C_15  and  C_16
REMARK   10  A    between atoms: C_21  and  C_22
REMARK                            x       y       z     vdW  Elec       q    Type
REMARK                         _______ _______ _______ _____ _____    ______ ____
ROOT
ATOM      1  N   UNL     1       5.076   4.604  15.815  0.00  0.00    +0.000 N 
ATOM      2  C   UNL     1       4.223   3.662  16.327  0.00  0.00    +0.000 A 
ATOM      3  C   UNL     1       4.487   3.546  17.682  0.00  0.00    +0.000 A 
ATOM      4  C   UNL     1       5.543   4.442  18.000  0.00  0.00    +0.000 A 
ATOM      5  C   UNL     1       6.233   4.781  19.186  0.00  0.00    +0.000 A 
ATOM      6  C   UNL     1       7.252   5.734  19.151  0.00  0.00    +0.000 A 
ATOM      7  C   UNL     1       7.603   6.350  17.954  0.00  0.00    +0.000 A 
ATOM      8  C   UNL     1       6.935   6.037  16.765  0.00  0.00    +0.000 A 
ATOM      9  C   UNL     1       5.904   5.086  16.809  0.00  0.00    +0.000 A 
ENDROOT
BRANCH   3  10
ATOM     10  S   UNL     1       3.656   2.539  18.802  0.00  0.00    +0.000 S 
ATOM     11  O   UNL     1       4.007   1.177  18.436  0.00  0.00    +0.000 OA
ATOM     12  O   UNL     1       4.007   3.074  20.112  0.00  0.00    +0.000 OA
BRANCH  10  13
ATOM     13  C   UNL     1       1.934   2.787  18.533  0.00  0.00    +0.000 C 
BRANCH  13  14
ATOM     14  C   UNL     1       1.523   4.046  19.221  0.00  0.00    +0.000 C 
ATOM     15  O   UNL     1       0.569   4.069  19.992  0.00  0.00    +0.000 OA
ATOM     16  N   UNL     1       2.271   5.152  18.879  0.00  0.00    +0.000 N 
ATOM     17  C   UNL     1       2.028   6.375  19.472  0.00  0.00    +0.000 A 
ATOM     18  C   UNL     1       1.771   6.638  20.832  0.00  0.00    +0.000 A 
ATOM     19  C   UNL     1       1.564   7.992  20.876  0.00  0.00    +0.000 A 
ATOM     20  C   UNL     1       1.254   8.944  21.954  0.00  0.00    +0.000 C 
ATOM     21  O   UNL     1       1.697   8.509  19.625  0.00  0.00    +0.000 OA
ATOM     22  N   UNL     1       2.060   7.496  18.750  0.00  0.00    +0.000 NA
ATOM     23  H   UNL     1       2.701   5.211  17.964  0.00  0.00    +0.000 HD
ENDBRANCH  13  14
ENDBRANCH  10  13
ENDBRANCH   3  10
BRANCH   1  24
ATOM     24  C   UNL     1       5.150   4.962  14.401  0.00  0.00    +0.000 C 
BRANCH  24  26
ATOM     25  N   UNL     1       5.727   3.401  12.506  0.00  0.00    +0.000 N 
ATOM     26  C   UNL     1       6.162   4.111  13.638  0.00  0.00    +0.000 C 
ATOM     27  O   UNL     1       7.332   4.045  14.024  0.00  0.00    +0.000 OA
BRANCH  25  29
ATOM     28  C   UNL     1       6.406   1.282  11.339  0.00  0.00    +0.000 C 
ATOM     29  C   UNL     1       6.756   2.717  11.707  0.00  0.00    +0.000 C 
ENDBRANCH  25  29
BRANCH  25  30
ATOM     30  C   UNL     1       4.324   3.425  12.081  0.00  0.00    +0.000 C 
ATOM     31  C   UNL     1       3.990   3.674  10.622  0.00  0.00    +0.000 C 
ENDBRANCH  25  30
ENDBRANCH  24  26
ENDBRANCH   1  24
TORSDOF 7
ENDMDL
MODEL 4
REMARK VINA RESULT:      -7.5      2.927      4.769
REMARK  Name = 
REMARK  10 active torsions:
REMARK  status: ('A' for Active; 'I' for Inactive)
REMARK    1  A    between atoms: C_1  and  C_2
REMARK    2  A    between atoms: C_2  and  N_3
REMARK    3  A    between atoms: N_3  and  C_4
REMARK    4  A    between atoms: C_4  and  C_5
REMARK    5  A    between atoms: C_6  and  C_8
REMARK    6  A    between atoms: C_8  and  N_9
REMARK    7  A    between atoms: C_11  and  S_12
REMARK    8  A    between atoms: S_12  and  C_15
REMARK    9  A    between atoms: C_15  and  C_16
REMARK   10  A    between atoms: C_21  and  C_22
REMARK                            x       y       z     vdW  Elec       q    Type
REMARK                         _______ _______ _______ _____ _____    ______ ____
ROOT
ATOM      1  N   UNL     1       2.707   6.524  19.569  0.00  0.00    +0.000 N 
ATOM      2  C   UNL     1       3.854   6.516  18.822  0.00  0.00    +0.000 A 
ATOM      3  C   UNL     1       4.178   5.194  18.562  0.00  0.00    +0.000 A 
ATOM      4  C   UNL     1       3.198   4.373  19.182  0.00  0.00    +0.000 A 
ATOM      5  C   UNL     1       2.980   2.979  19.265  0.00  0.00    +0.000 A 
ATOM      6  C   UNL     1       1.884   2.487  19.975  0.00  0.00    +0.000 A 
ATOM      7  C   UNL     1       1.005   3.357  20.611  0.00  0.00    +0.000 A 
ATOM      8  C   UNL     1       1.194   4.742  20.543  0.00  0.00    +0.000 A 
ATOM      9  C   UNL     1       2.292   5.231  19.818  0.00  0.00    +0.000 A 
ENDROOT
BRANCH   3  10
ATOM     10  S   UNL     1       5.501   4.634  17.614  0.00  0.00    +0.000 S 
ATOM     11  O   UNL     1       6.622   4.529  18.533  0.00  0.00    +0.000 OA
ATOM     12  O   UNL     1       4.988   3.457  16.923  0.00  0.00    +0.000 OA
BRANCH  10  13
ATOM     13  C   UNL     1       5.842   5.885  16.423  0.00  0.00    +0.000 C 
BRANCH  13  14
ATOM     14  C   UNL     1       6.243   5.227  15.145  0.00  0.00    +0.000 C 
ATOM     15  O   UNL     1       7.371   5.366  14.683  0.00  0.00    +0.000 OA
ATOM     16  N   UNL     1       5.237   4.509  14.534  0.00  0.00    +0.000 N 
ATOM     17  C   UNL     1       5.480   3.814  13.367  0.00  0.00    +0.000 A 
ATOM     18  C   UNL     1       6.601   3.021  13.053  0.00  0.00    +0.000 A 
ATOM     19  C   UNL     1       6.361   2.597  11.772  0.00  0.00    +0.000 A 
ATOM     20  C   UNL     1       7.095   1.745  10.822  0.00  0.00    +0.000 C 
ATOM     21  O   UNL     1       5.169   3.097  11.348  0.00  0.00    +0.000 OA
ATOM     22  N   UNL     1       4.580   3.808  12.382  0.00  0.00    +0.000 NA
ATOM     23  H   UNL     1       4.270   4.779  14.665  0.00  0.00    +0.000 HD
ENDBRANCH  13  14
ENDBRANCH  10  13
ENDBRANCH   3  10
BRANCH   1  24
ATOM     24  C   UNL     1       2.081   7.733  20.099  0.00  0.00    +0.000 C 
BRANCH  24  26
ATOM     25  N   UNL     1       0.452   9.509  19.355  0.00  0.00    +0.000 N 
ATOM     26  C   UNL     1       1.457   8.593  19.002  0.00  0.00    +0.000 C 
ATOM     27  O   UNL     1       1.826   8.467  17.832  0.00  0.00    +0.000 OA
BRANCH  25  29
ATOM     28  C   UNL     1      -1.478  10.238  17.922  0.00  0.00    +0.000 C 
ATOM     29  C   UNL     1      -0.017  10.427  18.306  0.00  0.00    +0.000 C 
ENDBRANCH  25  29
BRANCH  25  30
ATOM     30  C   UNL     1      -0.034   9.617  20.734  0.00  0.00    +0.000 C 
ATOM     31  C   UNL     1       0.238  10.882  21.526  0.00  0.00    +0.000 C 
ENDBRANCH  25  30
ENDBRANCH  24  26
ENDBRANCH   1  24
TORSDOF 7
ENDMDL
MODEL 5
REMARK VINA RESULT:      -7.4      3.218      7.399
REMARK  Name = 
REMARK  10 active torsions:
REMARK  status: ('A' for Active; 'I' for Inactive)
REMARK    1  A    between atoms: C_1  and  C_2
REMARK    2  A    between atoms: C_2  and  N_3
REMARK    3  A    between atoms: N_3  and  C_4
REMARK    4  A    between atoms: C_4  and  C_5
REMARK    5  A    between atoms: C_6  and  C_8
REMARK    6  A    between atoms: C_8  and  N_9
REMARK    7  A    between atoms: C_11  and  S_12
REMARK    8  A    between atoms: S_12  and  C_15
REMARK    9  A    between atoms: C_15  and  C_16
REMARK   10  A    between atoms: C_21  and  C_22
REMARK                            x       y       z     vdW  Elec       q    Type
REMARK                         _______ _______ _______ _____ _____    ______ ____
ROOT
ATOM      1  N   UNL     1       5.220   5.152  15.854  0.00  0.00    +0.000 N 
ATOM      2  C   UNL     1       4.199   4.323  16.240  0.00  0.00    +0.000 A 
ATOM      3  C   UNL     1       4.344   4.080  17.596  0.00  0.00    +0.000 A 
ATOM      4  C   UNL     1       5.499   4.777  18.045  0.00  0.00    +0.000 A 
ATOM      5  C   UNL     1       6.145   4.926  19.293  0.00  0.00    +0.000 A 
ATOM      6  C   UNL     1       7.296   5.708  19.392  0.00  0.00    +0.000 A 
ATOM      7  C   UNL     1       7.821   6.339  18.270  0.00  0.00    +0.000 A 
ATOM      8  C   UNL     1       7.202   6.212  17.022  0.00  0.00    +0.000 A 
ATOM      9  C   UNL     1       6.038   5.433  16.930  0.00  0.00    +0.000 A 
ENDROOT
BRANCH   3  10
ATOM     10  S   UNL     1       3.292   3.143  18.584  0.00  0.00    +0.000 S 
ATOM     11  O   UNL     1       1.958   3.369  18.056  0.00  0.00    +0.000 OA
ATOM     12  O   UNL     1       3.879   1.808  18.587  0.00  0.00    +0.000 OA
BRANCH  10  13
ATOM     13  C   UNL     1       3.393   3.809  20.211  0.00  0.00    +0.000 C 
BRANCH  13  14
ATOM     14  C   UNL     1       2.430   4.944  20.320  0.00  0.00    +0.000 C 
ATOM     15  O   UNL     1       1.297   4.779  20.764  0.00  0.00    +0.000 OA
ATOM     16  N   UNL     1       2.909   6.145  19.843  0.00  0.00    +0.000 N 
ATOM     17  C   UNL     1       2.139   7.288  19.920  0.00  0.00    +0.000 A 
ATOM     18  C   UNL     1       1.352   7.727  21.003  0.00  0.00    +0.000 A 
ATOM     19  C   UNL     1       0.774   8.882  20.548  0.00  0.00    +0.000 A 
ATOM     20  C   UNL     1      -0.153   9.863  21.136  0.00  0.00    +0.000 C 
ATOM     21  O   UNL     1       1.193   9.126  19.277  0.00  0.00    +0.000 OA
ATOM     22  N   UNL     1       2.112   8.156  18.908  0.00  0.00    +0.000 NA
ATOM     23  H   UNL     1       3.602   6.158  19.105  0.00  0.00    +0.000 HD
ENDBRANCH  13  14
ENDBRANCH  10  13
ENDBRANCH   3  10
BRANCH   1  24
ATOM     24  C   UNL     1       5.449   5.586  14.478  0.00  0.00    +0.000 C 
BRANCH  24  26
ATOM     25  N   UNL     1       6.221   3.768  12.909  0.00  0.00    +0.000 N 
ATOM     26  C   UNL     1       6.567   4.798  13.799  0.00  0.00    +0.000 C 
ATOM     27  O   UNL     1       7.747   5.061  14.045  0.00  0.00    +0.000 OA
BRANCH  25  29
ATOM     28  C   UNL     1       6.901   1.885  11.391  0.00  0.00    +0.000 C 
ATOM     29  C   UNL     1       7.314   3.135  12.157  0.00  0.00    +0.000 C 
ENDBRANCH  25  29
BRANCH  25  30
ATOM     30  C   UNL     1       4.820   3.409  12.663  0.00  0.00    +0.000 C 
ATOM     31  C   UNL     1       4.193   3.726  11.318  0.00  0.00    +0.000 C 
ENDBRANCH  25  30
ENDBRANCH  24  26
ENDBRANCH   1  24
TORSDOF 7
ENDMDL
MODEL 6
REMARK VINA RESULT:      -7.3      2.795      4.845
REMARK  Name = 
REMARK  10 active torsions:
REMARK  status: ('A' for Active; 'I' for Inactive)
REMARK    1  A    between atoms: C_1  and  C_2
REMARK    2  A    between atoms: C_2  and  N_3
REMARK    3  A    between atoms: N_3  and  C_4
REMARK    4  A    between atoms: C_4  and  C_5
REMARK    5  A    between atoms: C_6  and  C_8
REMARK    6  A    between atoms: C_8  and  N_9
REMARK    7  A    between atoms: C_11  and  S_12
REMARK    8  A    between atoms: S_12  and  C_15
REMARK    9  A    between atoms: C_15  and  C_16
REMARK   10  A    between atoms: C_21  and  C_22
REMARK                            x       y       z     vdW  Elec       q    Type
REMARK                         _______ _______ _______ _____ _____    ______ ____
ROOT
ATOM      1  N   UNL     1       2.779   6.647  18.508  0.00  0.00    +0.000 N 
ATOM      2  C   UNL     1       3.912   7.084  17.872  0.00  0.00    +0.000 A 
ATOM      3  C   UNL     1       4.896   6.127  18.061  0.00  0.00    +0.000 A 
ATOM      4  C   UNL     1       4.344   5.080  18.848  0.00  0.00    +0.000 A 
ATOM      5  C   UNL     1       4.834   3.855  19.353  0.00  0.00    +0.000 A 
ATOM      6  C   UNL     1       4.002   3.032  20.113  0.00  0.00    +0.000 A 
ATOM      7  C   UNL     1       2.692   3.412  20.388  0.00  0.00    +0.000 A 
ATOM      8  C   UNL     1       2.179   4.618  19.899  0.00  0.00    +0.000 A 
ATOM      9  C   UNL     1       3.017   5.436  19.125  0.00  0.00    +0.000 A 
ENDROOT
BRANCH   3  10
ATOM     10  S   UNL     1       6.493   6.164  17.421  0.00  0.00    +0.000 S 
ATOM     11  O   UNL     1       6.388   6.866  16.153  0.00  0.00    +0.000 OA
ATOM     12  O   UNL     1       7.313   6.695  18.504  0.00  0.00    +0.000 OA
BRANCH  10  13
ATOM     13  C   UNL     1       6.962   4.493  17.123  0.00  0.00    +0.000 C 
BRANCH  13  14
ATOM     14  C   UNL     1       6.214   3.996  15.931  0.00  0.00    +0.000 C 
ATOM     15  O   UNL     1       5.151   3.394  16.051  0.00  0.00    +0.000 OA
ATOM     16  N   UNL     1       6.840   4.233  14.726  0.00  0.00    +0.000 N 
ATOM     17  C   UNL     1       6.240   3.864  13.539  0.00  0.00    +0.000 A 
ATOM     18  C   UNL     1       4.888   4.018  13.171  0.00  0.00    +0.000 A 
ATOM     19  C   UNL     1       4.818   3.459  11.922  0.00  0.00    +0.000 A 
ATOM     20  C   UNL     1       3.732   3.271  10.946  0.00  0.00    +0.000 C 
ATOM     21  O   UNL     1       6.048   3.007  11.561  0.00  0.00    +0.000 OA
ATOM     22  N   UNL     1       6.961   3.327  12.554  0.00  0.00    +0.000 NA
ATOM     23  H   UNL     1       7.849   4.293  14.682  0.00  0.00    +0.000 HD
ENDBRANCH  13  14
ENDBRANCH  10  13
ENDBRANCH   3  10
BRANCH   1  24
ATOM     24  C   UNL     1       1.538   7.413  18.591  0.00  0.00    +0.000 C 
BRANCH  24  26
ATOM     25  N   UNL     1       1.030   9.681  19.570  0.00  0.00    +0.000 N 
ATOM     26  C   UNL     1       1.534   8.385  19.769  0.00  0.00    +0.000 C 
ATOM     27  O   UNL     1       1.978   8.032  20.864  0.00  0.00    +0.000 OA
BRANCH  25  29
ATOM     28  C   UNL     1      -0.397  10.328  21.534  0.00  0.00    +0.000 C 
ATOM     29  C   UNL     1       0.896  10.539  20.758  0.00  0.00    +0.000 C 
ENDBRANCH  25  29
BRANCH  25  30
ATOM     30  C   UNL     1       0.560  10.125  18.254  0.00  0.00    +0.000 C 
ATOM     31  C   UNL     1      -0.929  10.152  17.962  0.00  0.00    +0.000 C 
ENDBRANCH  25  30
ENDBRANCH  24  26
ENDBRANCH   1  24
TORSDOF 7
ENDMDL
MODEL 7
REMARK VINA RESULT:      -7.3      1.716      2.313
REMARK  Name = 
REMARK  10 active torsions:
REMARK  status: ('A' for Active; 'I' for Inactive)
REMARK    1  A    between atoms: C_1  and  C_2
REMARK    2  A    between atoms: C_2  and  N_3
REMARK    3  A    between atoms: N_3  and  C_4
REMARK    4  A    between atoms: C_4  and  C_5
REMARK    5  A    between atoms: C_6  and  C_8
REMARK    6  A    between atoms: C_8  and  N_9
REMARK    7  A    between atoms: C_11  and  S_12
REMARK    8  A    between atoms: S_12  and  C_15
REMARK    9  A    between atoms: C_15  and  C_16
REMARK   10  A    between atoms: C_21  and  C_22
REMARK                            x       y       z     vdW  Elec       q    Type
REMARK                         _______ _______ _______ _____ _____    ______ ____
ROOT
ATOM      1  N   UNL     1       3.239   6.711  17.740  0.00  0.00    +0.000 N 
ATOM      2  C   UNL     1       4.571   6.997  17.596  0.00  0.00    +0.000 A 
ATOM      3  C   UNL     1       5.249   5.795  17.470  0.00  0.00    +0.000 A 
ATOM      4  C   UNL     1       4.296   4.744  17.551  0.00  0.00    +0.000 A 
ATOM      5  C   UNL     1       4.365   3.334  17.482  0.00  0.00    +0.000 A 
ATOM      6  C   UNL     1       3.201   2.574  17.600  0.00  0.00    +0.000 A 
ATOM      7  C   UNL     1       1.969   3.190  17.793  0.00  0.00    +0.000 A 
ATOM      8  C   UNL     1       1.870   4.584  17.862  0.00  0.00    +0.000 A 
ATOM      9  C   UNL     1       3.042   5.345  17.732  0.00  0.00    +0.000 A 
ENDROOT
BRANCH   3  10
ATOM     10  S   UNL     1       6.938   5.597  17.211  0.00  0.00    +0.000 S 
ATOM     11  O   UNL     1       7.188   4.171  17.335  0.00  0.00    +0.000 OA
ATOM     12  O   UNL     1       7.205   6.296  15.960  0.00  0.00    +0.000 OA
BRANCH  10  13
ATOM     13  C   UNL     1       7.758   6.446  18.519  0.00  0.00    +0.000 C 
BRANCH  13  14
ATOM     14  C   UNL     1       8.066   7.833  18.063  0.00  0.00    +0.000 C 
ATOM     15  O   UNL     1       7.805   8.202  16.922  0.00  0.00    +0.000 OA
ATOM     16  N   UNL     1       8.695   8.616  19.007  0.00  0.00    +0.000 N 
ATOM     17  C   UNL     1       9.001   9.934  18.735  0.00  0.00    +0.000 A 
ATOM     18  C   UNL     1       8.193  10.892  18.090  0.00  0.00    +0.000 A 
ATOM     19  C   UNL     1       8.979  12.013  18.044  0.00  0.00    +0.000 A 
ATOM     20  C   UNL     1       8.786  13.376  17.521  0.00  0.00    +0.000 C 
ATOM     21  O   UNL     1      10.177  11.748  18.630  0.00  0.00    +0.000 OA
ATOM     22  N   UNL     1      10.163  10.455  19.129  0.00  0.00    +0.000 NA
ATOM     23  H   UNL     1       9.284   8.188  19.710  0.00  0.00    +0.000 HD
ENDBRANCH  13  14
ENDBRANCH  10  13
ENDBRANCH   3  10
BRANCH   1  24
ATOM     24  C   UNL     1       2.204   7.716  17.965  0.00  0.00    +0.000 C 
BRANCH  24  26
ATOM     25  N   UNL     1       1.252   9.125  19.828  0.00  0.00    +0.000 N 
ATOM     26  C   UNL     1       1.950   7.966  19.450  0.00  0.00    +0.000 C 
ATOM     27  O   UNL     1       2.366   7.166  20.292  0.00  0.00    +0.000 OA
BRANCH  25  29
ATOM     28  C   UNL     1      -0.452   8.631  21.608  0.00  0.00    +0.000 C 
ATOM     29  C   UNL     1       0.889   9.257  21.248  0.00  0.00    +0.000 C 
ENDBRANCH  25  29
BRANCH  25  30
ATOM     30  C   UNL     1       0.811  10.110  18.835  0.00  0.00    +0.000 C 
ATOM     31  C   UNL     1       1.632  11.368  18.616  0.00  0.00    +0.000 C 
ENDBRANCH  25  30
ENDBRANCH  24  26
ENDBRANCH   1  24
TORSDOF 7
ENDMDL
MODEL 8
REMARK VINA RESULT:      -7.1      3.674      7.205
REMARK  Name = 
REMARK  10 active torsions:
REMARK  status: ('A' for Active; 'I' for Inactive)
REMARK    1  A    between atoms: C_1  and  C_2
REMARK    2  A    between atoms: C_2  and  N_3
REMARK    3  A    between atoms: N_3  and  C_4
REMARK    4  A    between atoms: C_4  and  C_5
REMARK    5  A    between atoms: C_6  and  C_8
REMARK    6  A    between atoms: C_8  and  N_9
REMARK    7  A    between atoms: C_11  and  S_12
REMARK    8  A    between atoms: S_12  and  C_15
REMARK    9  A    between atoms: C_15  and  C_16
REMARK   10  A    between atoms: C_21  and  C_22
REMARK                            x       y       z     vdW  Elec       q    Type
REMARK                         _______ _______ _______ _____ _____    ______ ____
ROOT
ATOM      1  N   UNL     1      -1.170  12.202  19.516  0.00  0.00    +0.000 N 
ATOM      2  C   UNL     1       0.036  11.553  19.555  0.00  0.00    +0.000 A 
ATOM      3  C   UNL     1      -0.013  10.517  18.636  0.00  0.00    +0.000 A 
ATOM      4  C   UNL     1      -1.297  10.534  18.026  0.00  0.00    +0.000 A 
ATOM      5  C   UNL     1      -1.932   9.757  17.031  0.00  0.00    +0.000 A 
ATOM      6  C   UNL     1      -3.242  10.051  16.650  0.00  0.00    +0.000 A 
ATOM      7  C   UNL     1      -3.935  11.099  17.247  0.00  0.00    +0.000 A 
ATOM      8  C   UNL     1      -3.330  11.886  18.233  0.00  0.00    +0.000 A 
ATOM      9  C   UNL     1      -2.008  11.594  18.604  0.00  0.00    +0.000 A 
ENDROOT
BRANCH   3  10
ATOM     10  S   UNL     1       1.263   9.429  18.254  0.00  0.00    +0.000 S 
ATOM     11  O   UNL     1       0.649   8.363  17.481  0.00  0.00    +0.000 OA
ATOM     12  O   UNL     1       2.304  10.269  17.673  0.00  0.00    +0.000 OA
BRANCH  10  13
ATOM     13  C   UNL     1       1.851   8.776  19.780  0.00  0.00    +0.000 C 
BRANCH  13  14
ATOM     14  C   UNL     1       2.152   7.326  19.590  0.00  0.00    +0.000 C 
ATOM     15  O   UNL     1       1.784   6.486  20.406  0.00  0.00    +0.000 OA
ATOM     16  N   UNL     1       2.901   7.042  18.468  0.00  0.00    +0.000 N 
ATOM     17  C   UNL     1       3.217   5.738  18.147  0.00  0.00    +0.000 A 
ATOM     18  C   UNL     1       2.376   4.608  18.199  0.00  0.00    +0.000 A 
ATOM     19  C   UNL     1       3.187   3.572  17.818  0.00  0.00    +0.000 A 
ATOM     20  C   UNL     1       2.983   2.124  17.645  0.00  0.00    +0.000 C 
ATOM     21  O   UNL     1       4.431   4.049  17.548  0.00  0.00    +0.000 OA
ATOM     22  N   UNL     1       4.430   5.428  17.688  0.00  0.00    +0.000 NA
ATOM     23  H   UNL     1       3.547   7.730  18.102  0.00  0.00    +0.000 HD
ENDBRANCH  13  14
ENDBRANCH  10  13
ENDBRANCH   3  10
BRANCH   1  24
ATOM     24  C   UNL     1      -1.531  13.315  20.390  0.00  0.00    +0.000 C 
BRANCH  24  26
ATOM     25  N   UNL     1      -3.143  12.875  22.279  0.00  0.00    +0.000 N 
ATOM     26  C   UNL     1      -1.815  12.862  21.820  0.00  0.00    +0.000 C 
ATOM     27  O   UNL     1      -0.889  12.506  22.552  0.00  0.00    +0.000 OA
BRANCH  25  29
ATOM     28  C   UNL     1      -3.965  13.272  24.620  0.00  0.00    +0.000 C 
ATOM     29  C   UNL     1      -3.402  12.289  23.603  0.00  0.00    +0.000 C 
ENDBRANCH  25  29
BRANCH  25  30
ATOM     30  C   UNL     1      -4.240  13.358  21.433  0.00  0.00    +0.000 C 
ATOM     31  C   UNL     1      -5.464  12.485  21.226  0.00  0.00    +0.000 C 
ENDBRANCH  25  30
ENDBRANCH  24  26
ENDBRANCH   1  24
TORSDOF 7
ENDMDL
MODEL 9
REMARK VINA RESULT:      -7.1      4.696      8.184
REMARK  Name = 
REMARK  10 active torsions:
REMARK  status: ('A' for Active; 'I' for Inactive)
REMARK    1  A    between atoms: C_1  and  C_2
REMARK    2  A    between atoms: C_2  and  N_3
REMARK    3  A    between atoms: N_3  and  C_4
REMARK    4  A    between atoms: C_4  and  C_5
REMARK    5  A    between atoms: C_6  and  C_8
REMARK    6  A    between atoms: C_8  and  N_9
REMARK    7  A    between atoms: C_11  and  S_12
REMARK    8  A    between atoms: S_12  and  C_15
REMARK    9  A    between atoms: C_15  and  C_16
REMARK   10  A    between atoms: C_21  and  C_22
REMARK                            x       y       z     vdW  Elec       q    Type
REMARK                         _______ _______ _______ _____ _____    ______ ____
ROOT
ATOM      1  N   UNL     1      -1.505  11.301  18.820  0.00  0.00    +0.000 N 
ATOM      2  C   UNL     1      -1.404  10.225  19.662  0.00  0.00    +0.000 A 
ATOM      3  C   UNL     1      -0.470  10.540  20.637  0.00  0.00    +0.000 A 
ATOM      4  C   UNL     1       0.019  11.847  20.368  0.00  0.00    +0.000 A 
ATOM      5  C   UNL     1       0.954  12.704  20.992  0.00  0.00    +0.000 A 
ATOM      6  C   UNL     1       1.208  13.967  20.454  0.00  0.00    +0.000 A 
ATOM      7  C   UNL     1       0.555  14.389  19.301  0.00  0.00    +0.000 A 
ATOM      8  C   UNL     1      -0.377  13.563  18.664  0.00  0.00    +0.000 A 
ATOM      9  C   UNL     1      -0.638  12.299  19.216  0.00  0.00    +0.000 A 
ENDROOT
BRANCH   3  10
ATOM     10  S   UNL     1      -0.011   9.553  21.969  0.00  0.00    +0.000 S 
ATOM     11  O   UNL     1      -0.083  10.415  23.136  0.00  0.00    +0.000 OA
ATOM     12  O   UNL     1      -0.857   8.370  21.861  0.00  0.00    +0.000 OA
BRANCH  10  13
ATOM     13  C   UNL     1       1.663   9.078  21.700  0.00  0.00    +0.000 C 
BRANCH  13  14
ATOM     14  C   UNL     1       1.692   8.023  20.644  0.00  0.00    +0.000 C 
ATOM     15  O   UNL     1       1.667   8.313  19.452  0.00  0.00    +0.000 OA
ATOM     16  N   UNL     1       1.702   6.733  21.128  0.00  0.00    +0.000 N 
ATOM     17  C   UNL     1       1.771   5.659  20.264  0.00  0.00    +0.000 A 
ATOM     18  C   UNL     1       2.586   5.521  19.123  0.00  0.00    +0.000 A 
ATOM     19  C   UNL     1       2.240   4.298  18.613  0.00  0.00    +0.000 A 
ATOM     20  C   UNL     1       2.683   3.513  17.448  0.00  0.00    +0.000 C 
ATOM     21  O   UNL     1       1.286   3.734  19.400  0.00  0.00    +0.000 OA
ATOM     22  N   UNL     1       1.041   4.564  20.483  0.00  0.00    +0.000 NA
ATOM     23  H   UNL     1       1.272   6.523  22.021  0.00  0.00    +0.000 HD
ENDBRANCH  13  14
ENDBRANCH  10  13
ENDBRANCH   3  10
BRANCH   1  24
ATOM     24  C   UNL     1      -2.343  11.330  17.624  0.00  0.00    +0.000 C 
BRANCH  24  26
ATOM     25  N   UNL     1      -4.753  11.206  18.361  0.00  0.00    +0.000 N 
ATOM     26  C   UNL     1      -3.642  10.548  17.806  0.00  0.00    +0.000 C 
ATOM     27  O   UNL     1      -3.700   9.359  17.482  0.00  0.00    +0.000 OA
BRANCH  25  29
ATOM     28  C   UNL     1      -6.696  10.421  19.747  0.00  0.00    +0.000 C 
ATOM     29  C   UNL     1      -6.028  10.473  18.379  0.00  0.00    +0.000 C 
ENDBRANCH  25  29
BRANCH  25  30
ATOM     30  C   UNL     1      -4.670  12.601  18.807  0.00  0.00    +0.000 C 
ATOM     31  C   UNL     1      -4.312  12.903  20.250  0.00  0.00    +0.000 C 
ENDBRANCH  25  30
ENDBRANCH  24  26
ENDBRANCH   1  24
TORSDOF 7
ENDMDL
