MODEL 1
REMARK VINA RESULT:      -7.4      0.000      0.000
REMARK  Name = 
REMARK  7 active torsions:
REMARK  status: ('A' for Active; 'I' for Inactive)
REMARK    1  A    between atoms: C_1  and  C_2
REMARK    2  A    between atoms: C_6  and  C_7
REMARK    3  A    between atoms: C_10  and  O_11
REMARK    4  A    between atoms: C_12  and  O_13
REMARK    5  A    between atoms: C_16  and  C_17
REMARK    6  A    between atoms: C_20  and  O_21
REMARK    7  A    between atoms: C_22  and  O_23
REMARK                            x       y       z     vdW  Elec       q    Type
REMARK                         _______ _______ _______ _____ _____    ______ ____
ROOT
ATOM      1  C   UNL     1       1.459   2.881  20.489  0.00  0.00    +0.000 C 
ATOM      2  C   UNL     1       2.856   3.330  20.128  0.00  0.00    +0.000 C 
ATOM      3  O   UNL     1       3.792   2.532  20.074  0.00  0.00    +0.000 OA
ATOM      4  N   UNL     1       2.977   4.680  19.851  0.00  0.00    +0.000 N 
ATOM      5  N   UNL     1       1.940   5.546  20.076  0.00  0.00    +0.000 NA
ATOM      6  C   UNL     1       2.388   6.741  19.847  0.00  0.00    +0.000 C 
ATOM      7  C   UNL     1       3.825   6.827  19.409  0.00  0.00    +0.000 C 
ATOM      8  C   UNL     1       4.226   5.351  19.486  0.00  0.00    +0.000 C 
ENDROOT
BRANCH   6   9
ATOM      9  C   UNL     1       1.551   7.947  20.012  0.00  0.00    +0.000 A 
ATOM     10  C   UNL     1       0.842   8.134  21.212  0.00  0.00    +0.000 A 
ATOM     11  C   UNL     1       0.063   9.278  21.406  0.00  0.00    +0.000 A 
ATOM     12  C   UNL     1      -0.001  10.225  20.394  0.00  0.00    +0.000 A 
ATOM     13  C   UNL     1       0.698  10.034  19.203  0.00  0.00    +0.000 A 
ATOM     14  C   UNL     1       1.472   8.904  18.999  0.00  0.00    +0.000 A 
BRANCH  12  15
ATOM     15  O   UNL     1      -0.732  11.373  20.518  0.00  0.00    +0.000 OA
ATOM     16  H   UNL     1      -1.676  11.137  20.480  0.00  0.00    +0.000 HD
ENDBRANCH  12  15
BRANCH  13  17
ATOM     17  O   UNL     1       0.633  10.968  18.211  0.00  0.00    +0.000 OA
ATOM     18  H   UNL     1       1.505  11.416  18.238  0.00  0.00    +0.000 HD
ENDBRANCH  13  17
ENDBRANCH   6   9
BRANCH   8  19
ATOM     19  C   UNL     1       4.813   4.860  18.177  0.00  0.00    +0.000 A 
ATOM     20  C   UNL     1       3.971   4.454  17.125  0.00  0.00    +0.000 A 
ATOM     21  C   UNL     1       4.505   3.990  15.917  0.00  0.00    +0.000 A 
ATOM     22  C   UNL     1       5.885   3.921  15.767  0.00  0.00    +0.000 A 
ATOM     23  C   UNL     1       6.722   4.319  16.802  0.00  0.00    +0.000 A 
ATOM     24  C   UNL     1       6.203   4.792  17.997  0.00  0.00    +0.000 A 
BRANCH  22  25
ATOM     25  O   UNL     1       6.467   3.461  14.619  0.00  0.00    +0.000 OA
ATOM     26  H   UNL     1       6.182   2.540  14.485  0.00  0.00    +0.000 HD
ENDBRANCH  22  25
BRANCH  23  27
ATOM     27  O   UNL     1       8.076   4.237  16.656  0.00  0.00    +0.000 OA
ATOM     28  H   UNL     1       8.426   4.931  17.243  0.00  0.00    +0.000 HD
ENDBRANCH  23  27
ENDBRANCH   8  19
TORSDOF 6
ENDMDL
MODEL 2
REMARK VINA RESULT:      -7.4      1.228      1.771
REMARK  Name = 
REMARK  7 active torsions:
REMARK  status: ('A' for Active; 'I' for Inactive)
REMARK    1  A    between atoms: C_1  and  C_2
REMARK    2  A    between atoms: C_6  and  C_7
REMARK    3  A    between atoms: C_10  and  O_11
REMARK    4  A    between atoms: C_12  and  O_13
REMARK    5  A    between atoms: C_16  and  C_17
REMARK    6  A    between atoms: C_20  and  O_21
REMARK    7  A    between atoms: C_22  and  O_23
REMARK                            x       y       z     vdW  Elec       q    Type
REMARK                         _______ _______ _______ _____ _____    ______ ____
ROOT
ATOM      1  C   UNL     1       1.116   3.035  18.540  0.00  0.00    +0.000 C 
ATOM      2  C   UNL     1       2.569   3.405  18.732  0.00  0.00    +0.000 C 
ATOM      3  O   UNL     1       3.465   2.573  18.600  0.00  0.00    +0.000 OA
ATOM      4  N   UNL     1       2.791   4.735  19.043  0.00  0.00    +0.000 N 
ATOM      5  N   UNL     1       1.752   5.579  19.329  0.00  0.00    +0.000 NA
ATOM      6  C   UNL     1       2.272   6.708  19.701  0.00  0.00    +0.000 C 
ATOM      7  C   UNL     1       3.776   6.767  19.693  0.00  0.00    +0.000 C 
ATOM      8  C   UNL     1       4.108   5.329  19.282  0.00  0.00    +0.000 C 
ENDROOT
BRANCH   6   9
ATOM      9  C   UNL     1       1.449   7.862  20.115  0.00  0.00    +0.000 A 
ATOM     10  C   UNL     1       1.347   8.976  19.262  0.00  0.00    +0.000 A 
ATOM     11  C   UNL     1       0.555  10.071  19.616  0.00  0.00    +0.000 A 
ATOM     12  C   UNL     1      -0.128  10.043  20.824  0.00  0.00    +0.000 A 
ATOM     13  C   UNL     1      -0.019   8.940  21.670  0.00  0.00    +0.000 A 
ATOM     14  C   UNL     1       0.764   7.849  21.331  0.00  0.00    +0.000 A 
BRANCH  12  15
ATOM     15  O   UNL     1      -0.930  11.072  21.230  0.00  0.00    +0.000 OA
ATOM     16  H   UNL     1      -0.389  11.691  21.753  0.00  0.00    +0.000 HD
ENDBRANCH  12  15
BRANCH  13  17
ATOM     17  O   UNL     1      -0.693   8.916  22.856  0.00  0.00    +0.000 OA
ATOM     18  H   UNL     1      -0.378   8.100  23.300  0.00  0.00    +0.000 HD
ENDBRANCH  13  17
ENDBRANCH   6   9
BRANCH   8  19
ATOM     19  C   UNL     1       5.017   5.288  18.070  0.00  0.00    +0.000 A 
ATOM     20  C   UNL     1       4.596   5.833  16.843  0.00  0.00    +0.000 A 
ATOM     21  C   UNL     1       5.426   5.790  15.716  0.00  0.00    +0.000 A 
ATOM     22  C   UNL     1       6.674   5.187  15.816  0.00  0.00    +0.000 A 
ATOM     23  C   UNL     1       7.096   4.645  17.024  0.00  0.00    +0.000 A 
ATOM     24  C   UNL     1       6.287   4.696  18.149  0.00  0.00    +0.000 A 
BRANCH  22  25
ATOM     25  O   UNL     1       7.524   5.098  14.748  0.00  0.00    +0.000 OA
ATOM     26  H   UNL     1       7.488   5.941  14.264  0.00  0.00    +0.000 HD
ENDBRANCH  22  25
BRANCH  23  27
ATOM     27  O   UNL     1       8.316   4.044  17.115  0.00  0.00    +0.000 OA
ATOM     28  H   UNL     1       8.116   3.091  17.149  0.00  0.00    +0.000 HD
ENDBRANCH  23  27
ENDBRANCH   8  19
TORSDOF 6
ENDMDL
MODEL 3
REMARK VINA RESULT:      -7.3      1.319      1.868
REMARK  Name = 
REMARK  7 active torsions:
REMARK  status: ('A' for Active; 'I' for Inactive)
REMARK    1  A    between atoms: C_1  and  C_2
REMARK    2  A    between atoms: C_6  and  C_7
REMARK    3  A    between atoms: C_10  and  O_11
REMARK    4  A    between atoms: C_12  and  O_13
REMARK    5  A    between atoms: C_16  and  C_17
REMARK    6  A    between atoms: C_20  and  O_21
REMARK    7  A    between atoms: C_22  and  O_23
REMARK                            x       y       z     vdW  Elec       q    Type
REMARK                         _______ _______ _______ _____ _____    ______ ____
ROOT
ATOM      1  C   UNL     1       3.034   3.218  20.282  0.00  0.00    +0.000 C 
ATOM      2  C   UNL     1       4.208   3.799  19.528  0.00  0.00    +0.000 C 
ATOM      3  O   UNL     1       5.249   3.161  19.371  0.00  0.00    +0.000 OA
ATOM      4  N   UNL     1       4.001   5.072  19.027  0.00  0.00    +0.000 N 
ATOM      5  N   UNL     1       2.886   5.794  19.362  0.00  0.00    +0.000 NA
ATOM      6  C   UNL     1       3.033   6.977  18.850  0.00  0.00    +0.000 C 
ATOM      7  C   UNL     1       4.300   7.197  18.068  0.00  0.00    +0.000 C 
ATOM      8  C   UNL     1       4.989   5.845  18.270  0.00  0.00    +0.000 C 
ENDROOT
BRANCH   6   9
ATOM      9  C   UNL     1       2.031   8.047  19.027  0.00  0.00    +0.000 A 
ATOM     10  C   UNL     1       1.627   8.803  17.912  0.00  0.00    +0.000 A 
ATOM     11  C   UNL     1       0.661   9.804  18.045  0.00  0.00    +0.000 A 
ATOM     12  C   UNL     1       0.108  10.041  19.296  0.00  0.00    +0.000 A 
ATOM     13  C   UNL     1       0.515   9.295  20.400  0.00  0.00    +0.000 A 
ATOM     14  C   UNL     1       1.473   8.301  20.281  0.00  0.00    +0.000 A 
BRANCH  12  15
ATOM     15  O   UNL     1      -0.849  10.996  19.498  0.00  0.00    +0.000 OA
ATOM     16  H   UNL     1      -0.882  11.195  20.450  0.00  0.00    +0.000 HD
ENDBRANCH  12  15
BRANCH  13  17
ATOM     17  O   UNL     1      -0.031   9.531  21.627  0.00  0.00    +0.000 OA
ATOM     18  H   UNL     1      -0.708   8.829  21.734  0.00  0.00    +0.000 HD
ENDBRANCH  13  17
ENDBRANCH   6   9
BRANCH   8  19
ATOM     19  C   UNL     1       5.369   5.206  16.950  0.00  0.00    +0.000 A 
ATOM     20  C   UNL     1       4.578   4.181  16.398  0.00  0.00    +0.000 A 
ATOM     21  C   UNL     1       4.929   3.579  15.183  0.00  0.00    +0.000 A 
ATOM     22  C   UNL     1       6.080   3.996  14.527  0.00  0.00    +0.000 A 
ATOM     23  C   UNL     1       6.867   5.007  15.066  0.00  0.00    +0.000 A 
ATOM     24  C   UNL     1       6.521   5.618  16.261  0.00  0.00    +0.000 A 
BRANCH  22  25
ATOM     25  O   UNL     1       6.485   3.437  13.346  0.00  0.00    +0.000 OA
ATOM     26  H   UNL     1       7.389   3.098  13.469  0.00  0.00    +0.000 HD
ENDBRANCH  22  25
BRANCH  23  27
ATOM     27  O   UNL     1       8.003   5.405  14.425  0.00  0.00    +0.000 OA
ATOM     28  H   UNL     1       8.010   4.888  13.600  0.00  0.00    +0.000 HD
ENDBRANCH  23  27
ENDBRANCH   8  19
TORSDOF 6
ENDMDL
MODEL 4
REMARK VINA RESULT:      -7.3      1.036      1.127
REMARK  Name = 
REMARK  7 active torsions:
REMARK  status: ('A' for Active; 'I' for Inactive)
REMARK    1  A    between atoms: C_1  and  C_2
REMARK    2  A    between atoms: C_6  and  C_7
REMARK    3  A    between atoms: C_10  and  O_11
REMARK    4  A    between atoms: C_12  and  O_13
REMARK    5  A    between atoms: C_16  and  C_17
REMARK    6  A    between atoms: C_20  and  O_21
REMARK    7  A    between atoms: C_22  and  O_23
REMARK                            x       y       z     vdW  Elec       q    Type
REMARK                         _______ _______ _______ _____ _____    ______ ____
ROOT
ATOM      1  C   UNL     1       2.928   2.864  20.414  0.00  0.00    +0.000 C 
ATOM      2  C   UNL     1       4.113   3.472  19.700  0.00  0.00    +0.000 C 
ATOM      3  O   UNL     1       5.142   2.825  19.500  0.00  0.00    +0.000 OA
ATOM      4  N   UNL     1       3.932   4.779  19.286  0.00  0.00    +0.000 N 
ATOM      5  N   UNL     1       2.832   5.498  19.670  0.00  0.00    +0.000 NA
ATOM      6  C   UNL     1       3.002   6.710  19.240  0.00  0.00    +0.000 C 
ATOM      7  C   UNL     1       4.274   6.958  18.474  0.00  0.00    +0.000 C 
ATOM      8  C   UNL     1       4.936   5.581  18.583  0.00  0.00    +0.000 C 
ENDROOT
BRANCH   6   9
ATOM      9  C   UNL     1       2.021   7.786  19.489  0.00  0.00    +0.000 A 
ATOM     10  C   UNL     1       1.425   7.893  20.759  0.00  0.00    +0.000 A 
ATOM     11  C   UNL     1       0.513   8.916  21.030  0.00  0.00    +0.000 A 
ATOM     12  C   UNL     1       0.204   9.824  20.027  0.00  0.00    +0.000 A 
ATOM     13  C   UNL     1       0.792   9.711  18.768  0.00  0.00    +0.000 A 
ATOM     14  C   UNL     1       1.696   8.700  18.486  0.00  0.00    +0.000 A 
BRANCH  12  15
ATOM     15  O   UNL     1      -0.669  10.856  20.225  0.00  0.00    +0.000 OA
ATOM     16  H   UNL     1      -1.274  10.893  19.462  0.00  0.00    +0.000 HD
ENDBRANCH  12  15
BRANCH  13  17
ATOM     17  O   UNL     1       0.486  10.606  17.785  0.00  0.00    +0.000 OA
ATOM     18  H   UNL     1       1.305  11.133  17.669  0.00  0.00    +0.000 HD
ENDBRANCH  13  17
ENDBRANCH   6   9
BRANCH   8  19
ATOM     19  C   UNL     1       5.305   5.026  17.222  0.00  0.00    +0.000 A 
ATOM     20  C   UNL     1       4.521   4.022  16.624  0.00  0.00    +0.000 A 
ATOM     21  C   UNL     1       4.861   3.497  15.371  0.00  0.00    +0.000 A 
ATOM     22  C   UNL     1       5.994   3.970  14.723  0.00  0.00    +0.000 A 
ATOM     23  C   UNL     1       6.774   4.961  15.307  0.00  0.00    +0.000 A 
ATOM     24  C   UNL     1       6.438   5.497  16.540  0.00  0.00    +0.000 A 
BRANCH  22  25
ATOM     25  O   UNL     1       6.389   3.486  13.506  0.00  0.00    +0.000 OA
ATOM     26  H   UNL     1       7.245   3.039  13.623  0.00  0.00    +0.000 HD
ENDBRANCH  22  25
BRANCH  23  27
ATOM     27  O   UNL     1       7.893   5.414  14.673  0.00  0.00    +0.000 OA
ATOM     28  H   UNL     1       8.165   6.194  15.188  0.00  0.00    +0.000 HD
ENDBRANCH  23  27
ENDBRANCH   8  19
TORSDOF 6
ENDMDL
MODEL 5
REMARK VINA RESULT:      -7.2      1.038      1.044
REMARK  Name = 
REMARK  7 active torsions:
REMARK  status: ('A' for Active; 'I' for Inactive)
REMARK    1  A    between atoms: C_1  and  C_2
REMARK    2  A    between atoms: C_6  and  C_7
REMARK    3  A    between atoms: C_10  and  O_11
REMARK    4  A    between atoms: C_12  and  O_13
REMARK    5  A    between atoms: C_16  and  C_17
REMARK    6  A    between atoms: C_20  and  O_21
REMARK    7  A    between atoms: C_22  and  O_23
REMARK                            x       y       z     vdW  Elec       q    Type
REMARK                         _______ _______ _______ _____ _____    ______ ____
ROOT
ATOM      1  C   UNL     1       1.147   3.137  18.400  0.00  0.00    +0.000 C 
ATOM      2  C   UNL     1       2.604   3.486  18.599  0.00  0.00    +0.000 C 
ATOM      3  O   UNL     1       3.487   2.635  18.498  0.00  0.00    +0.000 OA
ATOM      4  N   UNL     1       2.847   4.819  18.880  0.00  0.00    +0.000 N 
ATOM      5  N   UNL     1       1.820   5.689  19.135  0.00  0.00    +0.000 NA
ATOM      6  C   UNL     1       2.356   6.817  19.484  0.00  0.00    +0.000 C 
ATOM      7  C   UNL     1       3.861   6.849  19.492  0.00  0.00    +0.000 C 
ATOM      8  C   UNL     1       4.171   5.396  19.120  0.00  0.00    +0.000 C 
ENDROOT
BRANCH   6   9
ATOM      9  C   UNL     1       1.550   7.995  19.861  0.00  0.00    +0.000 A 
ATOM     10  C   UNL     1       1.075   8.111  21.180  0.00  0.00    +0.000 A 
ATOM     11  C   UNL     1       0.331   9.228  21.571  0.00  0.00    +0.000 A 
ATOM     12  C   UNL     1       0.069  10.220  20.636  0.00  0.00    +0.000 A 
ATOM     13  C   UNL     1       0.536  10.099  19.329  0.00  0.00    +0.000 A 
ATOM     14  C   UNL     1       1.272   8.996  18.929  0.00  0.00    +0.000 A 
BRANCH  12  15
ATOM     15  O   UNL     1      -0.641  11.345  20.951  0.00  0.00    +0.000 OA
ATOM     16  H   UNL     1      -0.038  12.108  20.902  0.00  0.00    +0.000 HD
ENDBRANCH  12  15
BRANCH  13  17
ATOM     17  O   UNL     1       0.276  11.077  18.414  0.00  0.00    +0.000 OA
ATOM     18  H   UNL     1      -0.656  11.332  18.585  0.00  0.00    +0.000 HD
ENDBRANCH  13  17
ENDBRANCH   6   9
BRANCH   8  19
ATOM     19  C   UNL     1       5.092   5.309  17.920  0.00  0.00    +0.000 A 
ATOM     20  C   UNL     1       4.686   5.811  16.670  0.00  0.00    +0.000 A 
ATOM     21  C   UNL     1       5.527   5.725  15.554  0.00  0.00    +0.000 A 
ATOM     22  C   UNL     1       6.773   5.124  15.688  0.00  0.00    +0.000 A 
ATOM     23  C   UNL     1       7.181   4.625  16.919  0.00  0.00    +0.000 A 
ATOM     24  C   UNL     1       6.361   4.718  18.033  0.00  0.00    +0.000 A 
BRANCH  22  25
ATOM     25  O   UNL     1       7.633   4.994  14.633  0.00  0.00    +0.000 OA
ATOM     26  H   UNL     1       8.539   4.962  14.985  0.00  0.00    +0.000 HD
ENDBRANCH  22  25
BRANCH  23  27
ATOM     27  O   UNL     1       8.399   4.025  17.044  0.00  0.00    +0.000 OA
ATOM     28  H   UNL     1       8.364   3.582  17.911  0.00  0.00    +0.000 HD
ENDBRANCH  23  27
ENDBRANCH   8  19
TORSDOF 6
ENDMDL
MODEL 6
REMARK VINA RESULT:      -7.2      2.628      8.058
REMARK  Name = 
REMARK  7 active torsions:
REMARK  status: ('A' for Active; 'I' for Inactive)
REMARK    1  A    between atoms: C_1  and  C_2
REMARK    2  A    between atoms: C_6  and  C_7
REMARK    3  A    between atoms: C_10  and  O_11
REMARK    4  A    between atoms: C_12  and  O_13
REMARK    5  A    between atoms: C_16  and  C_17
REMARK    6  A    between atoms: C_20  and  O_21
REMARK    7  A    between atoms: C_22  and  O_23
REMARK                            x       y       z     vdW  Elec       q    Type
REMARK                         _______ _______ _______ _____ _____    ______ ____
ROOT
ATOM      1  C   UNL     1       1.025   9.022  22.437  0.00  0.00    +0.000 C 
ATOM      2  C   UNL     1       0.457   9.800  21.273  0.00  0.00    +0.000 C 
ATOM      3  O   UNL     1      -0.385  10.682  21.441  0.00  0.00    +0.000 OA
ATOM      4  N   UNL     1       0.972   9.452  20.037  0.00  0.00    +0.000 N 
ATOM      5  N   UNL     1       1.789   8.362  19.891  0.00  0.00    +0.000 NA
ATOM      6  C   UNL     1       2.004   8.218  18.620  0.00  0.00    +0.000 C 
ATOM      7  C   UNL     1       1.349   9.237  17.727  0.00  0.00    +0.000 C 
ATOM      8  C   UNL     1       0.575  10.057  18.764  0.00  0.00    +0.000 C 
ENDROOT
BRANCH   6   9
ATOM      9  C   UNL     1       2.829   7.121  18.075  0.00  0.00    +0.000 A 
ATOM     10  C   UNL     1       2.404   5.791  18.244  0.00  0.00    +0.000 A 
ATOM     11  C   UNL     1       3.152   4.734  17.716  0.00  0.00    +0.000 A 
ATOM     12  C   UNL     1       4.321   5.019  17.025  0.00  0.00    +0.000 A 
ATOM     13  C   UNL     1       4.742   6.338  16.865  0.00  0.00    +0.000 A 
ATOM     14  C   UNL     1       4.011   7.394  17.384  0.00  0.00    +0.000 A 
BRANCH  12  15
ATOM     15  O   UNL     1       5.095   4.038  16.472  0.00  0.00    +0.000 OA
ATOM     16  H   UNL     1       5.855   4.462  16.034  0.00  0.00    +0.000 HD
ENDBRANCH  12  15
BRANCH  13  17
ATOM     17  O   UNL     1       5.892   6.614  16.184  0.00  0.00    +0.000 OA
ATOM     18  H   UNL     1       5.764   7.525  15.844  0.00  0.00    +0.000 HD
ENDBRANCH  13  17
ENDBRANCH   6   9
BRANCH   8  19
ATOM     19  C   UNL     1       0.903  11.533  18.670  0.00  0.00    +0.000 A 
ATOM     20  C   UNL     1       2.234  11.960  18.508  0.00  0.00    +0.000 A 
ATOM     21  C   UNL     1       2.547  13.323  18.431  0.00  0.00    +0.000 A 
ATOM     22  C   UNL     1       1.525  14.259  18.529  0.00  0.00    +0.000 A 
ATOM     23  C   UNL     1       0.208  13.845  18.689  0.00  0.00    +0.000 A 
ATOM     24  C   UNL     1      -0.113  12.499  18.753  0.00  0.00    +0.000 A 
BRANCH  22  25
ATOM     25  O   UNL     1       1.767  15.604  18.478  0.00  0.00    +0.000 OA
ATOM     26  H   UNL     1       1.556  15.981  19.350  0.00  0.00    +0.000 HD
ENDBRANCH  22  25
BRANCH  23  27
ATOM     27  O   UNL     1      -0.790  14.768  18.797  0.00  0.00    +0.000 OA
ATOM     28  H   UNL     1      -0.340  15.581  19.087  0.00  0.00    +0.000 HD
ENDBRANCH  23  27
ENDBRANCH   8  19
TORSDOF 6
ENDMDL
MODEL 7
REMARK VINA RESULT:      -7.1      2.652      7.779
REMARK  Name = 
REMARK  7 active torsions:
REMARK  status: ('A' for Active; 'I' for Inactive)
REMARK    1  A    between atoms: C_1  and  C_2
REMARK    2  A    between atoms: C_6  and  C_7
REMARK    3  A    between atoms: C_10  and  O_11
REMARK    4  A    between atoms: C_12  and  O_13
REMARK    5  A    between atoms: C_16  and  C_17
REMARK    6  A    between atoms: C_20  and  O_21
REMARK    7  A    between atoms: C_22  and  O_23
REMARK                            x       y       z     vdW  Elec       q    Type
REMARK                         _______ _______ _______ _____ _____    ______ ____
ROOT
ATOM      1  C   UNL     1       1.013   8.997  22.429  0.00  0.00    +0.000 C 
ATOM      2  C   UNL     1       0.457   9.785  21.265  0.00  0.00    +0.000 C 
ATOM      3  O   UNL     1      -0.383  10.669  21.433  0.00  0.00    +0.000 OA
ATOM      4  N   UNL     1       0.980   9.442  20.031  0.00  0.00    +0.000 N 
ATOM      5  N   UNL     1       1.793   8.350  19.884  0.00  0.00    +0.000 NA
ATOM      6  C   UNL     1       2.017   8.213  18.614  0.00  0.00    +0.000 C 
ATOM      7  C   UNL     1       1.372   9.241  17.723  0.00  0.00    +0.000 C 
ATOM      8  C   UNL     1       0.594  10.056  18.759  0.00  0.00    +0.000 C 
ENDROOT
BRANCH   6   9
ATOM      9  C   UNL     1       2.841   7.116  18.068  0.00  0.00    +0.000 A 
ATOM     10  C   UNL     1       2.425   5.785  18.250  0.00  0.00    +0.000 A 
ATOM     11  C   UNL     1       3.172   4.729  17.722  0.00  0.00    +0.000 A 
ATOM     12  C   UNL     1       4.332   5.015  17.016  0.00  0.00    +0.000 A 
ATOM     13  C   UNL     1       4.745   6.334  16.843  0.00  0.00    +0.000 A 
ATOM     14  C   UNL     1       4.015   7.390  17.363  0.00  0.00    +0.000 A 
BRANCH  12  15
ATOM     15  O   UNL     1       5.106   4.034  16.462  0.00  0.00    +0.000 OA
ATOM     16  H   UNL     1       4.639   3.185  16.565  0.00  0.00    +0.000 HD
ENDBRANCH  12  15
BRANCH  13  17
ATOM     17  O   UNL     1       5.887   6.611  16.148  0.00  0.00    +0.000 OA
ATOM     18  H   UNL     1       5.671   7.416  15.631  0.00  0.00    +0.000 HD
ENDBRANCH  13  17
ENDBRANCH   6   9
BRANCH   8  19
ATOM     19  C   UNL     1       0.928  11.532  18.677  0.00  0.00    +0.000 A 
ATOM     20  C   UNL     1      -0.068  12.503  18.892  0.00  0.00    +0.000 A 
ATOM     21  C   UNL     1       0.232  13.869  18.808  0.00  0.00    +0.000 A 
ATOM     22  C   UNL     1       1.527  14.261  18.497  0.00  0.00    +0.000 A 
ATOM     23  C   UNL     1       2.516  13.308  18.282  0.00  0.00    +0.000 A 
ATOM     24  C   UNL     1       2.233  11.955  18.376  0.00  0.00    +0.000 A 
BRANCH  22  25
ATOM     25  O   UNL     1       1.878  15.578  18.383  0.00  0.00    +0.000 OA
ATOM     26  H   UNL     1       1.734  16.003  19.247  0.00  0.00    +0.000 HD
ENDBRANCH  22  25
BRANCH  23  27
ATOM     27  O   UNL     1       3.783  13.698  17.964  0.00  0.00    +0.000 OA
ATOM     28  H   UNL     1       3.676  14.246  17.166  0.00  0.00    +0.000 HD
ENDBRANCH  23  27
ENDBRANCH   8  19
TORSDOF 6
ENDMDL
MODEL 8
REMARK VINA RESULT:      -7.0      1.058      1.600
REMARK  Name = 
REMARK  7 active torsions:
REMARK  status: ('A' for Active; 'I' for Inactive)
REMARK    1  A    between atoms: C_1  and  C_2
REMARK    2  A    between atoms: C_6  and  C_7
REMARK    3  A    between atoms: C_10  and  O_11
REMARK    4  A    between atoms: C_12  and  O_13
REMARK    5  A    between atoms: C_16  and  C_17
REMARK    6  A    between atoms: C_20  and  O_21
REMARK    7  A    between atoms: C_22  and  O_23
REMARK                            x       y       z     vdW  Elec       q    Type
REMARK                         _______ _______ _______ _____ _____    ______ ____
ROOT
ATOM      1  C   UNL     1       1.313   2.702  18.402  0.00  0.00    +0.000 C 
ATOM      2  C   UNL     1       2.778   3.029  18.575  0.00  0.00    +0.000 C 
ATOM      3  O   UNL     1       3.644   2.159  18.487  0.00  0.00    +0.000 OA
ATOM      4  N   UNL     1       3.049   4.364  18.816  0.00  0.00    +0.000 N 
ATOM      5  N   UNL     1       2.042   5.259  19.059  0.00  0.00    +0.000 NA
ATOM      6  C   UNL     1       2.604   6.386  19.371  0.00  0.00    +0.000 C 
ATOM      7  C   UNL     1       4.109   6.390  19.360  0.00  0.00    +0.000 C 
ATOM      8  C   UNL     1       4.388   4.922  19.025  0.00  0.00    +0.000 C 
ENDROOT
BRANCH   6   9
ATOM      9  C   UNL     1       1.825   7.590  19.725  0.00  0.00    +0.000 A 
ATOM     10  C   UNL     1       1.286   7.705  21.019  0.00  0.00    +0.000 A 
ATOM     11  C   UNL     1       0.566   8.844  21.389  0.00  0.00    +0.000 A 
ATOM     12  C   UNL     1       0.391   9.859  20.459  0.00  0.00    +0.000 A 
ATOM     13  C   UNL     1       0.921   9.739  19.176  0.00  0.00    +0.000 A 
ATOM     14  C   UNL     1       1.635   8.614  18.796  0.00  0.00    +0.000 A 
BRANCH  12  15
ATOM     15  O   UNL     1      -0.291  11.006  20.755  0.00  0.00    +0.000 OA
ATOM     16  H   UNL     1      -0.640  11.375  19.924  0.00  0.00    +0.000 HD
ENDBRANCH  12  15
BRANCH  13  17
ATOM     17  O   UNL     1       0.747  10.739  18.264  0.00  0.00    +0.000 OA
ATOM     18  H   UNL     1       1.644  11.114  18.136  0.00  0.00    +0.000 HD
ENDBRANCH  13  17
ENDBRANCH   6   9
BRANCH   8  19
ATOM     19  C   UNL     1       5.292   4.784  17.817  0.00  0.00    +0.000 A 
ATOM     20  C   UNL     1       6.690   4.733  17.974  0.00  0.00    +0.000 A 
ATOM     21  C   UNL     1       7.533   4.616  16.862  0.00  0.00    +0.000 A 
ATOM     22  C   UNL     1       6.975   4.563  15.590  0.00  0.00    +0.000 A 
ATOM     23  C   UNL     1       5.596   4.615  15.428  0.00  0.00    +0.000 A 
ATOM     24  C   UNL     1       4.753   4.717  16.523  0.00  0.00    +0.000 A 
BRANCH  22  25
ATOM     25  O   UNL     1       7.745   4.466  14.464  0.00  0.00    +0.000 OA
ATOM     26  H   UNL     1       7.524   5.215  13.884  0.00  0.00    +0.000 HD
ENDBRANCH  22  25
BRANCH  23  27
ATOM     27  O   UNL     1       5.053   4.576  14.177  0.00  0.00    +0.000 OA
ATOM     28  H   UNL     1       5.096   3.637  13.923  0.00  0.00    +0.000 HD
ENDBRANCH  23  27
ENDBRANCH   8  19
TORSDOF 6
ENDMDL
MODEL 9
REMARK VINA RESULT:      -7.0      1.401      2.150
REMARK  Name = 
REMARK  7 active torsions:
REMARK  status: ('A' for Active; 'I' for Inactive)
REMARK    1  A    between atoms: C_1  and  C_2
REMARK    2  A    between atoms: C_6  and  C_7
REMARK    3  A    between atoms: C_10  and  O_11
REMARK    4  A    between atoms: C_12  and  O_13
REMARK    5  A    between atoms: C_16  and  C_17
REMARK    6  A    between atoms: C_20  and  O_21
REMARK    7  A    between atoms: C_22  and  O_23
REMARK                            x       y       z     vdW  Elec       q    Type
REMARK                         _______ _______ _______ _____ _____    ______ ____
ROOT
ATOM      1  C   UNL     1       1.240   2.964  18.474  0.00  0.00    +0.000 C 
ATOM      2  C   UNL     1       2.690   3.336  18.681  0.00  0.00    +0.000 C 
ATOM      3  O   UNL     1       3.590   2.506  18.555  0.00  0.00    +0.000 OA
ATOM      4  N   UNL     1       2.907   4.665  18.998  0.00  0.00    +0.000 N 
ATOM      5  N   UNL     1       1.863   5.506  19.278  0.00  0.00    +0.000 NA
ATOM      6  C   UNL     1       2.378   6.635  19.658  0.00  0.00    +0.000 C 
ATOM      7  C   UNL     1       3.882   6.697  19.665  0.00  0.00    +0.000 C 
ATOM      8  C   UNL     1       4.220   5.261  19.253  0.00  0.00    +0.000 C 
ENDROOT
BRANCH   6   9
ATOM      9  C   UNL     1       1.549   7.786  20.069  0.00  0.00    +0.000 A 
ATOM     10  C   UNL     1       1.443   8.898  19.214  0.00  0.00    +0.000 A 
ATOM     11  C   UNL     1       0.646   9.990  19.565  0.00  0.00    +0.000 A 
ATOM     12  C   UNL     1      -0.040   9.961  20.771  0.00  0.00    +0.000 A 
ATOM     13  C   UNL     1       0.072   8.860  21.619  0.00  0.00    +0.000 A 
ATOM     14  C   UNL     1       0.861   7.772  21.283  0.00  0.00    +0.000 A 
BRANCH  12  15
ATOM     15  O   UNL     1      -0.847  10.987  21.173  0.00  0.00    +0.000 OA
ATOM     16  H   UNL     1      -1.767  10.751  20.960  0.00  0.00    +0.000 HD
ENDBRANCH  12  15
BRANCH  13  17
ATOM     17  O   UNL     1      -0.604   8.835  22.804  0.00  0.00    +0.000 OA
ATOM     18  H   UNL     1      -0.267   9.614  23.295  0.00  0.00    +0.000 HD
ENDBRANCH  13  17
ENDBRANCH   6   9
BRANCH   8  19
ATOM     19  C   UNL     1       5.140   5.225  18.049  0.00  0.00    +0.000 A 
ATOM     20  C   UNL     1       6.380   4.563  18.118  0.00  0.00    +0.000 A 
ATOM     21  C   UNL     1       7.241   4.534  17.013  0.00  0.00    +0.000 A 
ATOM     22  C   UNL     1       6.864   5.181  15.843  0.00  0.00    +0.000 A 
ATOM     23  C   UNL     1       5.642   5.838  15.768  0.00  0.00    +0.000 A 
ATOM     24  C   UNL     1       4.778   5.861  16.851  0.00  0.00    +0.000 A 
BRANCH  22  25
ATOM     25  O   UNL     1       7.667   5.203  14.737  0.00  0.00    +0.000 OA
ATOM     26  H   UNL     1       8.326   4.493  14.829  0.00  0.00    +0.000 HD
ENDBRANCH  22  25
BRANCH  23  27
ATOM     27  O   UNL     1       5.282   6.483  14.622  0.00  0.00    +0.000 OA
ATOM     28  H   UNL     1       5.350   7.429  14.843  0.00  0.00    +0.000 HD
ENDBRANCH  23  27
ENDBRANCH   8  19
TORSDOF 6
ENDMDL
