MODEL 1
REMARK VINA RESULT:      -6.4      0.000      0.000
REMARK  Name = 
REMARK  21 active torsions:
REMARK  status: ('A' for Active; 'I' for Inactive)
REMARK    1  A    between atoms: C_1  and  C_2
REMARK    2  A    between atoms: C_2  and  C_3
REMARK    3  A    between atoms: C_3  and  C_4
REMARK    4  A    between atoms: C_3  and  C_5
REMARK    5  A    between atoms: C_5  and  C_6
REMARK    6  A    between atoms: C_5  and  N_27
REMARK    7  A    between atoms: C_6  and  N_7
REMARK    8  A    between atoms: N_7  and  C_8
REMARK    9  A    between atoms: N_7  and  C_20
REMARK   10  A    between atoms: C_8  and  C_9
REMARK   11  A    between atoms: N_11  and  CA_12
REMARK   12  A    between atoms: CA_12  and  CB_13
REMARK   13  A    between atoms: CA_12  and  C_17
REMARK   14  A    between atoms: CB_13  and  CG_14
REMARK   15  A    between atoms: CG_14  and  SD_15
REMARK   16  A    between atoms: SD_15  and  CE_16
REMARK   17  A    between atoms: C_17  and  OXT_19
REMARK   18  A    between atoms: C_20  and  C_21
REMARK   19  A    between atoms: C_28  and  C_30
REMARK   20  A    between atoms: C_30  and  C_31
REMARK   21  A    between atoms: C_31  and  S_32
REMARK                            x       y       z     vdW  Elec       q    Type
REMARK                         _______ _______ _______ _____ _____    ______ ____
ROOT
ATOM      1  N   UNK A   0       3.192   6.666  18.118  0.00  0.00    +0.000 NA
ENDROOT
BRANCH   1   2
ATOM      2  C   UNK A   0       2.819   8.124  18.004  0.00  0.00    +0.000 C 
BRANCH   2   3
ATOM      3  C   UNK A   0       1.706   8.797  18.887  0.00  0.00    +0.000 C 
ATOM      4  O   UNK A   0       1.627   8.481  20.081  0.00  0.00    +0.000 OA
ATOM      5  N   MET A   1       0.837   9.734  18.393  0.00  0.00    +0.000 N 
ATOM      6  H   MET A   1       0.726   9.762  17.380  0.00  0.00    +0.000 HD
BRANCH   5   7
ATOM      7  CA  MET A   1      -0.324  10.258  19.135  0.00  0.00    +0.000 C 
BRANCH   7   8
ATOM      8  C   MET A   1      -1.424  10.570  18.093  0.00  0.00    +0.000 C 
ATOM      9  O   MET A   1      -2.369   9.816  17.885  0.00  0.00    +0.000 OA
BRANCH   8  10
ATOM     10  OXT MET A   1      -1.288  11.736  17.419  0.00  0.00    +0.000 OA
ATOM     11  HXT MET A   1      -1.998  11.953  16.786  0.00  0.00    +0.000 HD
ENDBRANCH   8  10
ENDBRANCH   7   8
BRANCH   7  12
ATOM     12  CB  MET A   1      -0.113  11.561  19.957  0.00  0.00    +0.000 C 
BRANCH  12  13
ATOM     13  CG  MET A   1      -0.505  11.491  21.431  0.00  0.00    +0.000 C 
BRANCH  13  14
ATOM     14  SD  MET A   1      -2.049  12.444  21.686  0.00  0.00    +0.000 S 
ATOM     15  CE  MET A   1      -1.610  13.271  23.236  0.00  0.00    +0.000 C 
ENDBRANCH  13  14
ENDBRANCH  12  13
ENDBRANCH   7  12
ENDBRANCH   5   7
ENDBRANCH   2   3
ENDBRANCH   1   2
BRANCH   1  16
ATOM     16  C   UNK A   0       1.980   5.808  17.918  0.00  0.00    +0.000 C 
BRANCH  16  17
ATOM     17  C   UNK A   0       1.783   4.765  19.006  0.00  0.00    +0.000 A 
ATOM     18  C   UNK A   0       1.152   3.542  18.723  0.00  0.00    +0.000 A 
ATOM     19  C   UNK A   0       0.868   2.639  19.750  0.00  0.00    +0.000 A 
ATOM     20  C   UNK A   0       1.218   2.939  21.065  0.00  0.00    +0.000 A 
ATOM     21  C   UNK A   0       1.876   4.132  21.353  0.00  0.00    +0.000 A 
ATOM     22  C   UNK A   0       2.165   5.037  20.330  0.00  0.00    +0.000 A 
ENDBRANCH  16  17
ENDBRANCH   1  16
BRANCH   1  23
ATOM     23  C   UNK A   0       4.187   6.301  16.988  0.00  0.00    +0.000 C 
BRANCH  23  24
ATOM     24  C   UNK A   0       5.498   5.496  17.307  0.00  0.00    +0.000 C 
BRANCH  24  25
ATOM     25  N   UNK A   0       6.421   6.275  18.120  0.00  0.00    +0.000 N 
ATOM     26  C   UNK A   0       7.497   6.925  17.532  0.00  0.00    +0.000 C 
ATOM     27  O   UNK A   0       7.809   6.777  16.353  0.00  0.00    +0.000 OA
ATOM     28  H   UNK A   0       6.128   6.551  19.049  0.00  0.00    +0.000 HD
BRANCH  26  29
ATOM     29  C   UNK A   0       8.270   7.822  18.480  0.00  0.00    +0.000 C 
BRANCH  29  30
ATOM     30  C   UNK A   0       8.229   9.268  17.998  0.00  0.00    +0.000 C 
BRANCH  30  31
ATOM     31  S   UNK A   0       9.248  10.326  19.070  0.00  0.00    +0.000 S 
ATOM     32  H   UNK A   0       9.974  10.889  18.094  0.00  0.00    +0.000 HD
ENDBRANCH  30  31
ENDBRANCH  29  30
ENDBRANCH  26  29
ENDBRANCH  24  25
BRANCH  24  33
ATOM     33  C   UNK A   0       5.351   4.005  17.831  0.00  0.00    +0.000 C 
ATOM     34  C   UNK A   0       4.298   3.289  16.955  0.00  0.00    +0.000 C 
BRANCH  33  36
ATOM     35  C   UNK A   0       4.550   2.202  19.638  0.00  0.00    +0.000 C 
ATOM     36  C   UNK A   0       5.013   3.607  19.294  0.00  0.00    +0.000 C 
ENDBRANCH  33  36
ENDBRANCH  24  33
ENDBRANCH  23  24
ENDBRANCH   1  23
TORSDOF 18
ENDMDL
MODEL 2
REMARK VINA RESULT:      -6.4      2.337      3.044
REMARK  Name = 
REMARK  21 active torsions:
REMARK  status: ('A' for Active; 'I' for Inactive)
REMARK    1  A    between atoms: C_1  and  C_2
REMARK    2  A    between atoms: C_2  and  C_3
REMARK    3  A    between atoms: C_3  and  C_4
REMARK    4  A    between atoms: C_3  and  C_5
REMARK    5  A    between atoms: C_5  and  C_6
REMARK    6  A    between atoms: C_5  and  N_27
REMARK    7  A    between atoms: C_6  and  N_7
REMARK    8  A    between atoms: N_7  and  C_8
REMARK    9  A    between atoms: N_7  and  C_20
REMARK   10  A    between atoms: C_8  and  C_9
REMARK   11  A    between atoms: N_11  and  CA_12
REMARK   12  A    between atoms: CA_12  and  CB_13
REMARK   13  A    between atoms: CA_12  and  C_17
REMARK   14  A    between atoms: CB_13  and  CG_14
REMARK   15  A    between atoms: CG_14  and  SD_15
REMARK   16  A    between atoms: SD_15  and  CE_16
REMARK   17  A    between atoms: C_17  and  OXT_19
REMARK   18  A    between atoms: C_20  and  C_21
REMARK   19  A    between atoms: C_28  and  C_30
REMARK   20  A    between atoms: C_30  and  C_31
REMARK   21  A    between atoms: C_31  and  S_32
REMARK                            x       y       z     vdW  Elec       q    Type
REMARK                         _______ _______ _______ _____ _____    ______ ____
ROOT
ATOM      1  N   UNK A   0       3.051   6.920  18.215  0.00  0.00    +0.000 NA
ENDROOT
BRANCH   1   2
ATOM      2  C   UNK A   0       2.562   8.299  17.844  0.00  0.00    +0.000 C 
BRANCH   2   3
ATOM      3  C   UNK A   0       1.434   9.052  18.638  0.00  0.00    +0.000 C 
ATOM      4  O   UNK A   0       1.356   8.879  19.861  0.00  0.00    +0.000 OA
ATOM      5  N   MET A   1       0.551   9.909  18.034  0.00  0.00    +0.000 N 
ATOM      6  H   MET A   1       0.444   9.814  17.025  0.00  0.00    +0.000 HD
BRANCH   5   7
ATOM      7  CA  MET A   1      -0.622  10.497  18.707  0.00  0.00    +0.000 C 
BRANCH   7   8
ATOM      8  C   MET A   1      -1.821  10.339  17.744  0.00  0.00    +0.000 C 
ATOM      9  O   MET A   1      -1.731   9.757  16.668  0.00  0.00    +0.000 OA
BRANCH   8  10
ATOM     10  OXT MET A   1      -2.991  10.878  18.161  0.00  0.00    +0.000 OA
ATOM     11  HXT MET A   1      -3.768  10.289  18.142  0.00  0.00    +0.000 HD
ENDBRANCH   8  10
ENDBRANCH   7   8
BRANCH   7  12
ATOM     12  CB  MET A   1      -0.546  12.006  19.075  0.00  0.00    +0.000 C 
BRANCH  12  13
ATOM     13  CG  MET A   1       0.029  12.329  20.452  0.00  0.00    +0.000 C 
BRANCH  13  14
ATOM     14  SD  MET A   1      -1.289  12.145  21.711  0.00  0.00    +0.000 S 
ATOM     15  CE  MET A   1      -0.574  10.779  22.661  0.00  0.00    +0.000 C 
ENDBRANCH  13  14
ENDBRANCH  12  13
ENDBRANCH   7  12
ENDBRANCH   5   7
ENDBRANCH   2   3
ENDBRANCH   1   2
BRANCH   1  16
ATOM     16  C   UNK A   0       1.989   5.903  17.934  0.00  0.00    +0.000 C 
BRANCH  16  17
ATOM     17  C   UNK A   0       1.757   4.927  19.077  0.00  0.00    +0.000 A 
ATOM     18  C   UNK A   0       2.144   5.251  20.387  0.00  0.00    +0.000 A 
ATOM     19  C   UNK A   0       2.036   4.306  21.410  0.00  0.00    +0.000 A 
ATOM     20  C   UNK A   0       1.534   3.034  21.141  0.00  0.00    +0.000 A 
ATOM     21  C   UNK A   0       1.113   2.713  19.852  0.00  0.00    +0.000 A 
ATOM     22  C   UNK A   0       1.215   3.655  18.827  0.00  0.00    +0.000 A 
ENDBRANCH  16  17
ENDBRANCH   1  16
BRANCH   1  23
ATOM     23  C   UNK A   0       4.267   6.551  17.329  0.00  0.00    +0.000 C 
BRANCH  23  24
ATOM     24  C   UNK A   0       4.772   5.065  17.243  0.00  0.00    +0.000 C 
BRANCH  24  25
ATOM     25  N   UNK A   0       5.245   4.737  15.907  0.00  0.00    +0.000 N 
ATOM     26  C   UNK A   0       6.409   5.309  15.414  0.00  0.00    +0.000 C 
ATOM     27  O   UNK A   0       7.019   6.203  15.997  0.00  0.00    +0.000 OA
ATOM     28  H   UNK A   0       4.875   3.909  15.456  0.00  0.00    +0.000 HD
BRANCH  26  29
ATOM     29  C   UNK A   0       6.856   4.749  14.077  0.00  0.00    +0.000 C 
BRANCH  29  30
ATOM     30  C   UNK A   0       5.759   3.880  13.470  0.00  0.00    +0.000 C 
BRANCH  30  31
ATOM     31  S   UNK A   0       6.347   3.088  11.942  0.00  0.00    +0.000 S 
ATOM     32  H   UNK A   0       7.230   4.037  11.600  0.00  0.00    +0.000 HD
ENDBRANCH  30  31
ENDBRANCH  29  30
ENDBRANCH  26  29
ENDBRANCH  24  25
BRANCH  24  33
ATOM     33  C   UNK A   0       5.758   4.545  18.373  0.00  0.00    +0.000 C 
ATOM     34  C   UNK A   0       5.014   3.479  19.208  0.00  0.00    +0.000 C 
BRANCH  33  36
ATOM     35  C   UNK A   0       7.944   5.821  19.240  0.00  0.00    +0.000 C 
ATOM     36  C   UNK A   0       6.480   5.452  19.408  0.00  0.00    +0.000 C 
ENDBRANCH  33  36
ENDBRANCH  24  33
ENDBRANCH  23  24
ENDBRANCH   1  23
TORSDOF 18
ENDMDL
MODEL 3
REMARK VINA RESULT:      -6.2      2.423      2.972
REMARK  Name = 
REMARK  21 active torsions:
REMARK  status: ('A' for Active; 'I' for Inactive)
REMARK    1  A    between atoms: C_1  and  C_2
REMARK    2  A    between atoms: C_2  and  C_3
REMARK    3  A    between atoms: C_3  and  C_4
REMARK    4  A    between atoms: C_3  and  C_5
REMARK    5  A    between atoms: C_5  and  C_6
REMARK    6  A    between atoms: C_5  and  N_27
REMARK    7  A    between atoms: C_6  and  N_7
REMARK    8  A    between atoms: N_7  and  C_8
REMARK    9  A    between atoms: N_7  and  C_20
REMARK   10  A    between atoms: C_8  and  C_9
REMARK   11  A    between atoms: N_11  and  CA_12
REMARK   12  A    between atoms: CA_12  and  CB_13
REMARK   13  A    between atoms: CA_12  and  C_17
REMARK   14  A    between atoms: CB_13  and  CG_14
REMARK   15  A    between atoms: CG_14  and  SD_15
REMARK   16  A    between atoms: SD_15  and  CE_16
REMARK   17  A    between atoms: C_17  and  OXT_19
REMARK   18  A    between atoms: C_20  and  C_21
REMARK   19  A    between atoms: C_28  and  C_30
REMARK   20  A    between atoms: C_30  and  C_31
REMARK   21  A    between atoms: C_31  and  S_32
REMARK                            x       y       z     vdW  Elec       q    Type
REMARK                         _______ _______ _______ _____ _____    ______ ____
ROOT
ATOM      1  N   UNK A   0       3.142   6.828  18.104  0.00  0.00    +0.000 NA
ENDROOT
BRANCH   1   2
ATOM      2  C   UNK A   0       2.853   8.292  17.875  0.00  0.00    +0.000 C 
BRANCH   2   3
ATOM      3  C   UNK A   0       1.678   9.055  18.587  0.00  0.00    +0.000 C 
ATOM      4  O   UNK A   0       1.499   8.869  19.797  0.00  0.00    +0.000 OA
ATOM      5  N   MET A   1       0.860   9.934  17.926  0.00  0.00    +0.000 N 
ATOM      6  H   MET A   1       0.832   9.854  16.911  0.00  0.00    +0.000 HD
BRANCH   5   7
ATOM      7  CA  MET A   1      -0.353  10.535  18.511  0.00  0.00    +0.000 C 
BRANCH   7   8
ATOM      8  C   MET A   1      -1.437  10.530  17.408  0.00  0.00    +0.000 C 
ATOM      9  O   MET A   1      -1.921   9.495  16.963  0.00  0.00    +0.000 OA
BRANCH   8  10
ATOM     10  OXT MET A   1      -1.830  11.745  16.959  0.00  0.00    +0.000 OA
ATOM     11  HXT MET A   1      -2.192  12.356  17.629  0.00  0.00    +0.000 HD
ENDBRANCH   8  10
ENDBRANCH   7   8
BRANCH   7  12
ATOM     12  CB  MET A   1      -0.246  12.001  19.018  0.00  0.00    +0.000 C 
BRANCH  12  13
ATOM     13  CG  MET A   1      -0.673  12.240  20.464  0.00  0.00    +0.000 C 
BRANCH  13  14
ATOM     14  SD  MET A   1      -2.363  12.947  20.482  0.00  0.00    +0.000 S 
ATOM     15  CE  MET A   1      -1.928  14.700  20.598  0.00  0.00    +0.000 C 
ENDBRANCH  13  14
ENDBRANCH  12  13
ENDBRANCH   7  12
ENDBRANCH   5   7
ENDBRANCH   2   3
ENDBRANCH   1   2
BRANCH   1  16
ATOM     16  C   UNK A   0       1.908   6.015  17.859  0.00  0.00    +0.000 C 
BRANCH  16  17
ATOM     17  C   UNK A   0       1.743   4.849  18.822  0.00  0.00    +0.000 A 
ATOM     18  C   UNK A   0       1.360   3.582  18.355  0.00  0.00    +0.000 A 
ATOM     19  C   UNK A   0       1.096   2.547  19.256  0.00  0.00    +0.000 A 
ATOM     20  C   UNK A   0       1.220   2.761  20.627  0.00  0.00    +0.000 A 
ATOM     21  C   UNK A   0       1.634   4.004  21.101  0.00  0.00    +0.000 A 
ATOM     22  C   UNK A   0       1.903   5.040  20.205  0.00  0.00    +0.000 A 
ENDBRANCH  16  17
ENDBRANCH   1  16
BRANCH   1  23
ATOM     23  C   UNK A   0       4.201   6.349  17.079  0.00  0.00    +0.000 C 
BRANCH  23  24
ATOM     24  C   UNK A   0       4.790   4.894  17.160  0.00  0.00    +0.000 C 
BRANCH  24  25
ATOM     25  N   UNK A   0       5.330   4.463  15.879  0.00  0.00    +0.000 N 
ATOM     26  C   UNK A   0       6.412   5.124  15.316  0.00  0.00    +0.000 C 
ATOM     27  O   UNK A   0       6.880   6.163  15.776  0.00  0.00    +0.000 OA
ATOM     28  H   UNK A   0       5.088   3.539  15.541  0.00  0.00    +0.000 HD
BRANCH  26  29
ATOM     29  C   UNK A   0       6.959   4.461  14.065  0.00  0.00    +0.000 C 
BRANCH  29  30
ATOM     30  C   UNK A   0       5.859   3.684  13.350  0.00  0.00    +0.000 C 
BRANCH  30  31
ATOM     31  S   UNK A   0       6.492   2.961  11.806  0.00  0.00    +0.000 S 
ATOM     32  H   UNK A   0       7.774   3.309  11.982  0.00  0.00    +0.000 HD
ENDBRANCH  30  31
ENDBRANCH  29  30
ENDBRANCH  26  29
ENDBRANCH  24  25
BRANCH  24  33
ATOM     33  C   UNK A   0       5.760   4.547  18.367  0.00  0.00    +0.000 C 
ATOM     34  C   UNK A   0       5.020   3.576  19.315  0.00  0.00    +0.000 C 
BRANCH  33  36
ATOM     35  C   UNK A   0       7.928   5.870  19.209  0.00  0.00    +0.000 C 
ATOM     36  C   UNK A   0       6.436   5.596  19.293  0.00  0.00    +0.000 C 
ENDBRANCH  33  36
ENDBRANCH  24  33
ENDBRANCH  23  24
ENDBRANCH   1  23
TORSDOF 18
ENDMDL
MODEL 4
REMARK VINA RESULT:      -6.1      2.898      4.222
REMARK  Name = 
REMARK  21 active torsions:
REMARK  status: ('A' for Active; 'I' for Inactive)
REMARK    1  A    between atoms: C_1  and  C_2
REMARK    2  A    between atoms: C_2  and  C_3
REMARK    3  A    between atoms: C_3  and  C_4
REMARK    4  A    between atoms: C_3  and  C_5
REMARK    5  A    between atoms: C_5  and  C_6
REMARK    6  A    between atoms: C_5  and  N_27
REMARK    7  A    between atoms: C_6  and  N_7
REMARK    8  A    between atoms: N_7  and  C_8
REMARK    9  A    between atoms: N_7  and  C_20
REMARK   10  A    between atoms: C_8  and  C_9
REMARK   11  A    between atoms: N_11  and  CA_12
REMARK   12  A    between atoms: CA_12  and  CB_13
REMARK   13  A    between atoms: CA_12  and  C_17
REMARK   14  A    between atoms: CB_13  and  CG_14
REMARK   15  A    between atoms: CG_14  and  SD_15
REMARK   16  A    between atoms: SD_15  and  CE_16
REMARK   17  A    between atoms: C_17  and  OXT_19
REMARK   18  A    between atoms: C_20  and  C_21
REMARK   19  A    between atoms: C_28  and  C_30
REMARK   20  A    between atoms: C_30  and  C_31
REMARK   21  A    between atoms: C_31  and  S_32
REMARK                            x       y       z     vdW  Elec       q    Type
REMARK                         _______ _______ _______ _____ _____    ______ ____
ROOT
ATOM      1  N   UNK A   0       3.974   6.974  18.653  0.00  0.00    +0.000 NA
ENDROOT
BRANCH   1   2
ATOM      2  C   UNK A   0       2.490   7.239  18.567  0.00  0.00    +0.000 C 
BRANCH   2   3
ATOM      3  C   UNK A   0       1.879   8.686  18.502  0.00  0.00    +0.000 C 
ATOM      4  O   UNK A   0       2.063   9.360  17.481  0.00  0.00    +0.000 OA
ATOM      5  N   MET A   1       1.134   9.219  19.521  0.00  0.00    +0.000 N 
ATOM      6  H   MET A   1       1.239   8.785  20.437  0.00  0.00    +0.000 HD
BRANCH   5   7
ATOM      7  CA  MET A   1       0.693  10.625  19.574  0.00  0.00    +0.000 C 
BRANCH   7   8
ATOM      8  C   MET A   1       0.888  11.106  21.031  0.00  0.00    +0.000 C 
ATOM      9  O   MET A   1       0.832  12.289  21.348  0.00  0.00    +0.000 OA
BRANCH   8  10
ATOM     10  OXT MET A   1       1.119  10.137  21.948  0.00  0.00    +0.000 OA
ATOM     11  HXT MET A   1       1.961  10.201  22.439  0.00  0.00    +0.000 HD
ENDBRANCH   8  10
ENDBRANCH   7   8
BRANCH   7  12
ATOM     12  CB  MET A   1      -0.790  10.918  19.207  0.00  0.00    +0.000 C 
BRANCH  12  13
ATOM     13  CG  MET A   1      -1.300  10.269  17.922  0.00  0.00    +0.000 C 
BRANCH  13  14
ATOM     14  SD  MET A   1      -3.083  10.643  17.727  0.00  0.00    +0.000 S 
ATOM     15  CE  MET A   1      -3.239  11.918  19.004  0.00  0.00    +0.000 C 
ENDBRANCH  13  14
ENDBRANCH  12  13
ENDBRANCH   7  12
ENDBRANCH   5   7
ENDBRANCH   2   3
ENDBRANCH   1   2
BRANCH   1  16
ATOM     16  C   UNK A   0       4.220   5.583  19.151  0.00  0.00    +0.000 C 
BRANCH  16  17
ATOM     17  C   UNK A   0       2.955   4.749  19.288  0.00  0.00    +0.000 A 
ATOM     18  C   UNK A   0       2.342   4.575  20.540  0.00  0.00    +0.000 A 
ATOM     19  C   UNK A   0       1.251   3.714  20.679  0.00  0.00    +0.000 A 
ATOM     20  C   UNK A   0       0.754   3.027  19.573  0.00  0.00    +0.000 A 
ATOM     21  C   UNK A   0       1.331   3.219  18.320  0.00  0.00    +0.000 A 
ATOM     22  C   UNK A   0       2.419   4.081  18.175  0.00  0.00    +0.000 A 
ENDBRANCH  16  17
ENDBRANCH   1  16
BRANCH   1  23
ATOM     23  C   UNK A   0       4.592   7.055  17.235  0.00  0.00    +0.000 C 
BRANCH  23  24
ATOM     24  C   UNK A   0       5.880   6.229  16.876  0.00  0.00    +0.000 C 
BRANCH  24  25
ATOM     25  N   UNK A   0       5.869   5.796  15.487  0.00  0.00    +0.000 N 
ATOM     26  C   UNK A   0       5.474   4.508  15.156  0.00  0.00    +0.000 C 
ATOM     27  O   UNK A   0       5.248   3.637  15.994  0.00  0.00    +0.000 OA
ATOM     28  H   UNK A   0       5.895   6.503  14.762  0.00  0.00    +0.000 HD
BRANCH  26  29
ATOM     29  C   UNK A   0       5.362   4.259  13.664  0.00  0.00    +0.000 C 
BRANCH  29  30
ATOM     30  C   UNK A   0       6.671   3.699  13.118  0.00  0.00    +0.000 C 
BRANCH  30  31
ATOM     31  S   UNK A   0       6.347   2.516  11.775  0.00  0.00    +0.000 S 
ATOM     32  H   UNK A   0       7.548   1.922  11.794  0.00  0.00    +0.000 HD
ENDBRANCH  30  31
ENDBRANCH  29  30
ENDBRANCH  26  29
ENDBRANCH  24  25
BRANCH  24  33
ATOM     33  C   UNK A   0       7.289   6.816  17.310  0.00  0.00    +0.000 C 
ATOM     34  C   UNK A   0       7.714   6.126  18.626  0.00  0.00    +0.000 C 
BRANCH  33  36
ATOM     35  C   UNK A   0       8.629   8.784  18.530  0.00  0.00    +0.000 C 
ATOM     36  C   UNK A   0       7.598   8.325  17.514  0.00  0.00    +0.000 C 
ENDBRANCH  33  36
ENDBRANCH  24  33
ENDBRANCH  23  24
ENDBRANCH   1  23
TORSDOF 18
ENDMDL
MODEL 5
REMARK VINA RESULT:      -6.1      2.970      3.789
REMARK  Name = 
REMARK  21 active torsions:
REMARK  status: ('A' for Active; 'I' for Inactive)
REMARK    1  A    between atoms: C_1  and  C_2
REMARK    2  A    between atoms: C_2  and  C_3
REMARK    3  A    between atoms: C_3  and  C_4
REMARK    4  A    between atoms: C_3  and  C_5
REMARK    5  A    between atoms: C_5  and  C_6
REMARK    6  A    between atoms: C_5  and  N_27
REMARK    7  A    between atoms: C_6  and  N_7
REMARK    8  A    between atoms: N_7  and  C_8
REMARK    9  A    between atoms: N_7  and  C_20
REMARK   10  A    between atoms: C_8  and  C_9
REMARK   11  A    between atoms: N_11  and  CA_12
REMARK   12  A    between atoms: CA_12  and  CB_13
REMARK   13  A    between atoms: CA_12  and  C_17
REMARK   14  A    between atoms: CB_13  and  CG_14
REMARK   15  A    between atoms: CG_14  and  SD_15
REMARK   16  A    between atoms: SD_15  and  CE_16
REMARK   17  A    between atoms: C_17  and  OXT_19
REMARK   18  A    between atoms: C_20  and  C_21
REMARK   19  A    between atoms: C_28  and  C_30
REMARK   20  A    between atoms: C_30  and  C_31
REMARK   21  A    between atoms: C_31  and  S_32
REMARK                            x       y       z     vdW  Elec       q    Type
REMARK                         _______ _______ _______ _____ _____    ______ ____
ROOT
ATOM      1  N   UNK A   0       3.112   6.995  18.020  0.00  0.00    +0.000 NA
ENDROOT
BRANCH   1   2
ATOM      2  C   UNK A   0       2.370   8.216  17.534  0.00  0.00    +0.000 C 
BRANCH   2   3
ATOM      3  C   UNK A   0       1.599   9.191  18.496  0.00  0.00    +0.000 C 
ATOM      4  O   UNK A   0       1.434   8.851  19.674  0.00  0.00    +0.000 OA
ATOM      5  N   MET A   1       1.123  10.409  18.087  0.00  0.00    +0.000 N 
ATOM      6  H   MET A   1       1.009  10.539  17.083  0.00  0.00    +0.000 HD
BRANCH   5   7
ATOM      7  CA  MET A   1       0.249  11.272  18.903  0.00  0.00    +0.000 C 
BRANCH   7   8
ATOM      8  C   MET A   1      -1.123  11.328  18.192  0.00  0.00    +0.000 C 
ATOM      9  O   MET A   1      -1.971  10.453  18.325  0.00  0.00    +0.000 OA
BRANCH   8  10
ATOM     10  OXT MET A   1      -1.340  12.412  17.410  0.00  0.00    +0.000 OA
ATOM     11  HXT MET A   1      -0.781  13.192  17.589  0.00  0.00    +0.000 HD
ENDBRANCH   8  10
ENDBRANCH   7   8
BRANCH   7  12
ATOM     12  CB  MET A   1       0.700  12.746  19.110  0.00  0.00    +0.000 C 
BRANCH  12  13
ATOM     13  CG  MET A   1       2.094  13.095  18.593  0.00  0.00    +0.000 C 
BRANCH  13  14
ATOM     14  SD  MET A   1       2.517  14.801  19.113  0.00  0.00    +0.000 S 
ATOM     15  CE  MET A   1       3.501  15.292  17.675  0.00  0.00    +0.000 C 
ENDBRANCH  13  14
ENDBRANCH  12  13
ENDBRANCH   7  12
ENDBRANCH   5   7
ENDBRANCH   2   3
ENDBRANCH   1   2
BRANCH   1  16
ATOM     16  C   UNK A   0       2.397   5.752  17.586  0.00  0.00    +0.000 C 
BRANCH  16  17
ATOM     17  C   UNK A   0       2.037   4.822  18.734  0.00  0.00    +0.000 A 
ATOM     18  C   UNK A   0       1.495   3.550  18.484  0.00  0.00    +0.000 A 
ATOM     19  C   UNK A   0       1.057   2.749  19.541  0.00  0.00    +0.000 A 
ATOM     20  C   UNK A   0       1.163   3.200  20.855  0.00  0.00    +0.000 A 
ATOM     21  C   UNK A   0       1.732   4.445  21.118  0.00  0.00    +0.000 A 
ATOM     22  C   UNK A   0       2.174   5.248  20.065  0.00  0.00    +0.000 A 
ENDBRANCH  16  17
ENDBRANCH   1  16
BRANCH   1  23
ATOM     23  C   UNK A   0       4.516   6.952  17.365  0.00  0.00    +0.000 C 
BRANCH  23  24
ATOM     24  C   UNK A   0       5.231   5.579  17.094  0.00  0.00    +0.000 C 
BRANCH  24  25
ATOM     25  N   UNK A   0       5.721   5.491  15.727  0.00  0.00    +0.000 N 
ATOM     26  C   UNK A   0       5.938   4.253  15.139  0.00  0.00    +0.000 C 
ATOM     27  O   UNK A   0       5.866   3.193  15.755  0.00  0.00    +0.000 OA
ATOM     28  H   UNK A   0       5.650   6.310  15.137  0.00  0.00    +0.000 HD
BRANCH  26  29
ATOM     29  C   UNK A   0       6.294   4.323  13.665  0.00  0.00    +0.000 C 
BRANCH  29  30
ATOM     30  C   UNK A   0       5.186   3.705  12.819  0.00  0.00    +0.000 C 
BRANCH  30  31
ATOM     31  S   UNK A   0       5.874   2.475  11.670  0.00  0.00    +0.000 S 
ATOM     32  H   UNK A   0       6.431   1.685  12.599  0.00  0.00    +0.000 HD
ENDBRANCH  30  31
ENDBRANCH  29  30
ENDBRANCH  26  29
ENDBRANCH  24  25
BRANCH  24  33
ATOM     33  C   UNK A   0       6.303   5.075  18.150  0.00  0.00    +0.000 C 
ATOM     34  C   UNK A   0       5.633   5.049  19.542  0.00  0.00    +0.000 C 
BRANCH  33  36
ATOM     35  C   UNK A   0       7.913   7.212  18.195  0.00  0.00    +0.000 C 
ATOM     36  C   UNK A   0       7.699   5.719  18.374  0.00  0.00    +0.000 C 
ENDBRANCH  33  36
ENDBRANCH  24  33
ENDBRANCH  23  24
ENDBRANCH   1  23
TORSDOF 18
ENDMDL
MODEL 6
REMARK VINA RESULT:      -6.1      2.737      4.011
REMARK  Name = 
REMARK  21 active torsions:
REMARK  status: ('A' for Active; 'I' for Inactive)
REMARK    1  A    between atoms: C_1  and  C_2
REMARK    2  A    between atoms: C_2  and  C_3
REMARK    3  A    between atoms: C_3  and  C_4
REMARK    4  A    between atoms: C_3  and  C_5
REMARK    5  A    between atoms: C_5  and  C_6
REMARK    6  A    between atoms: C_5  and  N_27
REMARK    7  A    between atoms: C_6  and  N_7
REMARK    8  A    between atoms: N_7  and  C_8
REMARK    9  A    between atoms: N_7  and  C_20
REMARK   10  A    between atoms: C_8  and  C_9
REMARK   11  A    between atoms: N_11  and  CA_12
REMARK   12  A    between atoms: CA_12  and  CB_13
REMARK   13  A    between atoms: CA_12  and  C_17
REMARK   14  A    between atoms: CB_13  and  CG_14
REMARK   15  A    between atoms: CG_14  and  SD_15
REMARK   16  A    between atoms: SD_15  and  CE_16
REMARK   17  A    between atoms: C_17  and  OXT_19
REMARK   18  A    between atoms: C_20  and  C_21
REMARK   19  A    between atoms: C_28  and  C_30
REMARK   20  A    between atoms: C_30  and  C_31
REMARK   21  A    between atoms: C_31  and  S_32
REMARK                            x       y       z     vdW  Elec       q    Type
REMARK                         _______ _______ _______ _____ _____    ______ ____
ROOT
ATOM      1  N   UNK A   0       3.377   6.881  18.268  0.00  0.00    +0.000 NA
ENDROOT
BRANCH   1   2
ATOM      2  C   UNK A   0       2.092   7.502  17.776  0.00  0.00    +0.000 C 
BRANCH   2   3
ATOM      3  C   UNK A   0       1.680   8.985  18.094  0.00  0.00    +0.000 C 
ATOM      4  O   UNK A   0       2.201   9.897  17.441  0.00  0.00    +0.000 OA
ATOM      5  N   MET A   1       0.750   9.305  19.049  0.00  0.00    +0.000 N 
ATOM      6  H   MET A   1       0.559   8.593  19.753  0.00  0.00    +0.000 HD
BRANCH   5   7
ATOM      7  CA  MET A   1       0.464  10.680  19.497  0.00  0.00    +0.000 C 
BRANCH   7   8
ATOM      8  C   MET A   1       0.932  10.784  20.967  0.00  0.00    +0.000 C 
ATOM      9  O   MET A   1       1.357  11.827  21.452  0.00  0.00    +0.000 OA
BRANCH   8  10
ATOM     10  OXT MET A   1       0.840   9.649  21.699  0.00  0.00    +0.000 OA
ATOM     11  HXT MET A   1       0.613   8.836  21.208  0.00  0.00    +0.000 HD
ENDBRANCH   8  10
ENDBRANCH   7   8
BRANCH   7  12
ATOM     12  CB  MET A   1      -1.022  11.139  19.473  0.00  0.00    +0.000 C 
BRANCH  12  13
ATOM     13  CG  MET A   1      -1.258  12.618  19.174  0.00  0.00    +0.000 C 
BRANCH  13  14
ATOM     14  SD  MET A   1      -2.248  13.354  20.529  0.00  0.00    +0.000 S 
ATOM     15  CE  MET A   1      -0.999  14.478  21.204  0.00  0.00    +0.000 C 
ENDBRANCH  13  14
ENDBRANCH  12  13
ENDBRANCH   7  12
ENDBRANCH   5   7
ENDBRANCH   2   3
ENDBRANCH   1   2
BRANCH   1  16
ATOM     16  C   UNK A   0       3.356   5.402  18.032  0.00  0.00    +0.000 C 
BRANCH  16  17
ATOM     17  C   UNK A   0       2.510   4.634  19.036  0.00  0.00    +0.000 A 
ATOM     18  C   UNK A   0       2.728   4.775  20.416  0.00  0.00    +0.000 A 
ATOM     19  C   UNK A   0       2.029   3.980  21.327  0.00  0.00    +0.000 A 
ATOM     20  C   UNK A   0       1.099   3.046  20.874  0.00  0.00    +0.000 A 
ATOM     21  C   UNK A   0       0.848   2.921  19.510  0.00  0.00    +0.000 A 
ATOM     22  C   UNK A   0       1.542   3.716  18.595  0.00  0.00    +0.000 A 
ENDBRANCH  16  17
ENDBRANCH   1  16
BRANCH   1  23
ATOM     23  C   UNK A   0       4.566   7.445  17.450  0.00  0.00    +0.000 C 
BRANCH  23  24
ATOM     24  C   UNK A   0       5.745   6.507  17.003  0.00  0.00    +0.000 C 
BRANCH  24  25
ATOM     25  N   UNK A   0       5.597   6.084  15.618  0.00  0.00    +0.000 N 
ATOM     26  C   UNK A   0       5.708   4.743  15.279  0.00  0.00    +0.000 C 
ATOM     27  O   UNK A   0       6.063   3.875  16.072  0.00  0.00    +0.000 OA
ATOM     28  H   UNK A   0       5.160   6.722  14.964  0.00  0.00    +0.000 HD
BRANCH  26  29
ATOM     29  C   UNK A   0       5.372   4.443  13.830  0.00  0.00    +0.000 C 
BRANCH  29  30
ATOM     30  C   UNK A   0       6.474   3.607  13.189  0.00  0.00    +0.000 C 
BRANCH  30  31
ATOM     31  S   UNK A   0       5.827   2.688  11.759  0.00  0.00    +0.000 S 
ATOM     32  H   UNK A   0       5.167   1.753  12.457  0.00  0.00    +0.000 HD
ENDBRANCH  30  31
ENDBRANCH  29  30
ENDBRANCH  26  29
ENDBRANCH  24  25
BRANCH  24  33
ATOM     33  C   UNK A   0       7.229   6.961  17.335  0.00  0.00    +0.000 C 
ATOM     34  C   UNK A   0       7.686   6.217  18.610  0.00  0.00    +0.000 C 
BRANCH  33  36
ATOM     35  C   UNK A   0       8.646   8.818  18.640  0.00  0.00    +0.000 C 
ATOM     36  C   UNK A   0       7.684   8.435  17.530  0.00  0.00    +0.000 C 
ENDBRANCH  33  36
ENDBRANCH  24  33
ENDBRANCH  23  24
ENDBRANCH   1  23
TORSDOF 18
ENDMDL
MODEL 7
REMARK VINA RESULT:      -6.1      2.672      3.836
REMARK  Name = 
REMARK  21 active torsions:
REMARK  status: ('A' for Active; 'I' for Inactive)
REMARK    1  A    between atoms: C_1  and  C_2
REMARK    2  A    between atoms: C_2  and  C_3
REMARK    3  A    between atoms: C_3  and  C_4
REMARK    4  A    between atoms: C_3  and  C_5
REMARK    5  A    between atoms: C_5  and  C_6
REMARK    6  A    between atoms: C_5  and  N_27
REMARK    7  A    between atoms: C_6  and  N_7
REMARK    8  A    between atoms: N_7  and  C_8
REMARK    9  A    between atoms: N_7  and  C_20
REMARK   10  A    between atoms: C_8  and  C_9
REMARK   11  A    between atoms: N_11  and  CA_12
REMARK   12  A    between atoms: CA_12  and  CB_13
REMARK   13  A    between atoms: CA_12  and  C_17
REMARK   14  A    between atoms: CB_13  and  CG_14
REMARK   15  A    between atoms: CG_14  and  SD_15
REMARK   16  A    between atoms: SD_15  and  CE_16
REMARK   17  A    between atoms: C_17  and  OXT_19
REMARK   18  A    between atoms: C_20  and  C_21
REMARK   19  A    between atoms: C_28  and  C_30
REMARK   20  A    between atoms: C_30  and  C_31
REMARK   21  A    between atoms: C_31  and  S_32
REMARK                            x       y       z     vdW  Elec       q    Type
REMARK                         _______ _______ _______ _____ _____    ______ ____
ROOT
ATOM      1  N   UNK A   0       3.736   6.741  18.090  0.00  0.00    +0.000 NA
ENDROOT
BRANCH   1   2
ATOM      2  C   UNK A   0       2.413   7.410  17.809  0.00  0.00    +0.000 C 
BRANCH   2   3
ATOM      3  C   UNK A   0       1.921   8.693  18.572  0.00  0.00    +0.000 C 
ATOM      4  O   UNK A   0       1.927   8.684  19.809  0.00  0.00    +0.000 OA
ATOM      5  N   MET A   1       1.507   9.826  17.922  0.00  0.00    +0.000 N 
ATOM      6  H   MET A   1       1.237   9.717  16.945  0.00  0.00    +0.000 HD
BRANCH   5   7
ATOM      7  CA  MET A   1       0.878  10.980  18.590  0.00  0.00    +0.000 C 
BRANCH   7   8
ATOM      8  C   MET A   1       1.926  12.118  18.610  0.00  0.00    +0.000 C 
ATOM      9  O   MET A   1       2.235  12.712  19.638  0.00  0.00    +0.000 OA
BRANCH   8  10
ATOM     10  OXT MET A   1       2.493  12.421  17.419  0.00  0.00    +0.000 OA
ATOM     11  HXT MET A   1       2.725  13.359  17.278  0.00  0.00    +0.000 HD
ENDBRANCH   8  10
ENDBRANCH   7   8
BRANCH   7  12
ATOM     12  CB  MET A   1       0.414  10.782  20.062  0.00  0.00    +0.000 C 
BRANCH  12  13
ATOM     13  CG  MET A   1      -0.499  11.868  20.625  0.00  0.00    +0.000 C 
BRANCH  13  14
ATOM     14  SD  MET A   1      -1.157  11.318  22.244  0.00  0.00    +0.000 S 
ATOM     15  CE  MET A   1      -0.025   9.938  22.548  0.00  0.00    +0.000 C 
ENDBRANCH  13  14
ENDBRANCH  12  13
ENDBRANCH   7  12
ENDBRANCH   5   7
ENDBRANCH   2   3
ENDBRANCH   1   2
BRANCH   1  16
ATOM     16  C   UNK A   0       3.638   5.272  17.816  0.00  0.00    +0.000 C 
BRANCH  16  17
ATOM     17  C   UNK A   0       2.775   4.519  18.817  0.00  0.00    +0.000 A 
ATOM     18  C   UNK A   0       1.787   3.621  18.381  0.00  0.00    +0.000 A 
ATOM     19  C   UNK A   0       0.921   3.023  19.299  0.00  0.00    +0.000 A 
ATOM     20  C   UNK A   0       1.035   3.304  20.659  0.00  0.00    +0.000 A 
ATOM     21  C   UNK A   0       2.034   4.166  21.107  0.00  0.00    +0.000 A 
ATOM     22  C   UNK A   0       2.905   4.763  20.194  0.00  0.00    +0.000 A 
ENDBRANCH  16  17
ENDBRANCH   1  16
BRANCH   1  23
ATOM     23  C   UNK A   0       4.811   7.303  17.126  0.00  0.00    +0.000 C 
BRANCH  23  24
ATOM     24  C   UNK A   0       6.176   6.551  16.925  0.00  0.00    +0.000 C 
BRANCH  24  25
ATOM     25  N   UNK A   0       6.317   6.050  15.566  0.00  0.00    +0.000 N 
ATOM     26  C   UNK A   0       7.017   4.877  15.320  0.00  0.00    +0.000 C 
ATOM     27  O   UNK A   0       7.657   4.282  16.183  0.00  0.00    +0.000 OA
ATOM     28  H   UNK A   0       5.692   6.408  14.854  0.00  0.00    +0.000 HD
BRANCH  26  29
ATOM     29  C   UNK A   0       6.940   4.402  13.881  0.00  0.00    +0.000 C 
BRANCH  29  30
ATOM     30  C   UNK A   0       5.535   3.905  13.558  0.00  0.00    +0.000 C 
BRANCH  30  31
ATOM     31  S   UNK A   0       5.518   3.035  11.961  0.00  0.00    +0.000 S 
ATOM     32  H   UNK A   0       5.823   4.095  11.200  0.00  0.00    +0.000 HD
ENDBRANCH  30  31
ENDBRANCH  29  30
ENDBRANCH  26  29
ENDBRANCH  24  25
BRANCH  24  33
ATOM     33  C   UNK A   0       7.500   7.255  17.445  0.00  0.00    +0.000 C 
ATOM     34  C   UNK A   0       7.931   6.562  18.757  0.00  0.00    +0.000 C 
BRANCH  33  36
ATOM     35  C   UNK A   0       8.734   9.310  18.632  0.00  0.00    +0.000 C 
ATOM     36  C   UNK A   0       7.650   8.778  17.711  0.00  0.00    +0.000 C 
ENDBRANCH  33  36
ENDBRANCH  24  33
ENDBRANCH  23  24
ENDBRANCH   1  23
TORSDOF 18
ENDMDL
MODEL 8
REMARK VINA RESULT:      -6.1      2.779      4.070
REMARK  Name = 
REMARK  21 active torsions:
REMARK  status: ('A' for Active; 'I' for Inactive)
REMARK    1  A    between atoms: C_1  and  C_2
REMARK    2  A    between atoms: C_2  and  C_3
REMARK    3  A    between atoms: C_3  and  C_4
REMARK    4  A    between atoms: C_3  and  C_5
REMARK    5  A    between atoms: C_5  and  C_6
REMARK    6  A    between atoms: C_5  and  N_27
REMARK    7  A    between atoms: C_6  and  N_7
REMARK    8  A    between atoms: N_7  and  C_8
REMARK    9  A    between atoms: N_7  and  C_20
REMARK   10  A    between atoms: C_8  and  C_9
REMARK   11  A    between atoms: N_11  and  CA_12
REMARK   12  A    between atoms: CA_12  and  CB_13
REMARK   13  A    between atoms: CA_12  and  C_17
REMARK   14  A    between atoms: CB_13  and  CG_14
REMARK   15  A    between atoms: CG_14  and  SD_15
REMARK   16  A    between atoms: SD_15  and  CE_16
REMARK   17  A    between atoms: C_17  and  OXT_19
REMARK   18  A    between atoms: C_20  and  C_21
REMARK   19  A    between atoms: C_28  and  C_30
REMARK   20  A    between atoms: C_30  and  C_31
REMARK   21  A    between atoms: C_31  and  S_32
REMARK                            x       y       z     vdW  Elec       q    Type
REMARK                         _______ _______ _______ _____ _____    ______ ____
ROOT
ATOM      1  N   UNK A   0       3.200   6.742  18.137  0.00  0.00    +0.000 NA
ENDROOT
BRANCH   1   2
ATOM      2  C   UNK A   0       2.191   7.770  17.685  0.00  0.00    +0.000 C 
BRANCH   2   3
ATOM      3  C   UNK A   0       1.819   9.038  18.536  0.00  0.00    +0.000 C 
ATOM      4  O   UNK A   0       2.135  10.154  18.104  0.00  0.00    +0.000 OA
ATOM      5  N   MET A   1       1.139   8.958  19.722  0.00  0.00    +0.000 N 
ATOM      6  H   MET A   1       1.148   8.053  20.192  0.00  0.00    +0.000 HD
BRANCH   5   7
ATOM      7  CA  MET A   1       0.924  10.099  20.631  0.00  0.00    +0.000 C 
BRANCH   7   8
ATOM      8  C   MET A   1       0.742   9.517  22.053  0.00  0.00    +0.000 C 
ATOM      9  O   MET A   1       1.612   9.596  22.914  0.00  0.00    +0.000 OA
BRANCH   8  10
ATOM     10  OXT MET A   1      -0.445   8.915  22.299  0.00  0.00    +0.000 OA
ATOM     11  HXT MET A   1      -0.757   8.939  23.223  0.00  0.00    +0.000 HD
ENDBRANCH   8  10
ENDBRANCH   7   8
BRANCH   7  12
ATOM     12  CB  MET A   1      -0.317  10.998  20.360  0.00  0.00    +0.000 C 
BRANCH  12  13
ATOM     13  CG  MET A   1      -0.116  12.495  20.583  0.00  0.00    +0.000 C 
BRANCH  13  14
ATOM     14  SD  MET A   1       1.655  12.905  20.352  0.00  0.00    +0.000 S 
ATOM     15  CE  MET A   1       1.482  14.661  19.948  0.00  0.00    +0.000 C 
ENDBRANCH  13  14
ENDBRANCH  12  13
ENDBRANCH   7  12
ENDBRANCH   5   7
ENDBRANCH   2   3
ENDBRANCH   1   2
BRANCH   1  16
ATOM     16  C   UNK A   0       2.675   5.362  17.887  0.00  0.00    +0.000 C 
BRANCH  16  17
ATOM     17  C   UNK A   0       2.624   4.492  19.133  0.00  0.00    +0.000 A 
ATOM     18  C   UNK A   0       3.621   3.536  19.383  0.00  0.00    +0.000 A 
ATOM     19  C   UNK A   0       3.507   2.660  20.465  0.00  0.00    +0.000 A 
ATOM     20  C   UNK A   0       2.405   2.735  21.315  0.00  0.00    +0.000 A 
ATOM     21  C   UNK A   0       1.426   3.703  21.099  0.00  0.00    +0.000 A 
ATOM     22  C   UNK A   0       1.538   4.582  20.020  0.00  0.00    +0.000 A 
ENDBRANCH  16  17
ENDBRANCH   1  16
BRANCH   1  23
ATOM     23  C   UNK A   0       4.492   6.886  17.294  0.00  0.00    +0.000 C 
BRANCH  23  24
ATOM     24  C   UNK A   0       5.705   5.911  17.518  0.00  0.00    +0.000 C 
BRANCH  24  25
ATOM     25  N   UNK A   0       5.645   4.768  16.620  0.00  0.00    +0.000 N 
ATOM     26  C   UNK A   0       5.967   4.912  15.278  0.00  0.00    +0.000 C 
ATOM     27  O   UNK A   0       6.181   6.001  14.750  0.00  0.00    +0.000 OA
ATOM     28  H   UNK A   0       5.627   3.839  17.024  0.00  0.00    +0.000 HD
BRANCH  26  29
ATOM     29  C   UNK A   0       6.013   3.605  14.509  0.00  0.00    +0.000 C 
BRANCH  29  30
ATOM     30  C   UNK A   0       6.505   3.841  13.085  0.00  0.00    +0.000 C 
BRANCH  30  31
ATOM     31  S   UNK A   0       5.499   2.898  11.899  0.00  0.00    +0.000 S 
ATOM     32  H   UNK A   0       4.936   3.953  11.294  0.00  0.00    +0.000 HD
ENDBRANCH  30  31
ENDBRANCH  29  30
ENDBRANCH  26  29
ENDBRANCH  24  25
BRANCH  24  33
ATOM     33  C   UNK A   0       7.161   6.537  17.597  0.00  0.00    +0.000 C 
ATOM     34  C   UNK A   0       7.786   6.131  18.950  0.00  0.00    +0.000 C 
BRANCH  33  36
ATOM     35  C   UNK A   0       8.478   8.743  18.341  0.00  0.00    +0.000 C 
ATOM     36  C   UNK A   0       7.490   8.045  17.423  0.00  0.00    +0.000 C 
ENDBRANCH  33  36
ENDBRANCH  24  33
ENDBRANCH  23  24
ENDBRANCH   1  23
TORSDOF 18
ENDMDL
MODEL 9
REMARK VINA RESULT:      -5.9      1.883      2.905
REMARK  Name = 
REMARK  21 active torsions:
REMARK  status: ('A' for Active; 'I' for Inactive)
REMARK    1  A    between atoms: C_1  and  C_2
REMARK    2  A    between atoms: C_2  and  C_3
REMARK    3  A    between atoms: C_3  and  C_4
REMARK    4  A    between atoms: C_3  and  C_5
REMARK    5  A    between atoms: C_5  and  C_6
REMARK    6  A    between atoms: C_5  and  N_27
REMARK    7  A    between atoms: C_6  and  N_7
REMARK    8  A    between atoms: N_7  and  C_8
REMARK    9  A    between atoms: N_7  and  C_20
REMARK   10  A    between atoms: C_8  and  C_9
REMARK   11  A    between atoms: N_11  and  CA_12
REMARK   12  A    between atoms: CA_12  and  CB_13
REMARK   13  A    between atoms: CA_12  and  C_17
REMARK   14  A    between atoms: CB_13  and  CG_14
REMARK   15  A    between atoms: CG_14  and  SD_15
REMARK   16  A    between atoms: SD_15  and  CE_16
REMARK   17  A    between atoms: C_17  and  OXT_19
REMARK   18  A    between atoms: C_20  and  C_21
REMARK   19  A    between atoms: C_28  and  C_30
REMARK   20  A    between atoms: C_30  and  C_31
REMARK   21  A    between atoms: C_31  and  S_32
REMARK                            x       y       z     vdW  Elec       q    Type
REMARK                         _______ _______ _______ _____ _____    ______ ____
ROOT
ATOM      1  N   UNK A   0       2.795   6.924  19.023  0.00  0.00    +0.000 NA
ENDROOT
BRANCH   1   2
ATOM      2  C   UNK A   0       2.049   7.832  18.076  0.00  0.00    +0.000 C 
BRANCH   2   3
ATOM      3  C   UNK A   0       1.595   9.287  18.459  0.00  0.00    +0.000 C 
ATOM      4  O   UNK A   0       2.144  10.244  17.900  0.00  0.00    +0.000 OA
ATOM      5  N   MET A   1       0.601   9.535  19.369  0.00  0.00    +0.000 N 
ATOM      6  H   MET A   1       0.375   8.778  20.013  0.00  0.00    +0.000 HD
BRANCH   5   7
ATOM      7  CA  MET A   1       0.267  10.876  19.883  0.00  0.00    +0.000 C 
BRANCH   7   8
ATOM      8  C   MET A   1       0.430  10.825  21.420  0.00  0.00    +0.000 C 
ATOM      9  O   MET A   1       1.270  10.121  21.971  0.00  0.00    +0.000 OA
BRANCH   8  10
ATOM     10  OXT MET A   1      -0.409  11.614  22.131  0.00  0.00    +0.000 OA
ATOM     11  HXT MET A   1      -0.322  11.570  23.102  0.00  0.00    +0.000 HD
ENDBRANCH   8  10
ENDBRANCH   7   8
BRANCH   7  12
ATOM     12  CB  MET A   1      -1.171  11.403  19.609  0.00  0.00    +0.000 C 
BRANCH  12  13
ATOM     13  CG  MET A   1      -1.518  11.665  18.145  0.00  0.00    +0.000 C 
BRANCH  13  14
ATOM     14  SD  MET A   1      -2.576  10.303  17.526  0.00  0.00    +0.000 S 
ATOM     15  CE  MET A   1      -2.735  10.838  15.803  0.00  0.00    +0.000 C 
ENDBRANCH  13  14
ENDBRANCH  12  13
ENDBRANCH   7  12
ENDBRANCH   5   7
ENDBRANCH   2   3
ENDBRANCH   1   2
BRANCH   1  16
ATOM     16  C   UNK A   0       1.952   6.632  20.226  0.00  0.00    +0.000 C 
BRANCH  16  17
ATOM     17  C   UNK A   0       1.767   5.147  20.498  0.00  0.00    +0.000 A 
ATOM     18  C   UNK A   0       2.580   4.481  21.429  0.00  0.00    +0.000 A 
ATOM     19  C   UNK A   0       2.484   3.097  21.588  0.00  0.00    +0.000 A 
ATOM     20  C   UNK A   0       1.573   2.364  20.830  0.00  0.00    +0.000 A 
ATOM     21  C   UNK A   0       0.736   3.018  19.928  0.00  0.00    +0.000 A 
ATOM     22  C   UNK A   0       0.825   4.402  19.768  0.00  0.00    +0.000 A 
ENDBRANCH  16  17
ENDBRANCH   1  16
BRANCH   1  23
ATOM     23  C   UNK A   0       3.065   5.566  18.328  0.00  0.00    +0.000 C 
BRANCH  23  24
ATOM     24  C   UNK A   0       4.257   5.409  17.317  0.00  0.00    +0.000 C 
BRANCH  24  25
ATOM     25  N   UNK A   0       5.509   5.882  17.888  0.00  0.00    +0.000 N 
ATOM     26  C   UNK A   0       6.322   6.751  17.173  0.00  0.00    +0.000 C 
ATOM     27  O   UNK A   0       6.114   7.056  16.001  0.00  0.00    +0.000 OA
ATOM     28  H   UNK A   0       5.649   5.788  18.886  0.00  0.00    +0.000 HD
BRANCH  26  29
ATOM     29  C   UNK A   0       7.507   7.278  17.961  0.00  0.00    +0.000 C 
BRANCH  29  30
ATOM     30  C   UNK A   0       7.765   8.741  17.619  0.00  0.00    +0.000 C 
BRANCH  30  31
ATOM     31  S   UNK A   0       8.871   9.497  18.850  0.00  0.00    +0.000 S 
ATOM     32  H   UNK A   0       7.925  10.170  19.520  0.00  0.00    +0.000 HD
ENDBRANCH  30  31
ENDBRANCH  29  30
ENDBRANCH  26  29
ENDBRANCH  24  25
BRANCH  24  33
ATOM     33  C   UNK A   0       4.426   4.018  16.572  0.00  0.00    +0.000 C 
ATOM     34  C   UNK A   0       3.959   2.899  17.529  0.00  0.00    +0.000 C 
BRANCH  33  36
ATOM     35  C   UNK A   0       6.161   3.904  14.538  0.00  0.00    +0.000 C 
ATOM     36  C   UNK A   0       5.751   3.502  15.944  0.00  0.00    +0.000 C 
ENDBRANCH  33  36
ENDBRANCH  24  33
ENDBRANCH  23  24
ENDBRANCH   1  23
TORSDOF 18
ENDMDL
