MODEL 1
REMARK VINA RESULT:      -8.9      0.000      0.000
REMARK  Name = 
REMARK  3 active torsions:
REMARK  status: ('A' for Active; 'I' for Inactive)
REMARK    1  A    between atoms: C_2  and  C_3
REMARK    2  A    between atoms: C_2  and  C_10
REMARK    3  A    between atoms: C_6  and  O_7
REMARK                            x       y       z     vdW  Elec       q    Type
REMARK                         _______ _______ _______ _____ _____    ______ ____
ROOT
ATOM      1  C   UNL     1       6.093   4.547  16.836  0.00  0.00    +0.000 A 
ATOM      2  C   UNL     1       5.794   3.737  15.805  0.00  0.00    +0.000 A 
ATOM      3  C   UNL     1       6.323   3.992  14.477  0.00  0.00    +0.000 A 
ATOM      4  C   UNL     1       5.901   3.268  13.360  0.00  0.00    +0.000 A 
ATOM      5  C   UNL     1       6.396   3.589  12.094  0.00  0.00    +0.000 A 
ATOM      6  C   UNL     1       7.316   4.629  11.940  0.00  0.00    +0.000 A 
ATOM      7  C   UNL     1       7.740   5.354  13.053  0.00  0.00    +0.000 A 
ATOM      8  C   UNL     1       7.234   5.026  14.308  0.00  0.00    +0.000 A 
ATOM      9  O   UNL     1       7.658   5.787  15.409  0.00  0.00    +0.000 OA
ATOM     10  C   UNL     1       7.126   5.606  16.688  0.00  0.00    +0.000 A 
ATOM     11  O   UNL     1       7.495   6.320  17.612  0.00  0.00    +0.000 OA
ENDROOT
BRANCH   1  13
ATOM     12  O   UNL     1       5.967   4.607  19.207  0.00  0.00    +0.000 OA
ATOM     13  C   UNL     1       5.414   4.326  18.150  0.00  0.00    +0.000 C 
BRANCH  13  14
ATOM     14  C   UNL     1       4.047   3.713  18.188  0.00  0.00    +0.000 A 
ATOM     15  C   UNL     1       3.806   2.401  18.624  0.00  0.00    +0.000 A 
ATOM     16  C   UNL     1       2.499   1.922  18.758  0.00  0.00    +0.000 A 
ATOM     17  C   UNL     1       1.434   2.742  18.402  0.00  0.00    +0.000 A 
ATOM     18  C   UNL     1       1.654   4.020  17.904  0.00  0.00    +0.000 A 
ATOM     19  C   UNL     1       2.959   4.505  17.794  0.00  0.00    +0.000 A 
BRANCH  17  20
ATOM     20  O   UNL     1       0.143   2.323  18.528  0.00  0.00    +0.000 OA
ATOM     21  H   UNL     1       0.051   1.826  19.357  0.00  0.00    +0.000 HD
ENDBRANCH  17  20
ENDBRANCH  13  14
ENDBRANCH   1  13
TORSDOF 3
ENDMDL
MODEL 2
REMARK VINA RESULT:      -8.8      0.326      1.122
REMARK  Name = 
REMARK  3 active torsions:
REMARK  status: ('A' for Active; 'I' for Inactive)
REMARK    1  A    between atoms: C_2  and  C_3
REMARK    2  A    between atoms: C_2  and  C_10
REMARK    3  A    between atoms: C_6  and  O_7
REMARK                            x       y       z     vdW  Elec       q    Type
REMARK                         _______ _______ _______ _____ _____    ______ ____
ROOT
ATOM      1  C   UNL     1       5.940   4.820  16.905  0.00  0.00    +0.000 A 
ATOM      2  C   UNL     1       5.561   3.978  15.928  0.00  0.00    +0.000 A 
ATOM      3  C   UNL     1       6.124   4.080  14.594  0.00  0.00    +0.000 A 
ATOM      4  C   UNL     1       5.633   3.331  13.522  0.00  0.00    +0.000 A 
ATOM      5  C   UNL     1       6.171   3.506  12.245  0.00  0.00    +0.000 A 
ATOM      6  C   UNL     1       7.201   4.426  12.035  0.00  0.00    +0.000 A 
ATOM      7  C   UNL     1       7.694   5.176  13.102  0.00  0.00    +0.000 A 
ATOM      8  C   UNL     1       7.146   4.993  14.368  0.00  0.00    +0.000 A 
ATOM      9  O   UNL     1       7.643   5.778  15.420  0.00  0.00    +0.000 OA
ATOM     10  C   UNL     1       7.085   5.746  16.701  0.00  0.00    +0.000 A 
ATOM     11  O   UNL     1       7.524   6.478  17.579  0.00  0.00    +0.000 OA
ENDROOT
BRANCH   1  13
ATOM     12  O   UNL     1       5.737   5.232  19.236  0.00  0.00    +0.000 OA
ATOM     13  C   UNL     1       5.231   4.767  18.221  0.00  0.00    +0.000 C 
BRANCH  13  14
ATOM     14  C   UNL     1       3.893   4.098  18.320  0.00  0.00    +0.000 A 
ATOM     15  C   UNL     1       2.699   4.701  17.896  0.00  0.00    +0.000 A 
ATOM     16  C   UNL     1       1.499   3.984  17.895  0.00  0.00    +0.000 A 
ATOM     17  C   UNL     1       1.485   2.679  18.372  0.00  0.00    +0.000 A 
ATOM     18  C   UNL     1       2.643   2.087  18.861  0.00  0.00    +0.000 A 
ATOM     19  C   UNL     1       3.847   2.796  18.838  0.00  0.00    +0.000 A 
BRANCH  17  20
ATOM     20  O   UNL     1       0.342   1.938  18.378  0.00  0.00    +0.000 OA
ATOM     21  H   UNL     1       0.568   1.005  18.231  0.00  0.00    +0.000 HD
ENDBRANCH  17  20
ENDBRANCH  13  14
ENDBRANCH   1  13
TORSDOF 3
ENDMDL
MODEL 3
REMARK VINA RESULT:      -8.5      2.110      2.619
REMARK  Name = 
REMARK  3 active torsions:
REMARK  status: ('A' for Active; 'I' for Inactive)
REMARK    1  A    between atoms: C_2  and  C_3
REMARK    2  A    between atoms: C_2  and  C_10
REMARK    3  A    between atoms: C_6  and  O_7
REMARK                            x       y       z     vdW  Elec       q    Type
REMARK                         _______ _______ _______ _____ _____    ______ ____
ROOT
ATOM      1  C   UNL     1       5.909   4.818  16.855  0.00  0.00    +0.000 A 
ATOM      2  C   UNL     1       5.486   4.019  15.860  0.00  0.00    +0.000 A 
ATOM      3  C   UNL     1       6.070   4.105  14.534  0.00  0.00    +0.000 A 
ATOM      4  C   UNL     1       5.541   3.408  13.445  0.00  0.00    +0.000 A 
ATOM      5  C   UNL     1       6.104   3.567  12.176  0.00  0.00    +0.000 A 
ATOM      6  C   UNL     1       7.196   4.419  11.992  0.00  0.00    +0.000 A 
ATOM      7  C   UNL     1       7.726   5.116  13.076  0.00  0.00    +0.000 A 
ATOM      8  C   UNL     1       7.153   4.951  14.334  0.00  0.00    +0.000 A 
ATOM      9  O   UNL     1       7.690   5.683  15.405  0.00  0.00    +0.000 OA
ATOM     10  C   UNL     1       7.117   5.668  16.679  0.00  0.00    +0.000 A 
ATOM     11  O   UNL     1       7.594   6.354  17.573  0.00  0.00    +0.000 OA
ENDROOT
BRANCH   1  13
ATOM     12  O   UNL     1       5.436   3.946  19.014  0.00  0.00    +0.000 OA
ATOM     13  C   UNL     1       5.184   4.791  18.163  0.00  0.00    +0.000 C 
BRANCH  13  14
ATOM     14  C   UNL     1       4.099   5.789  18.433  0.00  0.00    +0.000 A 
ATOM     15  C   UNL     1       3.248   5.718  19.547  0.00  0.00    +0.000 A 
ATOM     16  C   UNL     1       2.336   6.744  19.816  0.00  0.00    +0.000 A 
ATOM     17  C   UNL     1       2.239   7.816  18.936  0.00  0.00    +0.000 A 
ATOM     18  C   UNL     1       3.024   7.871  17.790  0.00  0.00    +0.000 A 
ATOM     19  C   UNL     1       3.951   6.858  17.536  0.00  0.00    +0.000 A 
BRANCH  17  20
ATOM     20  O   UNL     1       1.375   8.844  19.164  0.00  0.00    +0.000 OA
ATOM     21  H   UNL     1       0.976   9.116  18.321  0.00  0.00    +0.000 HD
ENDBRANCH  17  20
ENDBRANCH  13  14
ENDBRANCH   1  13
TORSDOF 3
ENDMDL
MODEL 4
REMARK VINA RESULT:      -8.4      2.143      2.768
REMARK  Name = 
REMARK  3 active torsions:
REMARK  status: ('A' for Active; 'I' for Inactive)
REMARK    1  A    between atoms: C_2  and  C_3
REMARK    2  A    between atoms: C_2  and  C_10
REMARK    3  A    between atoms: C_6  and  O_7
REMARK                            x       y       z     vdW  Elec       q    Type
REMARK                         _______ _______ _______ _____ _____    ______ ____
ROOT
ATOM      1  C   UNL     1       5.883   4.796  16.714  0.00  0.00    +0.000 A 
ATOM      2  C   UNL     1       5.423   4.022  15.716  0.00  0.00    +0.000 A 
ATOM      3  C   UNL     1       6.014   4.080  14.392  0.00  0.00    +0.000 A 
ATOM      4  C   UNL     1       5.455   3.413  13.300  0.00  0.00    +0.000 A 
ATOM      5  C   UNL     1       6.028   3.546  12.033  0.00  0.00    +0.000 A 
ATOM      6  C   UNL     1       7.162   4.342  11.854  0.00  0.00    +0.000 A 
ATOM      7  C   UNL     1       7.724   5.010  12.941  0.00  0.00    +0.000 A 
ATOM      8  C   UNL     1       7.139   4.871  14.196  0.00  0.00    +0.000 A 
ATOM      9  O   UNL     1       7.709   5.574  15.270  0.00  0.00    +0.000 OA
ATOM     10  C   UNL     1       7.132   5.585  16.543  0.00  0.00    +0.000 A 
ATOM     11  O   UNL     1       7.640   6.245  17.440  0.00  0.00    +0.000 OA
ENDROOT
BRANCH   1  13
ATOM     12  O   UNL     1       5.300   3.902  18.837  0.00  0.00    +0.000 OA
ATOM     13  C   UNL     1       5.154   4.804  18.020  0.00  0.00    +0.000 C 
BRANCH  13  14
ATOM     14  C   UNL     1       4.191   5.911  18.328  0.00  0.00    +0.000 A 
ATOM     15  C   UNL     1       4.000   7.019  17.489  0.00  0.00    +0.000 A 
ATOM     16  C   UNL     1       2.999   7.958  17.762  0.00  0.00    +0.000 A 
ATOM     17  C   UNL     1       2.226   7.813  18.908  0.00  0.00    +0.000 A 
ATOM     18  C   UNL     1       2.445   6.761  19.788  0.00  0.00    +0.000 A 
ATOM     19  C   UNL     1       3.428   5.811  19.501  0.00  0.00    +0.000 A 
BRANCH  17  20
ATOM     20  O   UNL     1       1.232   8.695  19.208  0.00  0.00    +0.000 OA
ATOM     21  H   UNL     1       0.878   8.487  20.088  0.00  0.00    +0.000 HD
ENDBRANCH  17  20
ENDBRANCH  13  14
ENDBRANCH   1  13
TORSDOF 3
ENDMDL
MODEL 5
REMARK VINA RESULT:      -8.1      1.361      1.459
REMARK  Name = 
REMARK  3 active torsions:
REMARK  status: ('A' for Active; 'I' for Inactive)
REMARK    1  A    between atoms: C_2  and  C_3
REMARK    2  A    between atoms: C_2  and  C_10
REMARK    3  A    between atoms: C_6  and  O_7
REMARK                            x       y       z     vdW  Elec       q    Type
REMARK                         _______ _______ _______ _____ _____    ______ ____
ROOT
ATOM      1  C   UNL     1       5.360   5.525  16.260  0.00  0.00    +0.000 A 
ATOM      2  C   UNL     1       4.904   4.633  15.363  0.00  0.00    +0.000 A 
ATOM      3  C   UNL     1       5.672   4.309  14.175  0.00  0.00    +0.000 A 
ATOM      4  C   UNL     1       5.152   3.515  13.150  0.00  0.00    +0.000 A 
ATOM      5  C   UNL     1       5.908   3.278  12.000  0.00  0.00    +0.000 A 
ATOM      6  C   UNL     1       7.186   3.830  11.871  0.00  0.00    +0.000 A 
ATOM      7  C   UNL     1       7.709   4.623  12.892  0.00  0.00    +0.000 A 
ATOM      8  C   UNL     1       6.941   4.853  14.030  0.00  0.00    +0.000 A 
ATOM      9  O   UNL     1       7.480   5.675  15.033  0.00  0.00    +0.000 OA
ATOM     10  C   UNL     1       6.747   6.053  16.160  0.00  0.00    +0.000 A 
ATOM     11  O   UNL     1       7.242   6.806  16.989  0.00  0.00    +0.000 OA
ENDROOT
BRANCH   1  13
ATOM     12  O   UNL     1       4.338   7.108  17.707  0.00  0.00    +0.000 OA
ATOM     13  C   UNL     1       4.473   5.931  17.394  0.00  0.00    +0.000 C 
BRANCH  13  14
ATOM     14  C   UNL     1       3.763   4.882  18.195  0.00  0.00    +0.000 A 
ATOM     15  C   UNL     1       4.430   3.957  19.013  0.00  0.00    +0.000 A 
ATOM     16  C   UNL     1       3.711   3.083  19.835  0.00  0.00    +0.000 A 
ATOM     17  C   UNL     1       2.322   3.099  19.796  0.00  0.00    +0.000 A 
ATOM     18  C   UNL     1       1.643   3.960  18.942  0.00  0.00    +0.000 A 
ATOM     19  C   UNL     1       2.362   4.850  18.140  0.00  0.00    +0.000 A 
BRANCH  17  20
ATOM     20  O   UNL     1       1.581   2.275  20.588  0.00  0.00    +0.000 OA
ATOM     21  H   UNL     1       1.058   1.681  20.026  0.00  0.00    +0.000 HD
ENDBRANCH  17  20
ENDBRANCH  13  14
ENDBRANCH   1  13
TORSDOF 3
ENDMDL
MODEL 6
REMARK VINA RESULT:      -8.0      1.741      6.280
REMARK  Name = 
REMARK  3 active torsions:
REMARK  status: ('A' for Active; 'I' for Inactive)
REMARK    1  A    between atoms: C_2  and  C_3
REMARK    2  A    between atoms: C_2  and  C_10
REMARK    3  A    between atoms: C_6  and  O_7
REMARK                            x       y       z     vdW  Elec       q    Type
REMARK                         _______ _______ _______ _____ _____    ______ ____
ROOT
ATOM      1  C   UNL     1       5.005   5.086  17.486  0.00  0.00    +0.000 A 
ATOM      2  C   UNL     1       3.663   5.084  17.567  0.00  0.00    +0.000 A 
ATOM      3  C   UNL     1       2.976   4.273  18.556  0.00  0.00    +0.000 A 
ATOM      4  C   UNL     1       1.588   4.123  18.558  0.00  0.00    +0.000 A 
ATOM      5  C   UNL     1       0.977   3.287  19.495  0.00  0.00    +0.000 A 
ATOM      6  C   UNL     1       1.751   2.600  20.434  0.00  0.00    +0.000 A 
ATOM      7  C   UNL     1       3.137   2.746  20.437  0.00  0.00    +0.000 A 
ATOM      8  C   UNL     1       3.731   3.580  19.494  0.00  0.00    +0.000 A 
ATOM      9  O   UNL     1       5.131   3.691  19.501  0.00  0.00    +0.000 OA
ATOM     10  C   UNL     1       5.826   4.415  18.529  0.00  0.00    +0.000 A 
ATOM     11  O   UNL     1       7.049   4.451  18.550  0.00  0.00    +0.000 OA
ENDROOT
BRANCH   1  13
ATOM     12  O   UNL     1       5.870   7.032  16.432  0.00  0.00    +0.000 OA
ATOM     13  C   UNL     1       5.661   5.826  16.364  0.00  0.00    +0.000 C 
BRANCH  13  14
ATOM     14  C   UNL     1       6.037   5.095  15.110  0.00  0.00    +0.000 A 
ATOM     15  C   UNL     1       5.209   4.142  14.498  0.00  0.00    +0.000 A 
ATOM     16  C   UNL     1       5.555   3.584  13.263  0.00  0.00    +0.000 A 
ATOM     17  C   UNL     1       6.759   3.941  12.668  0.00  0.00    +0.000 A 
ATOM     18  C   UNL     1       7.626   4.832  13.291  0.00  0.00    +0.000 A 
ATOM     19  C   UNL     1       7.267   5.407  14.512  0.00  0.00    +0.000 A 
BRANCH  17  20
ATOM     20  O   UNL     1       7.132   3.433  11.460  0.00  0.00    +0.000 OA
ATOM     21  H   UNL     1       6.412   3.572  10.822  0.00  0.00    +0.000 HD
ENDBRANCH  17  20
ENDBRANCH  13  14
ENDBRANCH   1  13
TORSDOF 3
ENDMDL
MODEL 7
REMARK VINA RESULT:      -8.0      1.798      6.221
REMARK  Name = 
REMARK  3 active torsions:
REMARK  status: ('A' for Active; 'I' for Inactive)
REMARK    1  A    between atoms: C_2  and  C_3
REMARK    2  A    between atoms: C_2  and  C_10
REMARK    3  A    between atoms: C_6  and  O_7
REMARK                            x       y       z     vdW  Elec       q    Type
REMARK                         _______ _______ _______ _____ _____    ______ ____
ROOT
ATOM      1  C   UNL     1       4.960   5.129  17.476  0.00  0.00    +0.000 A 
ATOM      2  C   UNL     1       3.623   5.146  17.620  0.00  0.00    +0.000 A 
ATOM      3  C   UNL     1       2.969   4.316  18.615  0.00  0.00    +0.000 A 
ATOM      4  C   UNL     1       1.579   4.189  18.677  0.00  0.00    +0.000 A 
ATOM      5  C   UNL     1       0.998   3.334  19.616  0.00  0.00    +0.000 A 
ATOM      6  C   UNL     1       1.802   2.606  20.497  0.00  0.00    +0.000 A 
ATOM      7  C   UNL     1       3.190   2.729  20.439  0.00  0.00    +0.000 A 
ATOM      8  C   UNL     1       3.754   3.583  19.495  0.00  0.00    +0.000 A 
ATOM      9  O   UNL     1       5.154   3.670  19.440  0.00  0.00    +0.000 OA
ATOM     10  C   UNL     1       5.816   4.413  18.459  0.00  0.00    +0.000 A 
ATOM     11  O   UNL     1       7.040   4.429  18.424  0.00  0.00    +0.000 OA
ENDROOT
BRANCH   1  13
ATOM     12  O   UNL     1       5.774   7.099  16.427  0.00  0.00    +0.000 OA
ATOM     13  C   UNL     1       5.576   5.892  16.347  0.00  0.00    +0.000 C 
BRANCH  13  14
ATOM     14  C   UNL     1       5.925   5.184  15.073  0.00  0.00    +0.000 A 
ATOM     15  C   UNL     1       7.170   5.313  14.438  0.00  0.00    +0.000 A 
ATOM     16  C   UNL     1       7.486   4.533  13.321  0.00  0.00    +0.000 A 
ATOM     17  C   UNL     1       6.532   3.662  12.807  0.00  0.00    +0.000 A 
ATOM     18  C   UNL     1       5.269   3.571  13.379  0.00  0.00    +0.000 A 
ATOM     19  C   UNL     1       4.964   4.332  14.510  0.00  0.00    +0.000 A 
BRANCH  17  20
ATOM     20  O   UNL     1       6.799   2.874  11.729  0.00  0.00    +0.000 OA
ATOM     21  H   UNL     1       6.451   1.982  11.894  0.00  0.00    +0.000 HD
ENDBRANCH  17  20
ENDBRANCH  13  14
ENDBRANCH   1  13
TORSDOF 3
ENDMDL
MODEL 8
REMARK VINA RESULT:      -7.9      4.021      7.262
REMARK  Name = 
REMARK  3 active torsions:
REMARK  status: ('A' for Active; 'I' for Inactive)
REMARK    1  A    between atoms: C_2  and  C_3
REMARK    2  A    between atoms: C_2  and  C_10
REMARK    3  A    between atoms: C_6  and  O_7
REMARK                            x       y       z     vdW  Elec       q    Type
REMARK                         _______ _______ _______ _____ _____    ______ ____
ROOT
ATOM      1  C   UNL     1       2.320   6.449  18.837  0.00  0.00    +0.000 A 
ATOM      2  C   UNL     1       2.303   7.642  18.218  0.00  0.00    +0.000 A 
ATOM      3  C   UNL     1       1.727   8.809  18.860  0.00  0.00    +0.000 A 
ATOM      4  C   UNL     1       1.549  10.016  18.181  0.00  0.00    +0.000 A 
ATOM      5  C   UNL     1       0.937  11.095  18.826  0.00  0.00    +0.000 A 
ATOM      6  C   UNL     1       0.507  10.972  20.149  0.00  0.00    +0.000 A 
ATOM      7  C   UNL     1       0.683   9.768  20.831  0.00  0.00    +0.000 A 
ATOM      8  C   UNL     1       1.290   8.702  20.174  0.00  0.00    +0.000 A 
ATOM      9  O   UNL     1       1.434   7.493  20.874  0.00  0.00    +0.000 OA
ATOM     10  C   UNL     1       1.930   6.336  20.268  0.00  0.00    +0.000 A 
ATOM     11  O   UNL     1       2.000   5.293  20.905  0.00  0.00    +0.000 OA
ENDROOT
BRANCH   1  13
ATOM     12  O   UNL     1       2.010   4.396  17.682  0.00  0.00    +0.000 OA
ATOM     13  C   UNL     1       2.795   5.248  18.083  0.00  0.00    +0.000 C 
BRANCH  13  14
ATOM     14  C   UNL     1       4.261   5.052  17.843  0.00  0.00    +0.000 A 
ATOM     15  C   UNL     1       5.244   5.364  18.794  0.00  0.00    +0.000 A 
ATOM     16  C   UNL     1       6.586   5.044  18.565  0.00  0.00    +0.000 A 
ATOM     17  C   UNL     1       6.950   4.459  17.357  0.00  0.00    +0.000 A 
ATOM     18  C   UNL     1       6.001   4.205  16.375  0.00  0.00    +0.000 A 
ATOM     19  C   UNL     1       4.658   4.502  16.615  0.00  0.00    +0.000 A 
BRANCH  17  20
ATOM     20  O   UNL     1       8.243   4.119  17.096  0.00  0.00    +0.000 OA
ATOM     21  H   UNL     1       8.814   4.480  17.793  0.00  0.00    +0.000 HD
ENDBRANCH  17  20
ENDBRANCH  13  14
ENDBRANCH   1  13
TORSDOF 3
ENDMDL
MODEL 9
REMARK VINA RESULT:      -7.9      3.867      7.138
REMARK  Name = 
REMARK  3 active torsions:
REMARK  status: ('A' for Active; 'I' for Inactive)
REMARK    1  A    between atoms: C_2  and  C_3
REMARK    2  A    between atoms: C_2  and  C_10
REMARK    3  A    between atoms: C_6  and  O_7
REMARK                            x       y       z     vdW  Elec       q    Type
REMARK                         _______ _______ _______ _____ _____    ______ ____
ROOT
ATOM      1  C   UNL     1       2.259   6.245  18.751  0.00  0.00    +0.000 A 
ATOM      2  C   UNL     1       2.291   7.434  18.124  0.00  0.00    +0.000 A 
ATOM      3  C   UNL     1       1.817   8.638  18.783  0.00  0.00    +0.000 A 
ATOM      4  C   UNL     1       1.685   9.851  18.104  0.00  0.00    +0.000 A 
ATOM      5  C   UNL     1       1.171  10.969  18.766  0.00  0.00    +0.000 A 
ATOM      6  C   UNL     1       0.790  10.878  20.107  0.00  0.00    +0.000 A 
ATOM      7  C   UNL     1       0.920   9.669  20.789  0.00  0.00    +0.000 A 
ATOM      8  C   UNL     1       1.431   8.564  20.114  0.00  0.00    +0.000 A 
ATOM      9  O   UNL     1       1.529   7.351  20.816  0.00  0.00    +0.000 OA
ATOM     10  C   UNL     1       1.925   6.163  20.197  0.00  0.00    +0.000 A 
ATOM     11  O   UNL     1       1.957   5.120  20.838  0.00  0.00    +0.000 OA
ENDROOT
BRANCH   1  13
ATOM     12  O   UNL     1       1.770   4.228  17.594  0.00  0.00    +0.000 OA
ATOM     13  C   UNL     1       2.626   5.014  17.985  0.00  0.00    +0.000 C 
BRANCH  13  14
ATOM     14  C   UNL     1       4.068   4.703  17.721  0.00  0.00    +0.000 A 
ATOM     15  C   UNL     1       4.534   4.202  16.495  0.00  0.00    +0.000 A 
ATOM     16  C   UNL     1       5.904   4.049  16.262  0.00  0.00    +0.000 A 
ATOM     17  C   UNL     1       6.806   4.348  17.277  0.00  0.00    +0.000 A 
ATOM     18  C   UNL     1       6.360   4.780  18.521  0.00  0.00    +0.000 A 
ATOM     19  C   UNL     1       4.993   4.955  18.744  0.00  0.00    +0.000 A 
BRANCH  17  20
ATOM     20  O   UNL     1       8.150   4.227  17.091  0.00  0.00    +0.000 OA
ATOM     21  H   UNL     1       8.605   4.908  17.611  0.00  0.00    +0.000 HD
ENDBRANCH  17  20
ENDBRANCH  13  14
ENDBRANCH   1  13
TORSDOF 3
ENDMDL
