MODEL 1
REMARK VINA RESULT:      -8.5      0.000      0.000
REMARK  Name = 
REMARK  15 active torsions:
REMARK  status: ('A' for Active; 'I' for Inactive)
REMARK    1  A    between atoms: C_1  and  C_2
REMARK    2  A    between atoms: C_2  and  O_3
REMARK    3  A    between atoms: O_3  and  C_4
REMARK    4  A    between atoms: C_4  and  C_6
REMARK    5  A    between atoms: C_7  and  C_8
REMARK    6  A    between atoms: C_10  and  C_11
REMARK    7  A    between atoms: C_13  and  O_14
REMARK    8  A    between atoms: C_13  and  O_15
REMARK    9  A    between atoms: O_15  and  C_16
REMARK   10  A    between atoms: C_16  and  C_17
REMARK   11  A    between atoms: C_18  and  C_19
REMARK   12  A    between atoms: C_19  and  O_21
REMARK   13  A    between atoms: O_21  and  C_22
REMARK   14  A    between atoms: C_22  and  C_23
REMARK   15  A    between atoms: C_23  and  C_25
REMARK                            x       y       z     vdW  Elec       q    Type
REMARK                         _______ _______ _______ _____ _____    ______ ____
ROOT
ATOM      1  C   UNL     1       5.423   5.506  17.459  0.00  0.00    +0.000 C 
ATOM      2  C   UNL     1       6.245   4.696  18.150  0.00  0.00    +0.000 C 
ATOM      3  C   UNL     1       7.752   4.804  18.199  0.00  0.00    +0.000 C 
ATOM      4  N   UNL     1       5.782   3.655  18.922  0.00  0.00    +0.000 NA
ATOM      5  C   UNL     1       4.523   3.339  18.938  0.00  0.00    +0.000 C 
ATOM      6  C   UNL     1       4.191   2.091  19.739  0.00  0.00    +0.000 C 
ATOM      7  C   UNL     1       3.447   4.085  18.191  0.00  0.00    +0.000 C 
ATOM      8  C   UNL     1       2.168   3.652  18.103  0.00  0.00    +0.000 C 
ATOM      9  C   UNL     1       3.931   5.359  17.536  0.00  0.00    +0.000 C 
ENDROOT
BRANCH   1  10
ATOM     10  C   UNL     1       5.958   6.567  16.552  0.00  0.00    +0.000 C 
ATOM     11  O   UNL     1       6.506   7.584  16.898  0.00  0.00    +0.000 OA
BRANCH  10  12
ATOM     12  O   UNL     1       5.698   6.228  15.260  0.00  0.00    +0.000 OA
BRANCH  12  14
ATOM     13  C   UNL     1       5.818   4.083  14.221  0.00  0.00    +0.000 C 
ATOM     14  C   UNL     1       6.616   5.286  14.685  0.00  0.00    +0.000 C 
ENDBRANCH  12  14
ENDBRANCH  10  12
ENDBRANCH   1  10
BRANCH   8  15
ATOM     15  O   UNL     1       1.250   4.260  17.273  0.00  0.00    +0.000 OA
ATOM     16  H   UNL     1       0.498   3.659  17.116  0.00  0.00    +0.000 HD
ENDBRANCH   8  15
BRANCH   9  17
ATOM     17  C   UNL     1       3.371   6.521  18.370  0.00  0.00    +0.000 C 
ATOM     18  O   UNL     1       3.253   6.553  19.588  0.00  0.00    +0.000 OA
BRANCH  17  19
ATOM     19  O   UNL     1       2.995   7.541  17.538  0.00  0.00    +0.000 OA
BRANCH  19  20
ATOM     20  C   UNL     1       1.672   8.023  17.764  0.00  0.00    +0.000 C 
BRANCH  20  21
ATOM     21  C   UNL     1       1.704   9.461  18.254  0.00  0.00    +0.000 C 
ATOM     22  O   UNL     1       2.222  10.365  17.594  0.00  0.00    +0.000 OA
BRANCH  21  23
ATOM     23  C   UNL     1       1.056   9.758  19.557  0.00  0.00    +0.000 A 
ATOM     24  C   UNL     1       1.055   8.782  20.559  0.00  0.00    +0.000 A 
ATOM     25  C   UNL     1       0.465   9.052  21.796  0.00  0.00    +0.000 A 
ATOM     26  C   UNL     1      -0.131  10.292  22.024  0.00  0.00    +0.000 A 
ATOM     27  C   UNL     1      -0.121  11.268  21.028  0.00  0.00    +0.000 A 
ATOM     28  C   UNL     1       0.455  11.000  19.791  0.00  0.00    +0.000 A 
ATOM     29  O   UNL     1      -0.677  12.511  21.179  0.00  0.00    +0.000 OA
ATOM     30  C   UNL     1      -0.931  12.805  22.557  0.00  0.00    +0.000 C 
ATOM     31  C   UNL     1      -1.582  11.619  23.250  0.00  0.00    +0.000 C 
ATOM     32  O   UNL     1      -0.707  10.484  23.254  0.00  0.00    +0.000 OA
ENDBRANCH  21  23
ENDBRANCH  20  21
ENDBRANCH  19  20
ENDBRANCH  17  19
ENDBRANCH   9  17
BRANCH   8  33
ATOM     33  O   UNL     1       1.744   2.540  18.792  0.00  0.00    +0.000 OA
BRANCH  33  34
ATOM     34  C   UNL     1       0.646   2.761  19.679  0.00  0.00    +0.000 C 
ATOM     35  C   UNL     1       1.130   3.707  20.766  0.00  0.00    +0.000 C 
ENDBRANCH  33  34
ENDBRANCH   8  33
TORSDOF 11
ENDMDL
MODEL 2
REMARK VINA RESULT:      -8.1      2.012      2.435
REMARK  Name = 
REMARK  15 active torsions:
REMARK  status: ('A' for Active; 'I' for Inactive)
REMARK    1  A    between atoms: C_1  and  C_2
REMARK    2  A    between atoms: C_2  and  O_3
REMARK    3  A    between atoms: O_3  and  C_4
REMARK    4  A    between atoms: C_4  and  C_6
REMARK    5  A    between atoms: C_7  and  C_8
REMARK    6  A    between atoms: C_10  and  C_11
REMARK    7  A    between atoms: C_13  and  O_14
REMARK    8  A    between atoms: C_13  and  O_15
REMARK    9  A    between atoms: O_15  and  C_16
REMARK   10  A    between atoms: C_16  and  C_17
REMARK   11  A    between atoms: C_18  and  C_19
REMARK   12  A    between atoms: C_19  and  O_21
REMARK   13  A    between atoms: O_21  and  C_22
REMARK   14  A    between atoms: C_22  and  C_23
REMARK   15  A    between atoms: C_23  and  C_25
REMARK                            x       y       z     vdW  Elec       q    Type
REMARK                         _______ _______ _______ _____ _____    ______ ____
ROOT
ATOM      1  C   UNL     1       5.398   5.589  17.515  0.00  0.00    +0.000 C 
ATOM      2  C   UNL     1       6.215   4.821  18.257  0.00  0.00    +0.000 C 
ATOM      3  C   UNL     1       7.717   4.965  18.349  0.00  0.00    +0.000 C 
ATOM      4  N   UNL     1       5.751   3.794  19.047  0.00  0.00    +0.000 NA
ATOM      5  C   UNL     1       4.499   3.450  19.033  0.00  0.00    +0.000 C 
ATOM      6  C   UNL     1       4.169   2.220  19.863  0.00  0.00    +0.000 C 
ATOM      7  C   UNL     1       3.431   4.147  18.230  0.00  0.00    +0.000 C 
ATOM      8  C   UNL     1       2.166   3.682  18.116  0.00  0.00    +0.000 C 
ATOM      9  C   UNL     1       3.908   5.411  17.549  0.00  0.00    +0.000 C 
ENDROOT
BRANCH   1  10
ATOM     10  C   UNL     1       5.939   6.633  16.591  0.00  0.00    +0.000 C 
ATOM     11  O   UNL     1       6.489   7.654  16.921  0.00  0.00    +0.000 OA
BRANCH  10  12
ATOM     12  O   UNL     1       5.681   6.273  15.304  0.00  0.00    +0.000 OA
BRANCH  12  14
ATOM     13  C   UNL     1       5.712   4.145  14.225  0.00  0.00    +0.000 C 
ATOM     14  C   UNL     1       6.563   5.278  14.765  0.00  0.00    +0.000 C 
ENDBRANCH  12  14
ENDBRANCH  10  12
ENDBRANCH   1  10
BRANCH   8  15
ATOM     15  O   UNL     1       1.262   4.242  17.239  0.00  0.00    +0.000 OA
ATOM     16  H   UNL     1       0.393   3.811  17.340  0.00  0.00    +0.000 HD
ENDBRANCH   8  15
BRANCH   9  17
ATOM     17  C   UNL     1       3.296   6.585  18.328  0.00  0.00    +0.000 C 
ATOM     18  O   UNL     1       3.474   6.847  19.510  0.00  0.00    +0.000 OA
BRANCH  17  19
ATOM     19  O   UNL     1       2.486   7.311  17.497  0.00  0.00    +0.000 OA
BRANCH  19  20
ATOM     20  C   UNL     1       1.336   7.863  18.135  0.00  0.00    +0.000 C 
BRANCH  20  21
ATOM     21  C   UNL     1       1.316   9.374  17.985  0.00  0.00    +0.000 C 
ATOM     22  O   UNL     1       2.308  10.009  17.617  0.00  0.00    +0.000 OA
BRANCH  21  23
ATOM     23  C   UNL     1       0.037  10.075  18.267  0.00  0.00    +0.000 A 
ATOM     24  C   UNL     1      -0.048  10.923  19.377  0.00  0.00    +0.000 A 
ATOM     25  C   UNL     1      -1.238  11.604  19.645  0.00  0.00    +0.000 A 
ATOM     26  C   UNL     1      -2.341  11.427  18.812  0.00  0.00    +0.000 A 
ATOM     27  C   UNL     1      -2.252  10.590  17.700  0.00  0.00    +0.000 A 
ATOM     28  C   UNL     1      -1.074   9.902  17.434  0.00  0.00    +0.000 A 
ATOM     29  O   UNL     1      -3.289  10.373  16.830  0.00  0.00    +0.000 OA
ATOM     30  C   UNL     1      -4.315  11.359  16.984  0.00  0.00    +0.000 C 
ATOM     31  C   UNL     1      -4.626  11.589  18.455  0.00  0.00    +0.000 C 
ATOM     32  O   UNL     1      -3.482  12.112  19.143  0.00  0.00    +0.000 OA
ENDBRANCH  21  23
ENDBRANCH  20  21
ENDBRANCH  19  20
ENDBRANCH  17  19
ENDBRANCH   9  17
BRANCH   8  33
ATOM     33  O   UNL     1       1.745   2.583  18.826  0.00  0.00    +0.000 OA
BRANCH  33  34
ATOM     34  C   UNL     1       0.637   2.815  19.699  0.00  0.00    +0.000 C 
ATOM     35  C   UNL     1       0.994   4.006  20.573  0.00  0.00    +0.000 C 
ENDBRANCH  33  34
ENDBRANCH   8  33
TORSDOF 11
ENDMDL
MODEL 3
REMARK VINA RESULT:      -8.0      0.842      1.338
REMARK  Name = 
REMARK  15 active torsions:
REMARK  status: ('A' for Active; 'I' for Inactive)
REMARK    1  A    between atoms: C_1  and  C_2
REMARK    2  A    between atoms: C_2  and  O_3
REMARK    3  A    between atoms: O_3  and  C_4
REMARK    4  A    between atoms: C_4  and  C_6
REMARK    5  A    between atoms: C_7  and  C_8
REMARK    6  A    between atoms: C_10  and  C_11
REMARK    7  A    between atoms: C_13  and  O_14
REMARK    8  A    between atoms: C_13  and  O_15
REMARK    9  A    between atoms: O_15  and  C_16
REMARK   10  A    between atoms: C_16  and  C_17
REMARK   11  A    between atoms: C_18  and  C_19
REMARK   12  A    between atoms: C_19  and  O_21
REMARK   13  A    between atoms: O_21  and  C_22
REMARK   14  A    between atoms: C_22  and  C_23
REMARK   15  A    between atoms: C_23  and  C_25
REMARK                            x       y       z     vdW  Elec       q    Type
REMARK                         _______ _______ _______ _____ _____    ______ ____
ROOT
ATOM      1  C   UNL     1       5.318   5.624  17.474  0.00  0.00    +0.000 C 
ATOM      2  C   UNL     1       6.151   4.844  18.186  0.00  0.00    +0.000 C 
ATOM      3  C   UNL     1       7.654   4.991  18.253  0.00  0.00    +0.000 C 
ATOM      4  N   UNL     1       5.704   3.802  18.966  0.00  0.00    +0.000 NA
ATOM      5  C   UNL     1       4.453   3.454  18.970  0.00  0.00    +0.000 C 
ATOM      6  C   UNL     1       4.142   2.209  19.783  0.00  0.00    +0.000 C 
ATOM      7  C   UNL     1       3.368   4.163  18.200  0.00  0.00    +0.000 C 
ATOM      8  C   UNL     1       2.102   3.697  18.101  0.00  0.00    +0.000 C 
ATOM      9  C   UNL     1       3.829   5.441  17.534  0.00  0.00    +0.000 C 
ENDROOT
BRANCH   1  10
ATOM     10  C   UNL     1       5.838   6.687  16.560  0.00  0.00    +0.000 C 
ATOM     11  O   UNL     1       6.528   7.621  16.882  0.00  0.00    +0.000 OA
BRANCH  10  12
ATOM     12  O   UNL     1       5.379   6.460  15.299  0.00  0.00    +0.000 OA
BRANCH  12  14
ATOM     13  C   UNL     1       7.134   5.150  14.352  0.00  0.00    +0.000 C 
ATOM     14  C   UNL     1       5.677   5.159  14.771  0.00  0.00    +0.000 C 
ENDBRANCH  12  14
ENDBRANCH  10  12
ENDBRANCH   1  10
BRANCH   8  15
ATOM     15  O   UNL     1       1.180   4.271  17.252  0.00  0.00    +0.000 OA
ATOM     16  H   UNL     1       0.404   3.688  17.164  0.00  0.00    +0.000 HD
ENDBRANCH   8  15
BRANCH   9  17
ATOM     17  C   UNL     1       3.229   6.599  18.346  0.00  0.00    +0.000 C 
ATOM     18  O   UNL     1       3.216   6.704  19.565  0.00  0.00    +0.000 OA
BRANCH  17  19
ATOM     19  O   UNL     1       2.679   7.518  17.493  0.00  0.00    +0.000 OA
BRANCH  19  20
ATOM     20  C   UNL     1       1.462   8.096  17.961  0.00  0.00    +0.000 C 
BRANCH  20  21
ATOM     21  C   UNL     1       1.596   9.605  18.071  0.00  0.00    +0.000 C 
ATOM     22  O   UNL     1       2.522  10.220  17.536  0.00  0.00    +0.000 OA
BRANCH  21  23
ATOM     23  C   UNL     1       0.546  10.334  18.827  0.00  0.00    +0.000 A 
ATOM     24  C   UNL     1      -0.698  10.559  18.227  0.00  0.00    +0.000 A 
ATOM     25  C   UNL     1      -1.702  11.228  18.931  0.00  0.00    +0.000 A 
ATOM     26  C   UNL     1      -1.457  11.679  20.227  0.00  0.00    +0.000 A 
ATOM     27  C   UNL     1      -0.220  11.445  20.828  0.00  0.00    +0.000 A 
ATOM     28  C   UNL     1       0.787  10.790  20.128  0.00  0.00    +0.000 A 
ATOM     29  O   UNL     1       0.092  11.849  22.101  0.00  0.00    +0.000 OA
ATOM     30  C   UNL     1      -1.081  12.197  22.841  0.00  0.00    +0.000 C 
ATOM     31  C   UNL     1      -2.012  13.061  22.004  0.00  0.00    +0.000 C 
ATOM     32  O   UNL     1      -2.480  12.343  20.855  0.00  0.00    +0.000 OA
ENDBRANCH  21  23
ENDBRANCH  20  21
ENDBRANCH  19  20
ENDBRANCH  17  19
ENDBRANCH   9  17
BRANCH   8  33
ATOM     33  O   UNL     1       1.698   2.584  18.799  0.00  0.00    +0.000 OA
BRANCH  33  34
ATOM     34  C   UNL     1       0.558   2.778  19.639  0.00  0.00    +0.000 C 
ATOM     35  C   UNL     1       0.965   3.754  20.731  0.00  0.00    +0.000 C 
ENDBRANCH  33  34
ENDBRANCH   8  33
TORSDOF 11
ENDMDL
MODEL 4
REMARK VINA RESULT:      -7.7      0.984      1.894
REMARK  Name = 
REMARK  15 active torsions:
REMARK  status: ('A' for Active; 'I' for Inactive)
REMARK    1  A    between atoms: C_1  and  C_2
REMARK    2  A    between atoms: C_2  and  O_3
REMARK    3  A    between atoms: O_3  and  C_4
REMARK    4  A    between atoms: C_4  and  C_6
REMARK    5  A    between atoms: C_7  and  C_8
REMARK    6  A    between atoms: C_10  and  C_11
REMARK    7  A    between atoms: C_13  and  O_14
REMARK    8  A    between atoms: C_13  and  O_15
REMARK    9  A    between atoms: O_15  and  C_16
REMARK   10  A    between atoms: C_16  and  C_17
REMARK   11  A    between atoms: C_18  and  C_19
REMARK   12  A    between atoms: C_19  and  O_21
REMARK   13  A    between atoms: O_21  and  C_22
REMARK   14  A    between atoms: C_22  and  C_23
REMARK   15  A    between atoms: C_23  and  C_25
REMARK                            x       y       z     vdW  Elec       q    Type
REMARK                         _______ _______ _______ _____ _____    ______ ____
ROOT
ATOM      1  C   UNL     1       5.366   5.495  17.416  0.00  0.00    +0.000 C 
ATOM      2  C   UNL     1       6.201   4.695  18.103  0.00  0.00    +0.000 C 
ATOM      3  C   UNL     1       7.711   4.767  18.075  0.00  0.00    +0.000 C 
ATOM      4  N   UNL     1       5.752   3.702  18.943  0.00  0.00    +0.000 NA
ATOM      5  C   UNL     1       4.488   3.419  19.033  0.00  0.00    +0.000 C 
ATOM      6  C   UNL     1       4.166   2.217  19.905  0.00  0.00    +0.000 C 
ATOM      7  C   UNL     1       3.394   4.159  18.306  0.00  0.00    +0.000 C 
ATOM      8  C   UNL     1       2.103   3.756  18.299  0.00  0.00    +0.000 C 
ATOM      9  C   UNL     1       3.876   5.390  17.571  0.00  0.00    +0.000 C 
ENDROOT
BRANCH   1  10
ATOM     10  C   UNL     1       5.880   6.501  16.437  0.00  0.00    +0.000 C 
ATOM     11  O   UNL     1       5.984   6.341  15.247  0.00  0.00    +0.000 OA
BRANCH  10  12
ATOM     12  O   UNL     1       6.256   7.627  17.104  0.00  0.00    +0.000 OA
BRANCH  12  14
ATOM     13  C   UNL     1       7.937   9.154  17.835  0.00  0.00    +0.000 C 
ATOM     14  C   UNL     1       7.664   7.743  17.351  0.00  0.00    +0.000 C 
ENDBRANCH  12  14
ENDBRANCH  10  12
ENDBRANCH   1  10
BRANCH   8  15
ATOM     15  O   UNL     1       1.160   4.350  17.488  0.00  0.00    +0.000 OA
ATOM     16  H   UNL     1       1.160   3.920  16.612  0.00  0.00    +0.000 HD
ENDBRANCH   8  15
BRANCH   9  17
ATOM     17  C   UNL     1       3.385   6.602  18.378  0.00  0.00    +0.000 C 
ATOM     18  O   UNL     1       3.307   6.683  19.597  0.00  0.00    +0.000 OA
BRANCH  17  19
ATOM     19  O   UNL     1       3.019   7.604  17.520  0.00  0.00    +0.000 OA
BRANCH  19  20
ATOM     20  C   UNL     1       1.722   8.141  17.767  0.00  0.00    +0.000 C 
BRANCH  20  21
ATOM     21  C   UNL     1       1.804   9.635  18.027  0.00  0.00    +0.000 C 
ATOM     22  O   UNL     1       2.631  10.354  17.461  0.00  0.00    +0.000 OA
BRANCH  21  23
ATOM     23  C   UNL     1       0.822  10.223  18.974  0.00  0.00    +0.000 A 
ATOM     24  C   UNL     1      -0.234  10.995  18.475  0.00  0.00    +0.000 A 
ATOM     25  C   UNL     1      -1.176  11.539  19.351  0.00  0.00    +0.000 A 
ATOM     26  C   UNL     1      -1.055  11.320  20.722  0.00  0.00    +0.000 A 
ATOM     27  C   UNL     1      -0.009  10.542  21.218  0.00  0.00    +0.000 A 
ATOM     28  C   UNL     1       0.938  10.007  20.352  0.00  0.00    +0.000 A 
ATOM     29  O   UNL     1       0.171  10.274  22.550  0.00  0.00    +0.000 OA
ATOM     30  C   UNL     1      -1.008  10.569  23.306  0.00  0.00    +0.000 C 
ATOM     31  C   UNL     1      -1.588  11.914  22.898  0.00  0.00    +0.000 C 
ATOM     32  O   UNL     1      -2.004  11.898  21.527  0.00  0.00    +0.000 OA
ENDBRANCH  21  23
ENDBRANCH  20  21
ENDBRANCH  19  20
ENDBRANCH  17  19
ENDBRANCH   9  17
BRANCH   8  33
ATOM     33  O   UNL     1       1.688   2.687  19.057  0.00  0.00    +0.000 OA
BRANCH  33  34
ATOM     34  C   UNL     1       0.673   2.984  20.018  0.00  0.00    +0.000 C 
ATOM     35  C   UNL     1       1.284   2.782  21.395  0.00  0.00    +0.000 C 
ENDBRANCH  33  34
ENDBRANCH   8  33
TORSDOF 11
ENDMDL
MODEL 5
REMARK VINA RESULT:      -7.5      2.147      8.112
REMARK  Name = 
REMARK  15 active torsions:
REMARK  status: ('A' for Active; 'I' for Inactive)
REMARK    1  A    between atoms: C_1  and  C_2
REMARK    2  A    between atoms: C_2  and  O_3
REMARK    3  A    between atoms: O_3  and  C_4
REMARK    4  A    between atoms: C_4  and  C_6
REMARK    5  A    between atoms: C_7  and  C_8
REMARK    6  A    between atoms: C_10  and  C_11
REMARK    7  A    between atoms: C_13  and  O_14
REMARK    8  A    between atoms: C_13  and  O_15
REMARK    9  A    between atoms: O_15  and  C_16
REMARK   10  A    between atoms: C_16  and  C_17
REMARK   11  A    between atoms: C_18  and  C_19
REMARK   12  A    between atoms: C_19  and  O_21
REMARK   13  A    between atoms: O_21  and  C_22
REMARK   14  A    between atoms: C_22  and  C_23
REMARK   15  A    between atoms: C_23  and  C_25
REMARK                            x       y       z     vdW  Elec       q    Type
REMARK                         _______ _______ _______ _____ _____    ______ ____
ROOT
ATOM      1  C   UNL     1       2.025   5.317  18.815  0.00  0.00    +0.000 C 
ATOM      2  C   UNL     1       1.831   5.191  20.140  0.00  0.00    +0.000 C 
ATOM      3  C   UNL     1       1.680   3.885  20.887  0.00  0.00    +0.000 C 
ATOM      4  N   UNL     1       1.759   6.275  20.985  0.00  0.00    +0.000 NA
ATOM      5  C   UNL     1       1.774   7.488  20.524  0.00  0.00    +0.000 C 
ATOM      6  C   UNL     1       1.561   8.569  21.570  0.00  0.00    +0.000 C 
ATOM      7  C   UNL     1       1.929   7.845  19.067  0.00  0.00    +0.000 C 
ATOM      8  C   UNL     1       1.793   9.105  18.593  0.00  0.00    +0.000 C 
ATOM      9  C   UNL     1       2.238   6.661  18.179  0.00  0.00    +0.000 C 
ENDROOT
BRANCH   1  10
ATOM     10  C   UNL     1       2.001   4.129  17.908  0.00  0.00    +0.000 C 
ATOM     11  O   UNL     1       1.156   3.886  17.083  0.00  0.00    +0.000 OA
BRANCH  10  12
ATOM     12  O   UNL     1       3.069   3.332  18.182  0.00  0.00    +0.000 OA
BRANCH  12  14
ATOM     13  C   UNL     1       3.892   1.184  18.818  0.00  0.00    +0.000 C 
ATOM     14  C   UNL     1       2.830   1.925  18.029  0.00  0.00    +0.000 C 
ENDBRANCH  12  14
ENDBRANCH  10  12
ENDBRANCH   1  10
BRANCH   8  15
ATOM     15  O   UNL     1       1.768   9.375  17.241  0.00  0.00    +0.000 OA
ATOM     16  H   UNL     1       0.876   9.669  16.980  0.00  0.00    +0.000 HD
ENDBRANCH   8  15
BRANCH   9  17
ATOM     17  C   UNL     1       3.717   6.783  17.785  0.00  0.00    +0.000 C 
ATOM     18  O   UNL     1       4.168   7.394  16.825  0.00  0.00    +0.000 OA
BRANCH  17  19
ATOM     19  O   UNL     1       4.486   6.078  18.672  0.00  0.00    +0.000 OA
BRANCH  19  20
ATOM     20  C   UNL     1       5.876   6.395  18.623  0.00  0.00    +0.000 C 
BRANCH  20  21
ATOM     21  C   UNL     1       6.679   5.198  18.144  0.00  0.00    +0.000 C 
ATOM     22  O   UNL     1       7.408   4.554  18.903  0.00  0.00    +0.000 OA
BRANCH  21  23
ATOM     23  C   UNL     1       6.535   4.799  16.721  0.00  0.00    +0.000 A 
ATOM     24  C   UNL     1       5.529   3.895  16.361  0.00  0.00    +0.000 A 
ATOM     25  C   UNL     1       5.369   3.524  15.024  0.00  0.00    +0.000 A 
ATOM     26  C   UNL     1       6.222   4.047  14.053  0.00  0.00    +0.000 A 
ATOM     27  C   UNL     1       7.218   4.956  14.410  0.00  0.00    +0.000 A 
ATOM     28  C   UNL     1       7.388   5.321  15.741  0.00  0.00    +0.000 A 
ATOM     29  O   UNL     1       8.087   5.520  13.513  0.00  0.00    +0.000 OA
ATOM     30  C   UNL     1       7.627   5.355  12.167  0.00  0.00    +0.000 C 
ATOM     31  C   UNL     1       7.147   3.932  11.931  0.00  0.00    +0.000 C 
ATOM     32  O   UNL     1       6.021   3.627  12.763  0.00  0.00    +0.000 OA
ENDBRANCH  21  23
ENDBRANCH  20  21
ENDBRANCH  19  20
ENDBRANCH  17  19
ENDBRANCH   9  17
BRANCH   8  33
ATOM     33  O   UNL     1       1.607  10.169  19.444  0.00  0.00    +0.000 OA
BRANCH  33  34
ATOM     34  C   UNL     1       0.596  11.095  19.042  0.00  0.00    +0.000 C 
ATOM     35  C   UNL     1      -0.748  10.438  19.311  0.00  0.00    +0.000 C 
ENDBRANCH  33  34
ENDBRANCH   8  33
TORSDOF 11
ENDMDL
MODEL 6
REMARK VINA RESULT:      -7.5      1.842      2.504
REMARK  Name = 
REMARK  15 active torsions:
REMARK  status: ('A' for Active; 'I' for Inactive)
REMARK    1  A    between atoms: C_1  and  C_2
REMARK    2  A    between atoms: C_2  and  O_3
REMARK    3  A    between atoms: O_3  and  C_4
REMARK    4  A    between atoms: C_4  and  C_6
REMARK    5  A    between atoms: C_7  and  C_8
REMARK    6  A    between atoms: C_10  and  C_11
REMARK    7  A    between atoms: C_13  and  O_14
REMARK    8  A    between atoms: C_13  and  O_15
REMARK    9  A    between atoms: O_15  and  C_16
REMARK   10  A    between atoms: C_16  and  C_17
REMARK   11  A    between atoms: C_18  and  C_19
REMARK   12  A    between atoms: C_19  and  O_21
REMARK   13  A    between atoms: O_21  and  C_22
REMARK   14  A    between atoms: C_22  and  C_23
REMARK   15  A    between atoms: C_23  and  C_25
REMARK                            x       y       z     vdW  Elec       q    Type
REMARK                         _______ _______ _______ _____ _____    ______ ____
ROOT
ATOM      1  C   UNL     1       5.248   5.717  17.572  0.00  0.00    +0.000 C 
ATOM      2  C   UNL     1       6.114   5.010  18.319  0.00  0.00    +0.000 C 
ATOM      3  C   UNL     1       7.601   5.264  18.421  0.00  0.00    +0.000 C 
ATOM      4  N   UNL     1       5.721   3.951  19.105  0.00  0.00    +0.000 NA
ATOM      5  C   UNL     1       4.499   3.516  19.084  0.00  0.00    +0.000 C 
ATOM      6  C   UNL     1       4.254   2.265  19.911  0.00  0.00    +0.000 C 
ATOM      7  C   UNL     1       3.387   4.134  18.273  0.00  0.00    +0.000 C 
ATOM      8  C   UNL     1       2.160   3.577  18.152  0.00  0.00    +0.000 C 
ATOM      9  C   UNL     1       3.774   5.430  17.597  0.00  0.00    +0.000 C 
ENDROOT
BRANCH   1  10
ATOM     10  C   UNL     1       5.716   6.799  16.652  0.00  0.00    +0.000 C 
ATOM     11  O   UNL     1       6.195   7.854  16.986  0.00  0.00    +0.000 OA
BRANCH  10  12
ATOM     12  O   UNL     1       5.484   6.426  15.363  0.00  0.00    +0.000 OA
BRANCH  12  14
ATOM     13  C   UNL     1       7.086   5.050  14.254  0.00  0.00    +0.000 C 
ATOM     14  C   UNL     1       5.803   5.060  15.061  0.00  0.00    +0.000 C 
ENDBRANCH  12  14
ENDBRANCH  10  12
ENDBRANCH   1  10
BRANCH   8  15
ATOM     15  O   UNL     1       1.223   4.071  17.269  0.00  0.00    +0.000 OA
ATOM     16  H   UNL     1       1.534   4.916  16.895  0.00  0.00    +0.000 HD
ENDBRANCH   8  15
BRANCH   9  17
ATOM     17  C   UNL     1       3.073   6.555  18.372  0.00  0.00    +0.000 C 
ATOM     18  O   UNL     1       2.981   6.655  19.588  0.00  0.00    +0.000 OA
BRANCH  17  19
ATOM     19  O   UNL     1       2.535   7.451  17.488  0.00  0.00    +0.000 OA
BRANCH  19  20
ATOM     20  C   UNL     1       2.782   8.817  17.816  0.00  0.00    +0.000 C 
BRANCH  20  21
ATOM     21  C   UNL     1       1.474   9.574  17.970  0.00  0.00    +0.000 C 
ATOM     22  O   UNL     1       0.395   9.096  17.611  0.00  0.00    +0.000 OA
BRANCH  21  23
ATOM     23  C   UNL     1       1.527  10.915  18.606  0.00  0.00    +0.000 A 
ATOM     24  C   UNL     1       0.715  11.181  19.714  0.00  0.00    +0.000 A 
ATOM     25  C   UNL     1       0.767  12.431  20.335  0.00  0.00    +0.000 A 
ATOM     26  C   UNL     1       1.620  13.416  19.839  0.00  0.00    +0.000 A 
ATOM     27  C   UNL     1       2.437  13.147  18.741  0.00  0.00    +0.000 A 
ATOM     28  C   UNL     1       2.382  11.908  18.113  0.00  0.00    +0.000 A 
ATOM     29  O   UNL     1       3.308  14.060  18.203  0.00  0.00    +0.000 OA
ATOM     30  C   UNL     1       3.538  15.152  19.098  0.00  0.00    +0.000 C 
ATOM     31  C   UNL     1       2.230  15.647  19.694  0.00  0.00    +0.000 C 
ATOM     32  O   UNL     1       1.608  14.626  20.484  0.00  0.00    +0.000 OA
ENDBRANCH  21  23
ENDBRANCH  20  21
ENDBRANCH  19  20
ENDBRANCH  17  19
ENDBRANCH   9  17
BRANCH   8  33
ATOM     33  O   UNL     1       1.817   2.450  18.859  0.00  0.00    +0.000 OA
BRANCH  33  34
ATOM     34  C   UNL     1       0.670   2.590  19.700  0.00  0.00    +0.000 C 
ATOM     35  C   UNL     1       1.030   3.587  20.789  0.00  0.00    +0.000 C 
ENDBRANCH  33  34
ENDBRANCH   8  33
TORSDOF 11
ENDMDL
MODEL 7
REMARK VINA RESULT:      -7.4      1.165      1.630
REMARK  Name = 
REMARK  15 active torsions:
REMARK  status: ('A' for Active; 'I' for Inactive)
REMARK    1  A    between atoms: C_1  and  C_2
REMARK    2  A    between atoms: C_2  and  O_3
REMARK    3  A    between atoms: O_3  and  C_4
REMARK    4  A    between atoms: C_4  and  C_6
REMARK    5  A    between atoms: C_7  and  C_8
REMARK    6  A    between atoms: C_10  and  C_11
REMARK    7  A    between atoms: C_13  and  O_14
REMARK    8  A    between atoms: C_13  and  O_15
REMARK    9  A    between atoms: O_15  and  C_16
REMARK   10  A    between atoms: C_16  and  C_17
REMARK   11  A    between atoms: C_18  and  C_19
REMARK   12  A    between atoms: C_19  and  O_21
REMARK   13  A    between atoms: O_21  and  C_22
REMARK   14  A    between atoms: C_22  and  C_23
REMARK   15  A    between atoms: C_23  and  C_25
REMARK                            x       y       z     vdW  Elec       q    Type
REMARK                         _______ _______ _______ _____ _____    ______ ____
ROOT
ATOM      1  C   UNL     1       5.931   5.552  17.577  0.00  0.00    +0.000 C 
ATOM      2  C   UNL     1       6.531   5.124  18.702  0.00  0.00    +0.000 C 
ATOM      3  C   UNL     1       7.919   5.508  19.161  0.00  0.00    +0.000 C 
ATOM      4  N   UNL     1       5.916   4.272  19.591  0.00  0.00    +0.000 NA
ATOM      5  C   UNL     1       4.755   3.754  19.331  0.00  0.00    +0.000 C 
ATOM      6  C   UNL     1       4.269   2.737  20.351  0.00  0.00    +0.000 C 
ATOM      7  C   UNL     1       3.940   4.060  18.100  0.00  0.00    +0.000 C 
ATOM      8  C   UNL     1       2.805   3.400  17.778  0.00  0.00    +0.000 C 
ATOM      9  C   UNL     1       4.517   5.169  17.248  0.00  0.00    +0.000 C 
ENDROOT
BRANCH   1  10
ATOM     10  C   UNL     1       6.658   6.398  16.582  0.00  0.00    +0.000 C 
ATOM     11  O   UNL     1       7.386   7.324  16.838  0.00  0.00    +0.000 OA
BRANCH  10  12
ATOM     12  O   UNL     1       6.341   5.986  15.324  0.00  0.00    +0.000 OA
BRANCH  12  14
ATOM     13  C   UNL     1       6.228   3.984  14.031  0.00  0.00    +0.000 C 
ATOM     14  C   UNL     1       7.138   4.904  14.822  0.00  0.00    +0.000 C 
ENDBRANCH  12  14
ENDBRANCH  10  12
ENDBRANCH   1  10
BRANCH   8  15
ATOM     15  O   UNL     1       2.177   3.581  16.564  0.00  0.00    +0.000 OA
ATOM     16  H   UNL     1       2.721   4.156  15.994  0.00  0.00    +0.000 HD
ENDBRANCH   8  15
BRANCH   9  17
ATOM     17  C   UNL     1       3.620   6.397  17.460  0.00  0.00    +0.000 C 
ATOM     18  O   UNL     1       3.467   7.331  16.684  0.00  0.00    +0.000 OA
BRANCH  17  19
ATOM     19  O   UNL     1       3.008   6.310  18.682  0.00  0.00    +0.000 OA
BRANCH  19  20
ATOM     20  C   UNL     1       2.195   7.435  19.011  0.00  0.00    +0.000 C 
BRANCH  20  21
ATOM     21  C   UNL     1       1.613   7.282  20.405  0.00  0.00    +0.000 C 
ATOM     22  O   UNL     1       1.636   6.207  21.010  0.00  0.00    +0.000 OA
BRANCH  21  23
ATOM     23  C   UNL     1       1.033   8.492  21.044  0.00  0.00    +0.000 A 
ATOM     24  C   UNL     1       0.397   8.373  22.284  0.00  0.00    +0.000 A 
ATOM     25  C   UNL     1      -0.138   9.504  22.906  0.00  0.00    +0.000 A 
ATOM     26  C   UNL     1      -0.045  10.747  22.282  0.00  0.00    +0.000 A 
ATOM     27  C   UNL     1       0.598  10.866  21.051  0.00  0.00    +0.000 A 
ATOM     28  C   UNL     1       1.122   9.743  20.422  0.00  0.00    +0.000 A 
ATOM     29  O   UNL     1       0.738  12.054  20.381  0.00  0.00    +0.000 OA
ATOM     30  C   UNL     1       0.481  13.171  21.238  0.00  0.00    +0.000 C 
ATOM     31  C   UNL     1      -0.772  12.937  22.068  0.00  0.00    +0.000 C 
ATOM     32  O   UNL     1      -0.606  11.812  22.940  0.00  0.00    +0.000 OA
ENDBRANCH  21  23
ENDBRANCH  20  21
ENDBRANCH  19  20
ENDBRANCH  17  19
ENDBRANCH   9  17
BRANCH   8  33
ATOM     33  O   UNL     1       2.261   2.465  18.626  0.00  0.00    +0.000 OA
BRANCH  33  34
ATOM     34  C   UNL     1       0.853   2.587  18.838  0.00  0.00    +0.000 C 
ATOM     35  C   UNL     1       0.658   3.316  20.157  0.00  0.00    +0.000 C 
ENDBRANCH  33  34
ENDBRANCH   8  33
TORSDOF 11
ENDMDL
MODEL 8
REMARK VINA RESULT:      -7.4      1.015      1.188
REMARK  Name = 
REMARK  15 active torsions:
REMARK  status: ('A' for Active; 'I' for Inactive)
REMARK    1  A    between atoms: C_1  and  C_2
REMARK    2  A    between atoms: C_2  and  O_3
REMARK    3  A    between atoms: O_3  and  C_4
REMARK    4  A    between atoms: C_4  and  C_6
REMARK    5  A    between atoms: C_7  and  C_8
REMARK    6  A    between atoms: C_10  and  C_11
REMARK    7  A    between atoms: C_13  and  O_14
REMARK    8  A    between atoms: C_13  and  O_15
REMARK    9  A    between atoms: O_15  and  C_16
REMARK   10  A    between atoms: C_16  and  C_17
REMARK   11  A    between atoms: C_18  and  C_19
REMARK   12  A    between atoms: C_19  and  O_21
REMARK   13  A    between atoms: O_21  and  C_22
REMARK   14  A    between atoms: C_22  and  C_23
REMARK   15  A    between atoms: C_23  and  C_25
REMARK                            x       y       z     vdW  Elec       q    Type
REMARK                         _______ _______ _______ _____ _____    ______ ____
ROOT
ATOM      1  C   UNL     1       4.984   5.048  17.186  0.00  0.00    +0.000 C 
ATOM      2  C   UNL     1       5.952   4.812  18.089  0.00  0.00    +0.000 C 
ATOM      3  C   UNL     1       7.357   5.369  18.040  0.00  0.00    +0.000 C 
ATOM      4  N   UNL     1       5.755   4.020  19.198  0.00  0.00    +0.000 NA
ATOM      5  C   UNL     1       4.643   3.374  19.371  0.00  0.00    +0.000 C 
ATOM      6  C   UNL     1       4.627   2.447  20.576  0.00  0.00    +0.000 C 
ATOM      7  C   UNL     1       3.453   3.458  18.448  0.00  0.00    +0.000 C 
ATOM      8  C   UNL     1       2.363   2.666  18.568  0.00  0.00    +0.000 C 
ATOM      9  C   UNL     1       3.596   4.504  17.365  0.00  0.00    +0.000 C 
ENDROOT
BRANCH   1  10
ATOM     10  C   UNL     1       5.254   5.831  15.942  0.00  0.00    +0.000 C 
ATOM     11  O   UNL     1       5.445   7.020  15.881  0.00  0.00    +0.000 OA
BRANCH  10  12
ATOM     12  O   UNL     1       5.215   4.996  14.867  0.00  0.00    +0.000 OA
BRANCH  12  14
ATOM     13  C   UNL     1       6.269   3.689  13.171  0.00  0.00    +0.000 C 
ATOM     14  C   UNL     1       6.498   4.641  14.329  0.00  0.00    +0.000 C 
ENDBRANCH  12  14
ENDBRANCH  10  12
ENDBRANCH   1  10
BRANCH   8  15
ATOM     15  O   UNL     1       1.371   2.645  17.611  0.00  0.00    +0.000 OA
ATOM     16  H   UNL     1       1.525   1.908  16.992  0.00  0.00    +0.000 HD
ENDBRANCH   8  15
BRANCH   9  17
ATOM     17  C   UNL     1       2.666   5.665  17.752  0.00  0.00    +0.000 C 
ATOM     18  O   UNL     1       1.495   5.801  17.421  0.00  0.00    +0.000 OA
BRANCH  17  19
ATOM     19  O   UNL     1       3.352   6.561  18.526  0.00  0.00    +0.000 OA
BRANCH  19  20
ATOM     20  C   UNL     1       2.608   7.071  19.630  0.00  0.00    +0.000 C 
BRANCH  20  21
ATOM     21  C   UNL     1       1.978   8.407  19.278  0.00  0.00    +0.000 C 
ATOM     22  O   UNL     1       2.091   8.908  18.156  0.00  0.00    +0.000 OA
BRANCH  21  23
ATOM     23  C   UNL     1       1.182   9.091  20.329  0.00  0.00    +0.000 A 
ATOM     24  C   UNL     1       1.218   8.603  21.640  0.00  0.00    +0.000 A 
ATOM     25  C   UNL     1       0.490   9.246  22.644  0.00  0.00    +0.000 A 
ATOM     26  C   UNL     1      -0.280  10.366  22.334  0.00  0.00    +0.000 A 
ATOM     27  C   UNL     1      -0.306  10.858  21.029  0.00  0.00    +0.000 A 
ATOM     28  C   UNL     1       0.408  10.216  20.024  0.00  0.00    +0.000 A 
ATOM     29  O   UNL     1      -1.030  11.958  20.649  0.00  0.00    +0.000 OA
ATOM     30  C   UNL     1      -1.443  12.729  21.781  0.00  0.00    +0.000 C 
ATOM     31  C   UNL     1      -1.994  11.828  22.875  0.00  0.00    +0.000 C 
ATOM     32  O   UNL     1      -0.983  10.937  23.363  0.00  0.00    +0.000 OA
ENDBRANCH  21  23
ENDBRANCH  20  21
ENDBRANCH  19  20
ENDBRANCH  17  19
ENDBRANCH   9  17
BRANCH   8  33
ATOM     33  O   UNL     1       2.230   1.794  19.622  0.00  0.00    +0.000 OA
BRANCH  33  34
ATOM     34  C   UNL     1       1.077   2.007  20.440  0.00  0.00    +0.000 C 
ATOM     35  C   UNL     1       1.489   2.947  21.561  0.00  0.00    +0.000 C 
ENDBRANCH  33  34
ENDBRANCH   8  33
TORSDOF 11
ENDMDL
MODEL 9
REMARK VINA RESULT:      -7.3      1.198      1.829
REMARK  Name = 
REMARK  15 active torsions:
REMARK  status: ('A' for Active; 'I' for Inactive)
REMARK    1  A    between atoms: C_1  and  C_2
REMARK    2  A    between atoms: C_2  and  O_3
REMARK    3  A    between atoms: O_3  and  C_4
REMARK    4  A    between atoms: C_4  and  C_6
REMARK    5  A    between atoms: C_7  and  C_8
REMARK    6  A    between atoms: C_10  and  C_11
REMARK    7  A    between atoms: C_13  and  O_14
REMARK    8  A    between atoms: C_13  and  O_15
REMARK    9  A    between atoms: O_15  and  C_16
REMARK   10  A    between atoms: C_16  and  C_17
REMARK   11  A    between atoms: C_18  and  C_19
REMARK   12  A    between atoms: C_19  and  O_21
REMARK   13  A    between atoms: O_21  and  C_22
REMARK   14  A    between atoms: C_22  and  C_23
REMARK   15  A    between atoms: C_23  and  C_25
REMARK                            x       y       z     vdW  Elec       q    Type
REMARK                         _______ _______ _______ _____ _____    ______ ____
ROOT
ATOM      1  C   UNL     1       4.953   4.779  17.033  0.00  0.00    +0.000 C 
ATOM      2  C   UNL     1       5.955   4.584  17.910  0.00  0.00    +0.000 C 
ATOM      3  C   UNL     1       7.371   5.091  17.756  0.00  0.00    +0.000 C 
ATOM      4  N   UNL     1       5.786   3.889  19.085  0.00  0.00    +0.000 NA
ATOM      5  C   UNL     1       4.665   3.293  19.358  0.00  0.00    +0.000 C 
ATOM      6  C   UNL     1       4.679   2.465  20.632  0.00  0.00    +0.000 C 
ATOM      7  C   UNL     1       3.438   3.342  18.483  0.00  0.00    +0.000 C 
ATOM      8  C   UNL     1       2.333   2.597  18.713  0.00  0.00    +0.000 C 
ATOM      9  C   UNL     1       3.560   4.295  17.315  0.00  0.00    +0.000 C 
ENDROOT
BRANCH   1  10
ATOM     10  C   UNL     1       5.189   5.453  15.720  0.00  0.00    +0.000 C 
ATOM     11  O   UNL     1       5.307   6.640  15.544  0.00  0.00    +0.000 OA
BRANCH  10  12
ATOM     12  O   UNL     1       5.212   4.517  14.731  0.00  0.00    +0.000 OA
BRANCH  12  14
ATOM     13  C   UNL     1       6.229   3.655  12.752  0.00  0.00    +0.000 C 
ATOM     14  C   UNL     1       6.475   4.370  14.067  0.00  0.00    +0.000 C 
ENDBRANCH  12  14
ENDBRANCH  10  12
ENDBRANCH   1  10
BRANCH   8  15
ATOM     15  O   UNL     1       1.298   2.532  17.804  0.00  0.00    +0.000 OA
ATOM     16  H   UNL     1       0.489   2.214  18.246  0.00  0.00    +0.000 HD
ENDBRANCH   8  15
BRANCH   9  17
ATOM     17  C   UNL     1       2.682   5.511  17.647  0.00  0.00    +0.000 C 
ATOM     18  O   UNL     1       1.486   5.631  17.416  0.00  0.00    +0.000 OA
BRANCH  17  19
ATOM     19  O   UNL     1       3.447   6.478  18.240  0.00  0.00    +0.000 OA
BRANCH  19  20
ATOM     20  C   UNL     1       2.781   7.727  18.414  0.00  0.00    +0.000 C 
BRANCH  20  21
ATOM     21  C   UNL     1       2.039   7.757  19.739  0.00  0.00    +0.000 C 
ATOM     22  O   UNL     1       2.104   6.826  20.546  0.00  0.00    +0.000 OA
BRANCH  21  23
ATOM     23  C   UNL     1       1.246   8.972  20.056  0.00  0.00    +0.000 A 
ATOM     24  C   UNL     1       0.855   9.824  19.017  0.00  0.00    +0.000 A 
ATOM     25  C   UNL     1       0.093  10.962  19.296  0.00  0.00    +0.000 A 
ATOM     26  C   UNL     1      -0.265  11.250  20.612  0.00  0.00    +0.000 A 
ATOM     27  C   UNL     1       0.116  10.395  21.645  0.00  0.00    +0.000 A 
ATOM     28  C   UNL     1       0.883   9.267  21.375  0.00  0.00    +0.000 A 
ATOM     29  O   UNL     1      -0.206  10.605  22.961  0.00  0.00    +0.000 OA
ATOM     30  C   UNL     1      -1.254  11.571  23.094  0.00  0.00    +0.000 C 
ATOM     31  C   UNL     1      -0.997  12.773  22.198  0.00  0.00    +0.000 C 
ATOM     32  O   UNL     1      -0.998  12.391  20.817  0.00  0.00    +0.000 OA
ENDBRANCH  21  23
ENDBRANCH  20  21
ENDBRANCH  19  20
ENDBRANCH  17  19
ENDBRANCH   9  17
BRANCH   8  33
ATOM     33  O   UNL     1       2.223   1.815  19.838  0.00  0.00    +0.000 OA
BRANCH  33  34
ATOM     34  C   UNL     1       1.144   2.158  20.710  0.00  0.00    +0.000 C 
ATOM     35  C   UNL     1       1.383   3.584  21.180  0.00  0.00    +0.000 C 
ENDBRANCH  33  34
ENDBRANCH   8  33
TORSDOF 11
ENDMDL
