MODEL 1
REMARK VINA RESULT:      -8.3      0.000      0.000
REMARK  Name = 
REMARK  5 active torsions:
REMARK  status: ('A' for Active; 'I' for Inactive)
REMARK    1  A    between atoms: C_2  and  C_12
REMARK    2  A    between atoms: N_3  and  C_4
REMARK    3  A    between atoms: C_4  and  C_5
REMARK    4  A    between atoms: C_5  and  C_6
REMARK    5  A    between atoms: N_18  and  C_19
REMARK                            x       y       z     vdW  Elec       q    Type
REMARK                         _______ _______ _______ _____ _____    ______ ____
ROOT
ATOM      1  C   UNL     1       2.055   4.107  18.519  0.00  0.00    +0.000 C 
ATOM      2  C   UNL     1       2.041   5.408  17.709  0.00  0.00    +0.000 C 
ATOM      3  C   UNL     1       2.877   6.491  18.384  0.00  0.00    +0.000 C 
ATOM      4  N   UNL     1       2.368   6.739  19.730  0.00  0.00    +0.000 N 
ATOM      5  C   UNL     1       1.746   7.961  19.961  0.00  0.00    +0.000 C 
ATOM      6  O   UNL     1       1.615   8.765  19.036  0.00  0.00    +0.000 OA
ATOM      7  N   UNL     1       1.312   8.207  21.248  0.00  0.00    +0.000 N 
ATOM      8  C   UNL     1       2.480   5.582  20.617  0.00  0.00    +0.000 C 
ATOM      9  C   UNL     1       1.786   4.351  20.016  0.00  0.00    +0.000 C 
ATOM     10  H   UNL     1       1.746   7.677  21.980  0.00  0.00    +0.000 HD
ENDROOT
BRANCH   7  11
ATOM     11  C   UNL     1       0.595   9.366  21.658  0.00  0.00    +0.000 A 
ATOM     12  C   UNL     1       0.767  10.623  21.066  0.00  0.00    +0.000 A 
ATOM     13  C   UNL     1       0.084  11.749  21.538  0.00  0.00    +0.000 A 
ATOM     14  C   UNL     1      -0.805  11.627  22.598  0.00  0.00    +0.000 A 
ATOM     15  C   UNL     1      -1.021  10.378  23.176  0.00  0.00    +0.000 A 
ATOM     16  C   UNL     1      -0.330   9.250  22.704  0.00  0.00    +0.000 A 
ENDBRANCH   7  11
BRANCH   1  18
ATOM     17  O   UNL     1       3.872   2.598  19.076  0.00  0.00    +0.000 OA
ATOM     18  C   UNL     1       3.352   3.341  18.251  0.00  0.00    +0.000 C 
ATOM     19  N   UNL     1       3.906   3.616  17.014  0.00  0.00    +0.000 N 
ATOM     20  H   UNL     1       3.432   4.264  16.397  0.00  0.00    +0.000 HD
BRANCH  19  21
ATOM     21  C   UNL     1       5.162   3.027  16.572  0.00  0.00    +0.000 C 
BRANCH  21  22
ATOM     22  C   UNL     1       6.051   4.049  15.843  0.00  0.00    +0.000 C 
BRANCH  22  23
ATOM     23  C   UNL     1       6.613   5.144  16.729  0.00  0.00    +0.000 C 
ATOM     24  C   UNL     1       6.246   6.431  16.588  0.00  0.00    +0.000 C 
ATOM     25  C   UNL     1       6.765   7.552  17.446  0.00  0.00    +0.000 C 
ATOM     26  C   UNL     1       7.993   7.160  18.268  0.00  0.00    +0.000 C 
ATOM     27  C   UNL     1       7.810   5.783  18.892  0.00  0.00    +0.000 C 
ATOM     28  C   UNL     1       7.568   4.714  17.822  0.00  0.00    +0.000 C 
ENDBRANCH  22  23
ENDBRANCH  21  22
ENDBRANCH  19  21
ENDBRANCH   1  18
TORSDOF 5
ENDMDL
MODEL 2
REMARK VINA RESULT:      -7.8      0.302      1.386
REMARK  Name = 
REMARK  5 active torsions:
REMARK  status: ('A' for Active; 'I' for Inactive)
REMARK    1  A    between atoms: C_2  and  C_12
REMARK    2  A    between atoms: N_3  and  C_4
REMARK    3  A    between atoms: C_4  and  C_5
REMARK    4  A    between atoms: C_5  and  C_6
REMARK    5  A    between atoms: N_18  and  C_19
REMARK                            x       y       z     vdW  Elec       q    Type
REMARK                         _______ _______ _______ _____ _____    ______ ____
ROOT
ATOM      1  C   UNL     1       2.015   4.134  18.665  0.00  0.00    +0.000 C 
ATOM      2  C   UNL     1       1.853   5.407  17.826  0.00  0.00    +0.000 C 
ATOM      3  C   UNL     1       2.699   6.548  18.381  0.00  0.00    +0.000 C 
ATOM      4  N   UNL     1       2.320   6.815  19.767  0.00  0.00    +0.000 N 
ATOM      5  C   UNL     1       1.666   8.013  20.029  0.00  0.00    +0.000 C 
ATOM      6  O   UNL     1       1.401   8.781  19.102  0.00  0.00    +0.000 OA
ATOM      7  N   UNL     1       1.355   8.279  21.347  0.00  0.00    +0.000 N 
ATOM      8  C   UNL     1       2.580   5.693  20.667  0.00  0.00    +0.000 C 
ATOM      9  C   UNL     1       1.890   4.412  20.175  0.00  0.00    +0.000 C 
ATOM     10  H   UNL     1       1.889   7.793  22.044  0.00  0.00    +0.000 HD
ENDROOT
BRANCH   7  11
ATOM     11  C   UNL     1       0.627   9.416  21.799  0.00  0.00    +0.000 A 
ATOM     12  C   UNL     1      -0.310   9.363  22.838  0.00  0.00    +0.000 A 
ATOM     13  C   UNL     1      -1.045  10.493  23.210  0.00  0.00    +0.000 A 
ATOM     14  C   UNL     1      -0.834  11.704  22.564  0.00  0.00    +0.000 A 
ATOM     15  C   UNL     1       0.122  11.787  21.554  0.00  0.00    +0.000 A 
ATOM     16  C   UNL     1       0.855  10.650  21.177  0.00  0.00    +0.000 A 
ENDBRANCH   7  11
BRANCH   1  18
ATOM     17  O   UNL     1       3.930   2.695  19.055  0.00  0.00    +0.000 OA
ATOM     18  C   UNL     1       3.315   3.421  18.283  0.00  0.00    +0.000 C 
ATOM     19  N   UNL     1       3.751   3.725  17.007  0.00  0.00    +0.000 N 
ATOM     20  H   UNL     1       3.203   4.357  16.437  0.00  0.00    +0.000 HD
BRANCH  19  21
ATOM     21  C   UNL     1       4.989   3.189  16.456  0.00  0.00    +0.000 C 
BRANCH  21  22
ATOM     22  C   UNL     1       5.863   4.288  15.829  0.00  0.00    +0.000 C 
BRANCH  22  23
ATOM     23  C   UNL     1       6.643   5.122  16.826  0.00  0.00    +0.000 C 
ATOM     24  C   UNL     1       7.451   4.559  17.745  0.00  0.00    +0.000 C 
ATOM     25  C   UNL     1       8.253   5.340  18.749  0.00  0.00    +0.000 C 
ATOM     26  C   UNL     1       7.819   6.802  18.858  0.00  0.00    +0.000 C 
ATOM     27  C   UNL     1       7.585   7.403  17.479  0.00  0.00    +0.000 C 
ATOM     28  C   UNL     1       6.515   6.625  16.706  0.00  0.00    +0.000 C 
ENDBRANCH  22  23
ENDBRANCH  21  22
ENDBRANCH  19  21
ENDBRANCH   1  18
TORSDOF 5
ENDMDL
MODEL 3
REMARK VINA RESULT:      -7.5      4.406      7.196
REMARK  Name = 
REMARK  5 active torsions:
REMARK  status: ('A' for Active; 'I' for Inactive)
REMARK    1  A    between atoms: C_2  and  C_12
REMARK    2  A    between atoms: N_3  and  C_4
REMARK    3  A    between atoms: C_4  and  C_5
REMARK    4  A    between atoms: C_5  and  C_6
REMARK    5  A    between atoms: N_18  and  C_19
REMARK                            x       y       z     vdW  Elec       q    Type
REMARK                         _______ _______ _______ _____ _____    ______ ____
ROOT
ATOM      1  C   UNL     1       5.700   5.812  18.678  0.00  0.00    +0.000 C 
ATOM      2  C   UNL     1       5.463   7.057  17.813  0.00  0.00    +0.000 C 
ATOM      3  C   UNL     1       6.729   7.459  17.063  0.00  0.00    +0.000 C 
ATOM      4  N   UNL     1       7.807   7.714  18.015  0.00  0.00    +0.000 N 
ATOM      5  C   UNL     1       8.232   9.029  18.159  0.00  0.00    +0.000 C 
ATOM      6  O   UNL     1       7.677   9.925  17.520  0.00  0.00    +0.000 OA
ATOM      7  N   UNL     1       9.284   9.254  19.024  0.00  0.00    +0.000 N 
ATOM      8  C   UNL     1       8.195   6.532  18.784  0.00  0.00    +0.000 C 
ATOM      9  C   UNL     1       6.990   5.921  19.513  0.00  0.00    +0.000 C 
ATOM     10  H   UNL     1       9.877   8.471  19.227  0.00  0.00    +0.000 HD
ENDROOT
BRANCH   7  11
ATOM     11  C   UNL     1       9.808  10.536  19.353  0.00  0.00    +0.000 A 
ATOM     12  C   UNL     1      10.642  11.266  18.497  0.00  0.00    +0.000 A 
ATOM     13  C   UNL     1      11.181  12.497  18.884  0.00  0.00    +0.000 A 
ATOM     14  C   UNL     1      10.873  13.030  20.129  0.00  0.00    +0.000 A 
ATOM     15  C   UNL     1      10.015  12.338  20.980  0.00  0.00    +0.000 A 
ATOM     16  C   UNL     1       9.478  11.099  20.593  0.00  0.00    +0.000 A 
ENDBRANCH   7  11
BRANCH   1  18
ATOM     17  O   UNL     1       6.615   4.111  17.209  0.00  0.00    +0.000 OA
ATOM     18  C   UNL     1       5.642   4.555  17.807  0.00  0.00    +0.000 C 
ATOM     19  N   UNL     1       4.375   4.008  17.718  0.00  0.00    +0.000 N 
ATOM     20  H   UNL     1       3.613   4.448  18.219  0.00  0.00    +0.000 HD
BRANCH  19  21
ATOM     21  C   UNL     1       4.086   2.833  16.907  0.00  0.00    +0.000 C 
BRANCH  21  22
ATOM     22  C   UNL     1       3.403   1.724  17.724  0.00  0.00    +0.000 C 
BRANCH  22  23
ATOM     23  C   UNL     1       2.728   2.200  18.996  0.00  0.00    +0.000 C 
ATOM     24  C   UNL     1       3.400   2.316  20.157  0.00  0.00    +0.000 C 
ATOM     25  C   UNL     1       2.780   2.792  21.442  0.00  0.00    +0.000 C 
ATOM     26  C   UNL     1       1.252   2.813  21.401  0.00  0.00    +0.000 C 
ATOM     27  C   UNL     1       0.753   3.397  20.085  0.00  0.00    +0.000 C 
ATOM     28  C   UNL     1       1.271   2.594  18.888  0.00  0.00    +0.000 C 
ENDBRANCH  22  23
ENDBRANCH  21  22
ENDBRANCH  19  21
ENDBRANCH   1  18
TORSDOF 5
ENDMDL
MODEL 4
REMARK VINA RESULT:      -7.5      1.548      2.694
REMARK  Name = 
REMARK  5 active torsions:
REMARK  status: ('A' for Active; 'I' for Inactive)
REMARK    1  A    between atoms: C_2  and  C_12
REMARK    2  A    between atoms: N_3  and  C_4
REMARK    3  A    between atoms: C_4  and  C_5
REMARK    4  A    between atoms: C_5  and  C_6
REMARK    5  A    between atoms: N_18  and  C_19
REMARK                            x       y       z     vdW  Elec       q    Type
REMARK                         _______ _______ _______ _____ _____    ______ ____
ROOT
ATOM      1  C   UNL     1       2.004   4.441  18.445  0.00  0.00    +0.000 C 
ATOM      2  C   UNL     1       1.963   5.774  17.688  0.00  0.00    +0.000 C 
ATOM      3  C   UNL     1       2.786   6.841  18.402  0.00  0.00    +0.000 C 
ATOM      4  N   UNL     1       2.283   7.027  19.761  0.00  0.00    +0.000 N 
ATOM      5  C   UNL     1       1.643   8.227  20.045  0.00  0.00    +0.000 C 
ATOM      6  O   UNL     1       1.493   9.066  19.155  0.00  0.00    +0.000 OA
ATOM      7  N   UNL     1       1.215   8.413  21.345  0.00  0.00    +0.000 N 
ATOM      8  C   UNL     1       2.421   5.836  20.598  0.00  0.00    +0.000 C 
ATOM      9  C   UNL     1       1.742   4.619  19.952  0.00  0.00    +0.000 C 
ATOM     10  H   UNL     1       1.663   7.861  22.051  0.00  0.00    +0.000 HD
ENDROOT
BRANCH   7  11
ATOM     11  C   UNL     1       0.482   9.542  21.806  0.00  0.00    +0.000 A 
ATOM     12  C   UNL     1      -0.455   9.476  22.845  0.00  0.00    +0.000 A 
ATOM     13  C   UNL     1      -1.195  10.599  23.228  0.00  0.00    +0.000 A 
ATOM     14  C   UNL     1      -0.991  11.817  22.591  0.00  0.00    +0.000 A 
ATOM     15  C   UNL     1      -0.036  11.913  21.581  0.00  0.00    +0.000 A 
ATOM     16  C   UNL     1       0.703  10.783  21.194  0.00  0.00    +0.000 A 
ENDBRANCH   7  11
BRANCH   1  18
ATOM     17  O   UNL     1       3.873   2.974  18.943  0.00  0.00    +0.000 OA
ATOM     18  C   UNL     1       3.312   3.708  18.137  0.00  0.00    +0.000 C 
ATOM     19  N   UNL     1       3.825   4.003  16.887  0.00  0.00    +0.000 N 
ATOM     20  H   UNL     1       3.319   4.643  16.287  0.00  0.00    +0.000 HD
BRANCH  19  21
ATOM     21  C   UNL     1       5.083   3.448  16.406  0.00  0.00    +0.000 C 
BRANCH  21  22
ATOM     22  C   UNL     1       6.101   4.546  16.058  0.00  0.00    +0.000 C 
BRANCH  22  23
ATOM     23  C   UNL     1       6.546   4.559  14.609  0.00  0.00    +0.000 C 
ATOM     24  C   UNL     1       7.608   5.277  14.198  0.00  0.00    +0.000 C 
ATOM     25  C   UNL     1       8.097   5.316  12.776  0.00  0.00    +0.000 C 
ATOM     26  C   UNL     1       7.090   4.742  11.779  0.00  0.00    +0.000 C 
ATOM     27  C   UNL     1       6.478   3.452  12.309  0.00  0.00    +0.000 C 
ATOM     28  C   UNL     1       5.773   3.681  13.650  0.00  0.00    +0.000 C 
ENDBRANCH  22  23
ENDBRANCH  21  22
ENDBRANCH  19  21
ENDBRANCH   1  18
TORSDOF 5
ENDMDL
MODEL 5
REMARK VINA RESULT:      -7.5      2.195      8.704
REMARK  Name = 
REMARK  5 active torsions:
REMARK  status: ('A' for Active; 'I' for Inactive)
REMARK    1  A    between atoms: C_2  and  C_12
REMARK    2  A    between atoms: N_3  and  C_4
REMARK    3  A    between atoms: C_4  and  C_5
REMARK    4  A    between atoms: C_5  and  C_6
REMARK    5  A    between atoms: N_18  and  C_19
REMARK                            x       y       z     vdW  Elec       q    Type
REMARK                         _______ _______ _______ _____ _____    ______ ____
ROOT
ATOM      1  C   UNL     1       2.790   3.953  19.434  0.00  0.00    +0.000 C 
ATOM      2  C   UNL     1       4.295   3.676  19.515  0.00  0.00    +0.000 C 
ATOM      3  C   UNL     1       5.103   4.823  18.918  0.00  0.00    +0.000 C 
ATOM      4  N   UNL     1       4.711   5.033  17.527  0.00  0.00    +0.000 N 
ATOM      5  C   UNL     1       5.640   4.704  16.546  0.00  0.00    +0.000 C 
ATOM      6  O   UNL     1       6.728   4.226  16.871  0.00  0.00    +0.000 OA
ATOM      7  N   UNL     1       5.279   4.951  15.237  0.00  0.00    +0.000 N 
ATOM      8  C   UNL     1       3.317   5.445  17.372  0.00  0.00    +0.000 C 
ATOM      9  C   UNL     1       2.362   4.444  18.038  0.00  0.00    +0.000 C 
ATOM     10  H   UNL     1       4.556   5.630  15.088  0.00  0.00    +0.000 HD
ENDROOT
BRANCH   7  11
ATOM     11  C   UNL     1       6.067   4.618  14.099  0.00  0.00    +0.000 A 
ATOM     12  C   UNL     1       7.262   5.272  13.775  0.00  0.00    +0.000 A 
ATOM     13  C   UNL     1       7.974   4.951  12.615  0.00  0.00    +0.000 A 
ATOM     14  C   UNL     1       7.513   3.949  11.771  0.00  0.00    +0.000 A 
ATOM     15  C   UNL     1       6.347   3.259  12.096  0.00  0.00    +0.000 A 
ATOM     16  C   UNL     1       5.629   3.586  13.258  0.00  0.00    +0.000 A 
ENDBRANCH   7  11
BRANCH   1  18
ATOM     17  O   UNL     1       2.185   4.521  21.715  0.00  0.00    +0.000 OA
ATOM     18  C   UNL     1       2.374   4.898  20.564  0.00  0.00    +0.000 C 
ATOM     19  N   UNL     1       2.178   6.201  20.145  0.00  0.00    +0.000 N 
ATOM     20  H   UNL     1       2.327   6.432  19.170  0.00  0.00    +0.000 HD
BRANCH  19  21
ATOM     21  C   UNL     1       1.739   7.256  21.049  0.00  0.00    +0.000 C 
BRANCH  21  22
ATOM     22  C   UNL     1       1.314   8.524  20.290  0.00  0.00    +0.000 C 
BRANCH  22  23
ATOM     23  C   UNL     1       0.460   9.485  21.094  0.00  0.00    +0.000 C 
ATOM     24  C   UNL     1      -0.225  10.486  20.510  0.00  0.00    +0.000 C 
ATOM     25  C   UNL     1      -1.093  11.460  21.259  0.00  0.00    +0.000 C 
ATOM     26  C   UNL     1      -0.868  11.424  22.771  0.00  0.00    +0.000 C 
ATOM     27  C   UNL     1      -0.774   9.989  23.272  0.00  0.00    +0.000 C 
ATOM     28  C   UNL     1       0.367   9.233  22.583  0.00  0.00    +0.000 C 
ENDBRANCH  22  23
ENDBRANCH  21  22
ENDBRANCH  19  21
ENDBRANCH   1  18
TORSDOF 5
ENDMDL
MODEL 6
REMARK VINA RESULT:      -7.4      2.143      8.773
REMARK  Name = 
REMARK  5 active torsions:
REMARK  status: ('A' for Active; 'I' for Inactive)
REMARK    1  A    between atoms: C_2  and  C_12
REMARK    2  A    between atoms: N_3  and  C_4
REMARK    3  A    between atoms: C_4  and  C_5
REMARK    4  A    between atoms: C_5  and  C_6
REMARK    5  A    between atoms: N_18  and  C_19
REMARK                            x       y       z     vdW  Elec       q    Type
REMARK                         _______ _______ _______ _____ _____    ______ ____
ROOT
ATOM      1  C   UNL     1       2.552   4.189  19.380  0.00  0.00    +0.000 C 
ATOM      2  C   UNL     1       4.008   3.716  19.476  0.00  0.00    +0.000 C 
ATOM      3  C   UNL     1       4.971   4.782  18.965  0.00  0.00    +0.000 C 
ATOM      4  N   UNL     1       4.648   5.118  17.580  0.00  0.00    +0.000 N 
ATOM      5  C   UNL     1       5.555   4.728  16.602  0.00  0.00    +0.000 C 
ATOM      6  O   UNL     1       6.565   4.097  16.920  0.00  0.00    +0.000 OA
ATOM      7  N   UNL     1       5.266   5.092  15.302  0.00  0.00    +0.000 N 
ATOM      8  C   UNL     1       3.322   5.713  17.421  0.00  0.00    +0.000 C 
ATOM      9  C   UNL     1       2.230   4.807  18.006  0.00  0.00    +0.000 C 
ATOM     10  H   UNL     1       4.639   5.865  15.178  0.00  0.00    +0.000 HD
ENDROOT
BRANCH   7  11
ATOM     11  C   UNL     1       6.036   4.724  14.163  0.00  0.00    +0.000 A 
ATOM     12  C   UNL     1       7.248   5.340  13.826  0.00  0.00    +0.000 A 
ATOM     13  C   UNL     1       7.944   4.987  12.665  0.00  0.00    +0.000 A 
ATOM     14  C   UNL     1       7.448   3.990  11.834  0.00  0.00    +0.000 A 
ATOM     15  C   UNL     1       6.265   3.338  12.172  0.00  0.00    +0.000 A 
ATOM     16  C   UNL     1       5.564   3.697  13.335  0.00  0.00    +0.000 A 
ENDBRANCH   7  11
BRANCH   1  18
ATOM     17  O   UNL     1       2.136   4.719  21.711  0.00  0.00    +0.000 OA
ATOM     18  C   UNL     1       2.228   5.114  20.555  0.00  0.00    +0.000 C 
ATOM     19  N   UNL     1       1.994   6.423  20.173  0.00  0.00    +0.000 N 
ATOM     20  H   UNL     1       2.061   6.669  19.193  0.00  0.00    +0.000 HD
BRANCH  19  21
ATOM     21  C   UNL     1       1.628   7.461  21.126  0.00  0.00    +0.000 C 
BRANCH  21  22
ATOM     22  C   UNL     1       1.263   8.781  20.427  0.00  0.00    +0.000 C 
BRANCH  22  23
ATOM     23  C   UNL     1       0.427   9.730  21.263  0.00  0.00    +0.000 C 
ATOM     24  C   UNL     1      -0.117   9.353  22.436  0.00  0.00    +0.000 C 
ATOM     25  C   UNL     1      -0.945  10.257  23.307  0.00  0.00    +0.000 C 
ATOM     26  C   UNL     1      -1.396  11.531  22.593  0.00  0.00    +0.000 C 
ATOM     27  C   UNL     1      -0.253  12.135  21.787  0.00  0.00    +0.000 C 
ATOM     28  C   UNL     1       0.277  11.144  20.746  0.00  0.00    +0.000 C 
ENDBRANCH  22  23
ENDBRANCH  21  22
ENDBRANCH  19  21
ENDBRANCH   1  18
TORSDOF 5
ENDMDL
MODEL 7
REMARK VINA RESULT:      -7.2      3.684      8.992
REMARK  Name = 
REMARK  5 active torsions:
REMARK  status: ('A' for Active; 'I' for Inactive)
REMARK    1  A    between atoms: C_2  and  C_12
REMARK    2  A    between atoms: N_3  and  C_4
REMARK    3  A    between atoms: C_4  and  C_5
REMARK    4  A    between atoms: C_5  and  C_6
REMARK    5  A    between atoms: N_18  and  C_19
REMARK                            x       y       z     vdW  Elec       q    Type
REMARK                         _______ _______ _______ _____ _____    ______ ____
ROOT
ATOM      1  C   UNL     1      -0.383  10.120  20.363  0.00  0.00    +0.000 C 
ATOM      2  C   UNL     1      -0.109   9.051  21.427  0.00  0.00    +0.000 C 
ATOM      3  C   UNL     1       1.352   8.614  21.409  0.00  0.00    +0.000 C 
ATOM      4  N   UNL     1       1.698   8.098  20.087  0.00  0.00    +0.000 N 
ATOM      5  C   UNL     1       1.944   6.734  19.980  0.00  0.00    +0.000 C 
ATOM      6  O   UNL     1       1.834   6.012  20.973  0.00  0.00    +0.000 OA
ATOM      7  N   UNL     1       2.317   6.263  18.737  0.00  0.00    +0.000 N 
ATOM      8  C   UNL     1       1.601   9.102  19.029  0.00  0.00    +0.000 C 
ATOM      9  C   UNL     1       0.205   9.740  18.991  0.00  0.00    +0.000 C 
ATOM     10  H   UNL     1       2.704   6.933  18.098  0.00  0.00    +0.000 HD
ENDROOT
BRANCH   7  11
ATOM     11  C   UNL     1       2.542   4.894  18.419  0.00  0.00    +0.000 A 
ATOM     12  C   UNL     1       3.775   4.403  17.973  0.00  0.00    +0.000 A 
ATOM     13  C   UNL     1       3.935   3.060  17.616  0.00  0.00    +0.000 A 
ATOM     14  C   UNL     1       2.867   2.180  17.724  0.00  0.00    +0.000 A 
ATOM     15  C   UNL     1       1.642   2.640  18.203  0.00  0.00    +0.000 A 
ATOM     16  C   UNL     1       1.480   3.990  18.555  0.00  0.00    +0.000 A 
ENDBRANCH   7  11
BRANCH   1  18
ATOM     17  O   UNL     1       0.071  11.803  22.052  0.00  0.00    +0.000 OA
ATOM     18  C   UNL     1       0.083  11.488  20.867  0.00  0.00    +0.000 C 
ATOM     19  N   UNL     1       0.462  12.346  19.852  0.00  0.00    +0.000 N 
ATOM     20  H   UNL     1       0.418  12.024  18.893  0.00  0.00    +0.000 HD
BRANCH  19  21
ATOM     21  C   UNL     1       0.900  13.712  20.105  0.00  0.00    +0.000 C 
BRANCH  21  22
ATOM     22  C   UNL     1       0.009  14.743  19.393  0.00  0.00    +0.000 C 
BRANCH  22  23
ATOM     23  C   UNL     1       0.764  15.777  18.580  0.00  0.00    +0.000 C 
ATOM     24  C   UNL     1       0.194  16.937  18.200  0.00  0.00    +0.000 C 
ATOM     25  C   UNL     1       0.901  17.998  17.403  0.00  0.00    +0.000 C 
ATOM     26  C   UNL     1       2.207  17.509  16.776  0.00  0.00    +0.000 C 
ATOM     27  C   UNL     1       3.010  16.683  17.772  0.00  0.00    +0.000 C 
ATOM     28  C   UNL     1       2.211  15.472  18.263  0.00  0.00    +0.000 C 
ENDBRANCH  22  23
ENDBRANCH  21  22
ENDBRANCH  19  21
ENDBRANCH   1  18
TORSDOF 5
ENDMDL
MODEL 8
REMARK VINA RESULT:      -7.2      1.288      1.524
REMARK  Name = 
REMARK  5 active torsions:
REMARK  status: ('A' for Active; 'I' for Inactive)
REMARK    1  A    between atoms: C_2  and  C_12
REMARK    2  A    between atoms: N_3  and  C_4
REMARK    3  A    between atoms: C_4  and  C_5
REMARK    4  A    between atoms: C_5  and  C_6
REMARK    5  A    between atoms: N_18  and  C_19
REMARK                            x       y       z     vdW  Elec       q    Type
REMARK                         _______ _______ _______ _____ _____    ______ ____
ROOT
ATOM      1  C   UNL     1       1.978   4.802  18.822  0.00  0.00    +0.000 C 
ATOM      2  C   UNL     1       1.800   5.783  17.656  0.00  0.00    +0.000 C 
ATOM      3  C   UNL     1       2.589   7.067  17.888  0.00  0.00    +0.000 C 
ATOM      4  N   UNL     1       2.156   7.695  19.134  0.00  0.00    +0.000 N 
ATOM      5  C   UNL     1       1.452   8.890  19.035  0.00  0.00    +0.000 C 
ATOM      6  O   UNL     1       1.192   9.356  17.925  0.00  0.00    +0.000 OA
ATOM      7  N   UNL     1       1.090   9.500  20.219  0.00  0.00    +0.000 N 
ATOM      8  C   UNL     1       2.424   6.880  20.318  0.00  0.00    +0.000 C 
ATOM      9  C   UNL     1       1.794   5.486  20.190  0.00  0.00    +0.000 C 
ATOM     10  H   UNL     1       1.617   9.251  21.036  0.00  0.00    +0.000 HD
ENDROOT
BRANCH   7  11
ATOM     11  C   UNL     1       0.310  10.687  20.318  0.00  0.00    +0.000 A 
ATOM     12  C   UNL     1      -0.983  10.800  19.791  0.00  0.00    +0.000 A 
ATOM     13  C   UNL     1      -1.691  12.003  19.859  0.00  0.00    +0.000 A 
ATOM     14  C   UNL     1      -1.126  13.109  20.481  0.00  0.00    +0.000 A 
ATOM     15  C   UNL     1       0.144  13.006  21.046  0.00  0.00    +0.000 A 
ATOM     16  C   UNL     1       0.857  11.798  20.971  0.00  0.00    +0.000 A 
ENDBRANCH   7  11
BRANCH   1  18
ATOM     17  O   UNL     1       4.038   3.813  19.639  0.00  0.00    +0.000 OA
ATOM     18  C   UNL     1       3.313   4.066  18.684  0.00  0.00    +0.000 C 
ATOM     19  N   UNL     1       3.642   3.769  17.374  0.00  0.00    +0.000 N 
ATOM     20  H   UNL     1       3.004   4.036  16.634  0.00  0.00    +0.000 HD
BRANCH  19  21
ATOM     21  C   UNL     1       4.888   3.108  17.012  0.00  0.00    +0.000 C 
BRANCH  21  22
ATOM     22  C   UNL     1       5.793   4.013  16.160  0.00  0.00    +0.000 C 
BRANCH  22  23
ATOM     23  C   UNL     1       6.453   5.146  16.922  0.00  0.00    +0.000 C 
ATOM     24  C   UNL     1       6.146   6.436  16.685  0.00  0.00    +0.000 C 
ATOM     25  C   UNL     1       6.763   7.594  17.419  0.00  0.00    +0.000 C 
ATOM     26  C   UNL     1       8.006   7.205  18.220  0.00  0.00    +0.000 C 
ATOM     27  C   UNL     1       7.782   5.898  18.968  0.00  0.00    +0.000 C 
ATOM     28  C   UNL     1       7.434   4.758  18.006  0.00  0.00    +0.000 C 
ENDBRANCH  22  23
ENDBRANCH  21  22
ENDBRANCH  19  21
ENDBRANCH   1  18
TORSDOF 5
ENDMDL
MODEL 9
REMARK VINA RESULT:      -7.2      3.885      9.476
REMARK  Name = 
REMARK  5 active torsions:
REMARK  status: ('A' for Active; 'I' for Inactive)
REMARK    1  A    between atoms: C_2  and  C_12
REMARK    2  A    between atoms: N_3  and  C_4
REMARK    3  A    between atoms: C_4  and  C_5
REMARK    4  A    between atoms: C_5  and  C_6
REMARK    5  A    between atoms: N_18  and  C_19
REMARK                            x       y       z     vdW  Elec       q    Type
REMARK                         _______ _______ _______ _____ _____    ______ ____
ROOT
ATOM      1  C   UNL     1      -0.571  10.443  20.001  0.00  0.00    +0.000 C 
ATOM      2  C   UNL     1      -0.254   9.376  21.055  0.00  0.00    +0.000 C 
ATOM      3  C   UNL     1       1.233   9.040  21.073  0.00  0.00    +0.000 C 
ATOM      4  N   UNL     1       1.651   8.573  19.754  0.00  0.00    +0.000 N 
ATOM      5  C   UNL     1       1.993   7.231  19.631  0.00  0.00    +0.000 C 
ATOM      6  O   UNL     1       1.905   6.486  20.609  0.00  0.00    +0.000 OA
ATOM      7  N   UNL     1       2.433   6.809  18.392  0.00  0.00    +0.000 N 
ATOM      8  C   UNL     1       1.516   9.587  18.709  0.00  0.00    +0.000 C 
ATOM      9  C   UNL     1       0.081  10.129  18.640  0.00  0.00    +0.000 C 
ATOM     10  H   UNL     1       2.790   7.515  17.776  0.00  0.00    +0.000 HD
ENDROOT
BRANCH   7  11
ATOM     11  C   UNL     1       2.759   5.465  18.059  0.00  0.00    +0.000 A 
ATOM     12  C   UNL     1       1.798   4.501  17.733  0.00  0.00    +0.000 A 
ATOM     13  C   UNL     1       2.159   3.176  17.468  0.00  0.00    +0.000 A 
ATOM     14  C   UNL     1       3.496   2.800  17.500  0.00  0.00    +0.000 A 
ATOM     15  C   UNL     1       4.471   3.753  17.784  0.00  0.00    +0.000 A 
ATOM     16  C   UNL     1       4.107   5.082  18.056  0.00  0.00    +0.000 A 
ENDBRANCH   7  11
BRANCH   1  18
ATOM     17  O   UNL     1      -0.358  12.147  21.716  0.00  0.00    +0.000 OA
ATOM     18  C   UNL     1      -0.214  11.830  20.541  0.00  0.00    +0.000 C 
ATOM     19  N   UNL     1       0.229  12.701  19.563  0.00  0.00    +0.000 N 
ATOM     20  H   UNL     1       0.294  12.375  18.606  0.00  0.00    +0.000 HD
BRANCH  19  21
ATOM     21  C   UNL     1       0.582  14.085  19.850  0.00  0.00    +0.000 C 
BRANCH  21  22
ATOM     22  C   UNL     1      -0.561  15.054  19.508  0.00  0.00    +0.000 C 
BRANCH  22  23
ATOM     23  C   UNL     1      -0.148  16.246  18.667  0.00  0.00    +0.000 C 
ATOM     24  C   UNL     1      -1.021  17.215  18.331  0.00  0.00    +0.000 C 
ATOM     25  C   UNL     1      -0.661  18.422  17.508  0.00  0.00    +0.000 C 
ATOM     26  C   UNL     1       0.691  18.289  16.806  0.00  0.00    +0.000 C 
ATOM     27  C   UNL     1       1.735  17.705  17.748  0.00  0.00    +0.000 C 
ATOM     28  C   UNL     1       1.309  16.328  18.267  0.00  0.00    +0.000 C 
ENDBRANCH  22  23
ENDBRANCH  21  22
ENDBRANCH  19  21
ENDBRANCH   1  18
TORSDOF 5
ENDMDL
