MODEL 1
REMARK VINA RESULT:      -8.5      0.000      0.000
REMARK  Name = 
REMARK  7 active torsions:
REMARK  status: ('A' for Active; 'I' for Inactive)
REMARK    1  A    between atoms: C_2  and  C_4
REMARK    2  A    between atoms: C_7  and  C_8
REMARK    3  A    between atoms: C_8  and  O_9
REMARK    4  A    between atoms: O_9  and  C_10
REMARK    5  A    between atoms: C_18  and  C_19
REMARK    6  A    between atoms: C_19  and  C_20
REMARK    7  A    between atoms: C_20  and  O_22
REMARK                            x       y       z     vdW  Elec       q    Type
REMARK                         _______ _______ _______ _____ _____    ______ ____
ROOT
ATOM      1  C   UNL     1       7.569   7.617  17.887  0.00  0.00    +0.000 A 
ATOM      2  C   UNL     1       8.083   6.746  18.858  0.00  0.00    +0.000 A 
ATOM      3  C   UNL     1       7.444   5.491  19.137  0.00  0.00    +0.000 A 
ATOM      4  C   UNL     1       6.321   5.089  18.397  0.00  0.00    +0.000 A 
ATOM      5  C   UNL     1       5.818   6.024  17.470  0.00  0.00    +0.000 A 
ATOM      6  C   UNL     1       6.374   7.294  17.294  0.00  0.00    +0.000 A 
ATOM      7  C   UNL     1       4.740   5.682  16.501  0.00  0.00    +0.000 C 
ATOM      8  C   UNL     1       4.792   4.198  16.339  0.00  0.00    +0.000 C 
ATOM      9  C   UNL     1       4.518   3.685  17.748  0.00  0.00    +0.000 C 
ATOM     10  O   UNL     1       5.771   3.786  18.501  0.00  0.00    +0.000 OA
ENDROOT
BRANCH   1  11
ATOM     11  O   UNL     1       8.133   8.778  17.405  0.00  0.00    +0.000 OA
BRANCH  11  12
ATOM     12  C   UNL     1       8.695   9.603  18.436  0.00  0.00    +0.000 C 
BRANCH  12  16
ATOM     13  C   UNL     1      10.534  13.448  17.405  0.00  0.00    +0.000 A 
ATOM     14  C   UNL     1       9.132  13.350  17.451  0.00  0.00    +0.000 A 
ATOM     15  C   UNL     1       8.494  12.123  17.749  0.00  0.00    +0.000 A 
ATOM     16  C   UNL     1       9.249  10.976  18.031  0.00  0.00    +0.000 A 
ATOM     17  C   UNL     1      10.652  11.089  17.945  0.00  0.00    +0.000 A 
ATOM     18  C   UNL     1      11.289  12.299  17.636  0.00  0.00    +0.000 A 
BRANCH  13  20
ATOM     19  N   UNL     1      10.987  15.424  16.097  0.00  0.00    +0.000 NA
ATOM     20  C   UNL     1      11.198  14.771  17.175  0.00  0.00    +0.000 C 
ATOM     21  N   UNL     1      12.027  15.320  18.119  0.00  0.00    +0.000 N 
ATOM     22  H   UNL     1      11.445  16.336  16.104  0.00  0.00    +0.000 HD
ATOM     23  H   UNL     1      12.649  16.043  17.799  0.00  0.00    +0.000 HD
ATOM     24  H   UNL     1      12.486  14.653  18.727  0.00  0.00    +0.000 HD
ENDBRANCH  13  20
ENDBRANCH  12  16
ENDBRANCH  11  12
ENDBRANCH   1  11
BRANCH   9  25
ATOM     25  C   UNL     1       3.694   2.393  17.552  0.00  0.00    +0.000 C 
BRANCH  25  26
ATOM     26  C   UNL     1       2.212   2.725  17.813  0.00  0.00    +0.000 C 
ATOM     27  O   UNL     1       1.668   3.755  17.437  0.00  0.00    +0.000 OA
BRANCH  26  28
ATOM     28  O   UNL     1       1.537   1.824  18.563  0.00  0.00    +0.000 OA
ATOM     29  H   UNL     1       0.815   2.165  19.123  0.00  0.00    +0.000 HD
ENDBRANCH  26  28
ENDBRANCH  25  26
ENDBRANCH   9  25
TORSDOF 7
ENDMDL
MODEL 2
REMARK VINA RESULT:      -8.1      5.434      7.458
REMARK  Name = 
REMARK  7 active torsions:
REMARK  status: ('A' for Active; 'I' for Inactive)
REMARK    1  A    between atoms: C_2  and  C_4
REMARK    2  A    between atoms: C_7  and  C_8
REMARK    3  A    between atoms: C_8  and  O_9
REMARK    4  A    between atoms: O_9  and  C_10
REMARK    5  A    between atoms: C_18  and  C_19
REMARK    6  A    between atoms: C_19  and  C_20
REMARK    7  A    between atoms: C_20  and  O_22
REMARK                            x       y       z     vdW  Elec       q    Type
REMARK                         _______ _______ _______ _____ _____    ______ ____
ROOT
ATOM      1  C   UNL     1       5.392   5.113  19.056  0.00  0.00    +0.000 A 
ATOM      2  C   UNL     1       6.620   5.786  19.014  0.00  0.00    +0.000 A 
ATOM      3  C   UNL     1       7.411   5.808  17.815  0.00  0.00    +0.000 A 
ATOM      4  C   UNL     1       6.935   5.200  16.643  0.00  0.00    +0.000 A 
ATOM      5  C   UNL     1       5.719   4.496  16.756  0.00  0.00    +0.000 A 
ATOM      6  C   UNL     1       5.019   4.375  17.959  0.00  0.00    +0.000 A 
ATOM      7  C   UNL     1       5.008   3.941  15.571  0.00  0.00    +0.000 C 
ATOM      8  C   UNL     1       5.472   4.747  14.402  0.00  0.00    +0.000 C 
ATOM      9  C   UNL     1       6.974   4.491  14.377  0.00  0.00    +0.000 C 
ATOM     10  O   UNL     1       7.583   5.355  15.391  0.00  0.00    +0.000 OA
ENDROOT
BRANCH   1  11
ATOM     11  O   UNL     1       4.458   5.114  20.069  0.00  0.00    +0.000 OA
BRANCH  11  12
ATOM     12  C   UNL     1       3.109   5.230  19.592  0.00  0.00    +0.000 C 
BRANCH  12  16
ATOM     13  C   UNL     1       1.435   9.217  18.860  0.00  0.00    +0.000 A 
ATOM     14  C   UNL     1       2.094   8.548  17.813  0.00  0.00    +0.000 A 
ATOM     15  C   UNL     1       2.677   7.274  18.011  0.00  0.00    +0.000 A 
ATOM     16  C   UNL     1       2.588   6.634  19.255  0.00  0.00    +0.000 A 
ATOM     17  C   UNL     1       1.952   7.337  20.300  0.00  0.00    +0.000 A 
ATOM     18  C   UNL     1       1.386   8.606  20.112  0.00  0.00    +0.000 A 
BRANCH  13  20
ATOM     19  N   UNL     1       1.427  11.580  18.379  0.00  0.00    +0.000 NA
ATOM     20  C   UNL     1       0.748  10.524  18.614  0.00  0.00    +0.000 C 
ATOM     21  N   UNL     1      -0.621  10.616  18.616  0.00  0.00    +0.000 N 
ATOM     22  H   UNL     1       0.832  12.380  18.161  0.00  0.00    +0.000 HD
ATOM     23  H   UNL     1      -1.005  11.538  18.731  0.00  0.00    +0.000 HD
ATOM     24  H   UNL     1      -1.096   9.923  19.181  0.00  0.00    +0.000 HD
ENDBRANCH  13  20
ENDBRANCH  12  16
ENDBRANCH  11  12
ENDBRANCH   1  11
BRANCH   9  25
ATOM     25  C   UNL     1       7.352   4.468  12.879  0.00  0.00    +0.000 C 
BRANCH  25  26
ATOM     26  C   UNL     1       8.132   5.759  12.561  0.00  0.00    +0.000 C 
ATOM     27  O   UNL     1       7.865   6.504  11.627  0.00  0.00    +0.000 OA
BRANCH  26  28
ATOM     28  O   UNL     1       9.204   6.000  13.349  0.00  0.00    +0.000 OA
ATOM     29  H   UNL     1       9.728   5.228  13.635  0.00  0.00    +0.000 HD
ENDBRANCH  26  28
ENDBRANCH  25  26
ENDBRANCH   9  25
TORSDOF 7
ENDMDL
MODEL 3
REMARK VINA RESULT:      -8.0      5.348      7.384
REMARK  Name = 
REMARK  7 active torsions:
REMARK  status: ('A' for Active; 'I' for Inactive)
REMARK    1  A    between atoms: C_2  and  C_4
REMARK    2  A    between atoms: C_7  and  C_8
REMARK    3  A    between atoms: C_8  and  O_9
REMARK    4  A    between atoms: O_9  and  C_10
REMARK    5  A    between atoms: C_18  and  C_19
REMARK    6  A    between atoms: C_19  and  C_20
REMARK    7  A    between atoms: C_20  and  O_22
REMARK                            x       y       z     vdW  Elec       q    Type
REMARK                         _______ _______ _______ _____ _____    ______ ____
ROOT
ATOM      1  C   UNL     1       5.356   5.027  18.959  0.00  0.00    +0.000 A 
ATOM      2  C   UNL     1       6.512   5.818  18.917  0.00  0.00    +0.000 A 
ATOM      3  C   UNL     1       7.305   5.906  17.723  0.00  0.00    +0.000 A 
ATOM      4  C   UNL     1       6.899   5.243  16.555  0.00  0.00    +0.000 A 
ATOM      5  C   UNL     1       5.758   4.423  16.667  0.00  0.00    +0.000 A 
ATOM      6  C   UNL     1       5.065   4.245  17.867  0.00  0.00    +0.000 A 
ATOM      7  C   UNL     1       5.114   3.788  15.483  0.00  0.00    +0.000 C 
ATOM      8  C   UNL     1       5.504   4.626  14.310  0.00  0.00    +0.000 C 
ATOM      9  C   UNL     1       7.025   4.519  14.296  0.00  0.00    +0.000 C 
ATOM     10  O   UNL     1       7.538   5.448  15.305  0.00  0.00    +0.000 OA
ENDROOT
BRANCH   1  11
ATOM     11  O   UNL     1       4.418   4.946  19.966  0.00  0.00    +0.000 OA
BRANCH  11  12
ATOM     12  C   UNL     1       3.070   5.088  19.494  0.00  0.00    +0.000 C 
BRANCH  12  16
ATOM     13  C   UNL     1       1.603   9.190  18.992  0.00  0.00    +0.000 A 
ATOM     14  C   UNL     1       1.431   8.549  20.231  0.00  0.00    +0.000 A 
ATOM     15  C   UNL     1       1.861   7.215  20.430  0.00  0.00    +0.000 A 
ATOM     16  C   UNL     1       2.493   6.507  19.399  0.00  0.00    +0.000 A 
ATOM     17  C   UNL     1       2.624   7.158  18.154  0.00  0.00    +0.000 A 
ATOM     18  C   UNL     1       2.187   8.474  17.948  0.00  0.00    +0.000 A 
BRANCH  13  20
ATOM     19  N   UNL     1       1.774  11.341  17.913  0.00  0.00    +0.000 NA
ATOM     20  C   UNL     1       1.224  10.629  18.820  0.00  0.00    +0.000 C 
ATOM     21  N   UNL     1       0.267  11.208  19.614  0.00  0.00    +0.000 N 
ATOM     22  H   UNL     1       1.371  12.278  17.863  0.00  0.00    +0.000 HD
ATOM     23  H   UNL     1       0.263  12.213  19.645  0.00  0.00    +0.000 HD
ATOM     24  H   UNL     1       0.160  10.790  20.530  0.00  0.00    +0.000 HD
ENDBRANCH  13  20
ENDBRANCH  12  16
ENDBRANCH  11  12
ENDBRANCH   1  11
BRANCH   9  25
ATOM     25  C   UNL     1       7.413   4.518  12.800  0.00  0.00    +0.000 C 
BRANCH  25  26
ATOM     26  C   UNL     1       8.207   5.808  12.511  0.00  0.00    +0.000 C 
ATOM     27  O   UNL     1       7.970   6.558  11.574  0.00  0.00    +0.000 OA
BRANCH  26  28
ATOM     28  O   UNL     1       9.257   6.041  13.331  0.00  0.00    +0.000 OA
ATOM     29  H   UNL     1       9.267   5.571  14.185  0.00  0.00    +0.000 HD
ENDBRANCH  26  28
ENDBRANCH  25  26
ENDBRANCH   9  25
TORSDOF 7
ENDMDL
MODEL 4
REMARK VINA RESULT:      -8.0      6.058      7.919
REMARK  Name = 
REMARK  7 active torsions:
REMARK  status: ('A' for Active; 'I' for Inactive)
REMARK    1  A    between atoms: C_2  and  C_4
REMARK    2  A    between atoms: C_7  and  C_8
REMARK    3  A    between atoms: C_8  and  O_9
REMARK    4  A    between atoms: O_9  and  C_10
REMARK    5  A    between atoms: C_18  and  C_19
REMARK    6  A    between atoms: C_19  and  C_20
REMARK    7  A    between atoms: C_20  and  O_22
REMARK                            x       y       z     vdW  Elec       q    Type
REMARK                         _______ _______ _______ _____ _____    ______ ____
ROOT
ATOM      1  C   UNL     1       2.039   5.785  20.199  0.00  0.00    +0.000 A 
ATOM      2  C   UNL     1       2.406   4.482  20.558  0.00  0.00    +0.000 A 
ATOM      3  C   UNL     1       3.454   3.789  19.862  0.00  0.00    +0.000 A 
ATOM      4  C   UNL     1       4.170   4.433  18.842  0.00  0.00    +0.000 A 
ATOM      5  C   UNL     1       3.726   5.724  18.488  0.00  0.00    +0.000 A 
ATOM      6  C   UNL     1       2.625   6.340  19.087  0.00  0.00    +0.000 A 
ATOM      7  C   UNL     1       4.481   6.593  17.543  0.00  0.00    +0.000 C 
ATOM      8  C   UNL     1       5.894   6.112  17.586  0.00  0.00    +0.000 C 
ATOM      9  C   UNL     1       5.783   4.666  17.114  0.00  0.00    +0.000 C 
ATOM     10  O   UNL     1       5.331   3.868  18.256  0.00  0.00    +0.000 OA
ENDROOT
BRANCH   1  11
ATOM     11  O   UNL     1       1.164   6.630  20.846  0.00  0.00    +0.000 OA
BRANCH  11  12
ATOM     12  C   UNL     1       1.681   7.959  21.010  0.00  0.00    +0.000 C 
BRANCH  12  16
ATOM     13  C   UNL     1      -0.552  11.335  19.322  0.00  0.00    +0.000 A 
ATOM     14  C   UNL     1      -0.789  10.956  20.655  0.00  0.00    +0.000 A 
ATOM     15  C   UNL     1      -0.114   9.854  21.233  0.00  0.00    +0.000 A 
ATOM     16  C   UNL     1       0.828   9.126  20.493  0.00  0.00    +0.000 A 
ATOM     17  C   UNL     1       1.024   9.503  19.148  0.00  0.00    +0.000 A 
ATOM     18  C   UNL     1       0.348  10.585  18.567  0.00  0.00    +0.000 A 
BRANCH  13  20
ATOM     19  N   UNL     1      -1.064  12.849  17.514  0.00  0.00    +0.000 NA
ATOM     20  C   UNL     1      -1.206  12.555  18.750  0.00  0.00    +0.000 C 
ATOM     21  N   UNL     1      -1.987  13.370  19.529  0.00  0.00    +0.000 N 
ATOM     22  H   UNL     1      -1.619  13.662  17.246  0.00  0.00    +0.000 HD
ATOM     23  H   UNL     1      -2.155  14.296  19.174  0.00  0.00    +0.000 HD
ATOM     24  H   UNL     1      -1.760  13.366  20.515  0.00  0.00    +0.000 HD
ENDBRANCH  13  20
ENDBRANCH  12  16
ENDBRANCH  11  12
ENDBRANCH   1  11
BRANCH   9  25
ATOM     25  C   UNL     1       7.070   4.411  16.298  0.00  0.00    +0.000 C 
BRANCH  25  26
ATOM     26  C   UNL     1       6.786   4.778  14.828  0.00  0.00    +0.000 C 
ATOM     27  O   UNL     1       5.807   4.391  14.205  0.00  0.00    +0.000 OA
BRANCH  26  28
ATOM     28  O   UNL     1       7.741   5.519  14.218  0.00  0.00    +0.000 OA
ATOM     29  H   UNL     1       7.439   6.262  13.664  0.00  0.00    +0.000 HD
ENDBRANCH  26  28
ENDBRANCH  25  26
ENDBRANCH   9  25
TORSDOF 7
ENDMDL
MODEL 5
REMARK VINA RESULT:      -8.0      7.571      9.301
REMARK  Name = 
REMARK  7 active torsions:
REMARK  status: ('A' for Active; 'I' for Inactive)
REMARK    1  A    between atoms: C_2  and  C_4
REMARK    2  A    between atoms: C_7  and  C_8
REMARK    3  A    between atoms: C_8  and  O_9
REMARK    4  A    between atoms: O_9  and  C_10
REMARK    5  A    between atoms: C_18  and  C_19
REMARK    6  A    between atoms: C_19  and  C_20
REMARK    7  A    between atoms: C_20  and  O_22
REMARK                            x       y       z     vdW  Elec       q    Type
REMARK                         _______ _______ _______ _____ _____    ______ ____
ROOT
ATOM      1  C   UNL     1       2.266   8.628  18.222  0.00  0.00    +0.000 A 
ATOM      2  C   UNL     1       3.202   7.994  17.394  0.00  0.00    +0.000 A 
ATOM      3  C   UNL     1       3.687   6.677  17.699  0.00  0.00    +0.000 A 
ATOM      4  C   UNL     1       3.185   5.978  18.807  0.00  0.00    +0.000 A 
ATOM      5  C   UNL     1       2.284   6.682  19.632  0.00  0.00    +0.000 A 
ATOM      6  C   UNL     1       1.914   8.008  19.396  0.00  0.00    +0.000 A 
ATOM      7  C   UNL     1       1.545   6.024  20.746  0.00  0.00    +0.000 C 
ATOM      8  C   UNL     1       1.497   4.572  20.401  0.00  0.00    +0.000 C 
ATOM      9  C   UNL     1       2.969   4.179  20.343  0.00  0.00    +0.000 C 
ATOM     10  O   UNL     1       3.486   4.612  19.042  0.00  0.00    +0.000 OA
ENDROOT
BRANCH   1  11
ATOM     11  O   UNL     1       1.602   9.815  17.999  0.00  0.00    +0.000 OA
BRANCH  11  12
ATOM     12  C   UNL     1       0.698  10.162  19.058  0.00  0.00    +0.000 C 
BRANCH  12  16
ATOM     13  C   UNL     1      -3.463  11.281  18.239  0.00  0.00    +0.000 A 
ATOM     14  C   UNL     1      -2.869  10.255  17.484  0.00  0.00    +0.000 A 
ATOM     15  C   UNL     1      -1.520   9.881  17.692  0.00  0.00    +0.000 A 
ATOM     16  C   UNL     1      -0.748  10.511  18.677  0.00  0.00    +0.000 A 
ATOM     17  C   UNL     1      -1.354  11.561  19.399  0.00  0.00    +0.000 A 
ATOM     18  C   UNL     1      -2.685  11.945  19.187  0.00  0.00    +0.000 A 
BRANCH  13  20
ATOM     19  N   UNL     1      -5.280  12.788  17.743  0.00  0.00    +0.000 NA
ATOM     20  C   UNL     1      -4.914  11.608  18.070  0.00  0.00    +0.000 C 
ATOM     21  N   UNL     1      -5.881  10.650  18.241  0.00  0.00    +0.000 N 
ATOM     22  H   UNL     1      -6.288  12.851  17.594  0.00  0.00    +0.000 HD
ATOM     23  H   UNL     1      -6.816  10.984  18.395  0.00  0.00    +0.000 HD
ATOM     24  H   UNL     1      -5.629   9.895  18.867  0.00  0.00    +0.000 HD
ENDBRANCH  13  20
ENDBRANCH  12  16
ENDBRANCH  11  12
ENDBRANCH   1  11
BRANCH   9  25
ATOM     25  C   UNL     1       3.021   2.735  20.890  0.00  0.00    +0.000 C 
BRANCH  25  26
ATOM     26  C   UNL     1       4.323   2.080  20.390  0.00  0.00    +0.000 C 
ATOM     27  O   UNL     1       5.228   1.710  21.126  0.00  0.00    +0.000 OA
BRANCH  26  28
ATOM     28  O   UNL     1       4.452   1.994  19.045  0.00  0.00    +0.000 OA
ATOM     29  H   UNL     1       3.631   1.923  18.525  0.00  0.00    +0.000 HD
ENDBRANCH  26  28
ENDBRANCH  25  26
ENDBRANCH   9  25
TORSDOF 7
ENDMDL
MODEL 6
REMARK VINA RESULT:      -8.0      5.723      7.238
REMARK  Name = 
REMARK  7 active torsions:
REMARK  status: ('A' for Active; 'I' for Inactive)
REMARK    1  A    between atoms: C_2  and  C_4
REMARK    2  A    between atoms: C_7  and  C_8
REMARK    3  A    between atoms: C_8  and  O_9
REMARK    4  A    between atoms: O_9  and  C_10
REMARK    5  A    between atoms: C_18  and  C_19
REMARK    6  A    between atoms: C_19  and  C_20
REMARK    7  A    between atoms: C_20  and  O_22
REMARK                            x       y       z     vdW  Elec       q    Type
REMARK                         _______ _______ _______ _____ _____    ______ ____
ROOT
ATOM      1  C   UNL     1       5.416   4.928  19.102  0.00  0.00    +0.000 A 
ATOM      2  C   UNL     1       6.742   5.380  19.077  0.00  0.00    +0.000 A 
ATOM      3  C   UNL     1       7.511   5.348  17.866  0.00  0.00    +0.000 A 
ATOM      4  C   UNL     1       6.925   4.916  16.667  0.00  0.00    +0.000 A 
ATOM      5  C   UNL     1       5.606   4.426  16.759  0.00  0.00    +0.000 A 
ATOM      6  C   UNL     1       4.908   4.345  17.967  0.00  0.00    +0.000 A 
ATOM      7  C   UNL     1       4.797   4.087  15.556  0.00  0.00    +0.000 C 
ATOM      8  C   UNL     1       5.381   4.881  14.434  0.00  0.00    +0.000 C 
ATOM      9  C   UNL     1       6.816   4.371  14.357  0.00  0.00    +0.000 C 
ATOM     10  O   UNL     1       7.576   5.044  15.414  0.00  0.00    +0.000 OA
ENDROOT
BRANCH   1  11
ATOM     11  O   UNL     1       4.507   5.020  20.134  0.00  0.00    +0.000 OA
BRANCH  11  12
ATOM     12  C   UNL     1       3.149   5.129  19.681  0.00  0.00    +0.000 C 
BRANCH  12  16
ATOM     13  C   UNL     1       1.415   9.106  19.040  0.00  0.00    +0.000 A 
ATOM     14  C   UNL     1       2.091   8.474  17.980  0.00  0.00    +0.000 A 
ATOM     15  C   UNL     1       2.693   7.205  18.150  0.00  0.00    +0.000 A 
ATOM     16  C   UNL     1       2.608   6.532  19.377  0.00  0.00    +0.000 A 
ATOM     17  C   UNL     1       1.955   7.199  20.435  0.00  0.00    +0.000 A 
ATOM     18  C   UNL     1       1.370   8.463  20.276  0.00  0.00    +0.000 A 
BRANCH  13  20
ATOM     19  N   UNL     1      -0.164  10.527  17.897  0.00  0.00    +0.000 NA
ATOM     20  C   UNL     1       0.709  10.408  18.823  0.00  0.00    +0.000 C 
ATOM     21  N   UNL     1       0.964  11.493  19.622  0.00  0.00    +0.000 N 
ATOM     22  H   UNL     1      -0.615  11.442  17.909  0.00  0.00    +0.000 HD
ATOM     23  H   UNL     1       0.685  12.388  19.259  0.00  0.00    +0.000 HD
ATOM     24  H   UNL     1       1.887  11.512  20.038  0.00  0.00    +0.000 HD
ENDBRANCH  13  20
ENDBRANCH  12  16
ENDBRANCH  11  12
ENDBRANCH   1  11
BRANCH   9  25
ATOM     25  C   UNL     1       7.168   4.388  12.853  0.00  0.00    +0.000 C 
BRANCH  25  26
ATOM     26  C   UNL     1       6.331   3.299  12.153  0.00  0.00    +0.000 C 
ATOM     27  O   UNL     1       5.132   3.398  11.928  0.00  0.00    +0.000 OA
BRANCH  26  28
ATOM     28  O   UNL     1       6.995   2.159  11.851  0.00  0.00    +0.000 OA
ATOM     29  H   UNL     1       7.928   2.103  12.129  0.00  0.00    +0.000 HD
ENDBRANCH  26  28
ENDBRANCH  25  26
ENDBRANCH   9  25
TORSDOF 7
ENDMDL
MODEL 7
REMARK VINA RESULT:      -8.0      7.580      9.351
REMARK  Name = 
REMARK  7 active torsions:
REMARK  status: ('A' for Active; 'I' for Inactive)
REMARK    1  A    between atoms: C_2  and  C_4
REMARK    2  A    between atoms: C_7  and  C_8
REMARK    3  A    between atoms: C_8  and  O_9
REMARK    4  A    between atoms: O_9  and  C_10
REMARK    5  A    between atoms: C_18  and  C_19
REMARK    6  A    between atoms: C_19  and  C_20
REMARK    7  A    between atoms: C_20  and  O_22
REMARK                            x       y       z     vdW  Elec       q    Type
REMARK                         _______ _______ _______ _____ _____    ______ ____
ROOT
ATOM      1  C   UNL     1       1.719   8.675  19.547  0.00  0.00    +0.000 A 
ATOM      2  C   UNL     1       2.183   8.558  18.230  0.00  0.00    +0.000 A 
ATOM      3  C   UNL     1       2.573   7.284  17.695  0.00  0.00    +0.000 A 
ATOM      4  C   UNL     1       2.441   6.121  18.468  0.00  0.00    +0.000 A 
ATOM      5  C   UNL     1       2.017   6.303  19.800  0.00  0.00    +0.000 A 
ATOM      6  C   UNL     1       1.759   7.562  20.350  0.00  0.00    +0.000 A 
ATOM      7  C   UNL     1       1.675   5.159  20.690  0.00  0.00    +0.000 C 
ATOM      8  C   UNL     1       1.313   4.030  19.782  0.00  0.00    +0.000 C 
ATOM      9  C   UNL     1       2.591   3.806  18.980  0.00  0.00    +0.000 C 
ATOM     10  O   UNL     1       2.630   4.824  17.927  0.00  0.00    +0.000 OA
ENDROOT
BRANCH   1  11
ATOM     11  O   UNL     1       1.179   9.784  20.162  0.00  0.00    +0.000 OA
BRANCH  11  12
ATOM     12  C   UNL     1       0.768  10.799  19.234  0.00  0.00    +0.000 C 
BRANCH  12  16
ATOM     13  C   UNL     1      -3.461  11.024  18.092  0.00  0.00    +0.000 A 
ATOM     14  C   UNL     1      -2.977  11.878  19.099  0.00  0.00    +0.000 A 
ATOM     15  C   UNL     1      -1.627  11.820  19.522  0.00  0.00    +0.000 A 
ATOM     16  C   UNL     1      -0.731  10.922  18.926  0.00  0.00    +0.000 A 
ATOM     17  C   UNL     1      -1.246  10.051  17.943  0.00  0.00    +0.000 A 
ATOM     18  C   UNL     1      -2.585  10.096  17.531  0.00  0.00    +0.000 A 
BRANCH  13  20
ATOM     19  N   UNL     1      -5.097  11.546  16.399  0.00  0.00    +0.000 NA
ATOM     20  C   UNL     1      -4.866  11.155  17.594  0.00  0.00    +0.000 C 
ATOM     21  N   UNL     1      -5.934  10.840  18.395  0.00  0.00    +0.000 N 
ATOM     22  H   UNL     1      -6.092  11.521  16.172  0.00  0.00    +0.000 HD
ATOM     23  H   UNL     1      -6.826  11.211  18.115  0.00  0.00    +0.000 HD
ATOM     24  H   UNL     1      -5.767  10.937  19.389  0.00  0.00    +0.000 HD
ENDBRANCH  13  20
ENDBRANCH  12  16
ENDBRANCH  11  12
ENDBRANCH   1  11
BRANCH   9  25
ATOM     25  C   UNL     1       2.660   2.280  18.752  0.00  0.00    +0.000 C 
BRANCH  25  26
ATOM     26  C   UNL     1       4.047   1.789  19.210  0.00  0.00    +0.000 C 
ATOM     27  O   UNL     1       4.787   2.427  19.947  0.00  0.00    +0.000 OA
BRANCH  26  28
ATOM     28  O   UNL     1       4.450   0.609  18.685  0.00  0.00    +0.000 OA
ATOM     29  H   UNL     1       5.356   0.316  18.894  0.00  0.00    +0.000 HD
ENDBRANCH  26  28
ENDBRANCH  25  26
ENDBRANCH   9  25
TORSDOF 7
ENDMDL
MODEL 8
REMARK VINA RESULT:      -7.9      8.422     10.619
REMARK  Name = 
REMARK  7 active torsions:
REMARK  status: ('A' for Active; 'I' for Inactive)
REMARK    1  A    between atoms: C_2  and  C_4
REMARK    2  A    between atoms: C_7  and  C_8
REMARK    3  A    between atoms: C_8  and  O_9
REMARK    4  A    between atoms: O_9  and  C_10
REMARK    5  A    between atoms: C_18  and  C_19
REMARK    6  A    between atoms: C_19  and  C_20
REMARK    7  A    between atoms: C_20  and  O_22
REMARK                            x       y       z     vdW  Elec       q    Type
REMARK                         _______ _______ _______ _____ _____    ______ ____
ROOT
ATOM      1  C   UNL     1       0.763   9.719  19.376  0.00  0.00    +0.000 A 
ATOM      2  C   UNL     1       0.253  10.589  20.349  0.00  0.00    +0.000 A 
ATOM      3  C   UNL     1      -0.971  11.307  20.130  0.00  0.00    +0.000 A 
ATOM      4  C   UNL     1      -1.708  11.105  18.953  0.00  0.00    +0.000 A 
ATOM      5  C   UNL     1      -1.124  10.259  17.989  0.00  0.00    +0.000 A 
ATOM      6  C   UNL     1       0.128   9.662  18.160  0.00  0.00    +0.000 A 
ATOM      7  C   UNL     1      -1.855   9.820  16.768  0.00  0.00    +0.000 C 
ATOM      8  C   UNL     1      -3.307   9.931  17.099  0.00  0.00    +0.000 C 
ATOM      9  C   UNL     1      -3.481  11.415  17.403  0.00  0.00    +0.000 C 
ATOM     10  O   UNL     1      -3.009  11.640  18.771  0.00  0.00    +0.000 OA
ENDROOT
BRANCH   1  11
ATOM     11  O   UNL     1       1.835   8.859  19.485  0.00  0.00    +0.000 OA
BRANCH  11  12
ATOM     12  C   UNL     1       2.219   8.277  18.230  0.00  0.00    +0.000 C 
BRANCH  12  16
ATOM     13  C   UNL     1       3.637   4.139  18.547  0.00  0.00    +0.000 A 
ATOM     14  C   UNL     1       4.222   4.992  17.594  0.00  0.00    +0.000 A 
ATOM     15  C   UNL     1       3.776   6.326  17.435  0.00  0.00    +0.000 A 
ATOM     16  C   UNL     1       2.753   6.838  18.244  0.00  0.00    +0.000 A 
ATOM     17  C   UNL     1       2.157   5.954  19.169  0.00  0.00    +0.000 A 
ATOM     18  C   UNL     1       2.586   4.628  19.320  0.00  0.00    +0.000 A 
BRANCH  13  20
ATOM     19  N   UNL     1       3.925   1.825  17.929  0.00  0.00    +0.000 NA
ATOM     20  C   UNL     1       4.176   2.759  18.765  0.00  0.00    +0.000 C 
ATOM     21  N   UNL     1       4.963   2.470  19.851  0.00  0.00    +0.000 N 
ATOM     22  H   UNL     1       4.412   0.959  18.164  0.00  0.00    +0.000 HD
ATOM     23  H   UNL     1       5.051   1.497  20.090  0.00  0.00    +0.000 HD
ATOM     24  H   UNL     1       4.810   3.058  20.660  0.00  0.00    +0.000 HD
ENDBRANCH  13  20
ENDBRANCH  12  16
ENDBRANCH  11  12
ENDBRANCH   1  11
BRANCH   9  25
ATOM     25  C   UNL     1      -4.888  11.771  16.872  0.00  0.00    +0.000 C 
BRANCH  25  26
ATOM     26  C   UNL     1      -5.782  12.116  18.079  0.00  0.00    +0.000 C 
ATOM     27  O   UNL     1      -6.795  11.497  18.375  0.00  0.00    +0.000 OA
BRANCH  26  28
ATOM     28  O   UNL     1      -5.419  13.216  18.777  0.00  0.00    +0.000 OA
ATOM     29  H   UNL     1      -6.051  13.548  19.441  0.00  0.00    +0.000 HD
ENDBRANCH  26  28
ENDBRANCH  25  26
ENDBRANCH   9  25
TORSDOF 7
ENDMDL
MODEL 9
REMARK VINA RESULT:      -7.9      7.115      9.017
REMARK  Name = 
REMARK  7 active torsions:
REMARK  status: ('A' for Active; 'I' for Inactive)
REMARK    1  A    between atoms: C_2  and  C_4
REMARK    2  A    between atoms: C_7  and  C_8
REMARK    3  A    between atoms: C_8  and  O_9
REMARK    4  A    between atoms: O_9  and  C_10
REMARK    5  A    between atoms: C_18  and  C_19
REMARK    6  A    between atoms: C_19  and  C_20
REMARK    7  A    between atoms: C_20  and  O_22
REMARK                            x       y       z     vdW  Elec       q    Type
REMARK                         _______ _______ _______ _____ _____    ______ ____
ROOT
ATOM      1  C   UNL     1       1.950   7.564  19.607  0.00  0.00    +0.000 A 
ATOM      2  C   UNL     1       2.099   6.369  20.323  0.00  0.00    +0.000 A 
ATOM      3  C   UNL     1       3.008   5.349  19.879  0.00  0.00    +0.000 A 
ATOM      4  C   UNL     1       3.808   5.561  18.746  0.00  0.00    +0.000 A 
ATOM      5  C   UNL     1       3.582   6.758  18.037  0.00  0.00    +0.000 A 
ATOM      6  C   UNL     1       2.607   7.687  18.407  0.00  0.00    +0.000 A 
ATOM      7  C   UNL     1       4.459   7.197  16.916  0.00  0.00    +0.000 C 
ATOM      8  C   UNL     1       5.773   6.521  17.137  0.00  0.00    +0.000 C 
ATOM      9  C   UNL     1       5.416   5.040  17.077  0.00  0.00    +0.000 C 
ATOM     10  O   UNL     1       4.851   4.673  18.378  0.00  0.00    +0.000 OA
ENDROOT
BRANCH   1  11
ATOM     11  O   UNL     1       1.237   8.687  19.968  0.00  0.00    +0.000 OA
BRANCH  11  12
ATOM     12  C   UNL     1       1.164   9.668  18.923  0.00  0.00    +0.000 C 
BRANCH  12  16
ATOM     13  C   UNL     1      -2.845  11.199  18.016  0.00  0.00    +0.000 A 
ATOM     14  C   UNL     1      -2.299  10.187  17.206  0.00  0.00    +0.000 A 
ATOM     15  C   UNL     1      -0.997   9.684  17.442  0.00  0.00    +0.000 A 
ATOM     16  C   UNL     1      -0.228  10.168  18.509  0.00  0.00    +0.000 A 
ATOM     17  C   UNL     1      -0.781  11.206  19.287  0.00  0.00    +0.000 A 
ATOM     18  C   UNL     1      -2.065  11.717  19.048  0.00  0.00    +0.000 A 
BRANCH  13  20
ATOM     19  N   UNL     1      -4.798  12.473  18.634  0.00  0.00    +0.000 NA
ATOM     20  C   UNL     1      -4.255  11.660  17.810  0.00  0.00    +0.000 C 
ATOM     21  N   UNL     1      -4.986  11.240  16.729  0.00  0.00    +0.000 N 
ATOM     22  H   UNL     1      -5.731  12.756  18.334  0.00  0.00    +0.000 HD
ATOM     23  H   UNL     1      -5.984  11.349  16.797  0.00  0.00    +0.000 HD
ATOM     24  H   UNL     1      -4.717  10.340  16.352  0.00  0.00    +0.000 HD
ENDBRANCH  13  20
ENDBRANCH  12  16
ENDBRANCH  11  12
ENDBRANCH   1  11
BRANCH   9  25
ATOM     25  C   UNL     1       6.632   4.362  16.406  0.00  0.00    +0.000 C 
BRANCH  25  26
ATOM     26  C   UNL     1       6.590   4.684  14.900  0.00  0.00    +0.000 C 
ATOM     27  O   UNL     1       5.691   4.326  14.150  0.00  0.00    +0.000 OA
BRANCH  26  28
ATOM     28  O   UNL     1       7.666   5.346  14.416  0.00  0.00    +0.000 OA
ATOM     29  H   UNL     1       8.131   4.943  13.659  0.00  0.00    +0.000 HD
ENDBRANCH  26  28
ENDBRANCH  25  26
ENDBRANCH   9  25
TORSDOF 7
ENDMDL
