MODEL 1
REMARK VINA RESULT:      -7.7      0.000      0.000
REMARK  Name = 
REMARK  4 active torsions:
REMARK  status: ('A' for Active; 'I' for Inactive)
REMARK    1  A    between atoms: N_1  and  C_2
REMARK    2  A    between atoms: C_2  and  C_3
REMARK    3  A    between atoms: C_2  and  C_12
REMARK    4  A    between atoms: C_3  and  C_4
REMARK                            x       y       z     vdW  Elec       q    Type
REMARK                         _______ _______ _______ _____ _____    ______ ____
ROOT
ATOM      1  C   UNL     1       2.873   4.199  19.059  0.00  0.00    +0.000 C 
ENDROOT
BRANCH   1   2
ATOM      2  C   UNL     1       2.457   5.314  20.069  0.00  0.00    +0.000 C 
ATOM      3  O   UNL     1       2.271   5.048  21.260  0.00  0.00    +0.000 OA
ATOM      4  N   UNL     1       2.311   6.623  19.607  0.00  0.00    +0.000 N 
ATOM      5  C   UNL     1       2.491   7.050  18.215  0.00  0.00    +0.000 C 
ATOM      6  C   UNL     1       2.598   8.563  18.011  0.00  0.00    +0.000 C 
ATOM      7  C   UNL     1       1.446   9.236  18.704  0.00  0.00    +0.000 A 
ATOM      8  C   UNL     1       0.747  10.301  18.132  0.00  0.00    +0.000 A 
ATOM      9  C   UNL     1      -0.314  10.886  18.821  0.00  0.00    +0.000 A 
ATOM     10  C   UNL     1      -0.667  10.422  20.089  0.00  0.00    +0.000 A 
ATOM     11  C   UNL     1       0.036   9.367  20.670  0.00  0.00    +0.000 A 
ATOM     12  C   UNL     1       1.087   8.758  19.976  0.00  0.00    +0.000 A 
ATOM     13  C   UNL     1       1.882   7.631  20.588  0.00  0.00    +0.000 C 
ENDBRANCH   1   2
BRANCH   1  14
ATOM     14  N   UNL     1       2.216   2.910  19.386  0.00  0.00    +0.000 NA
ATOM     15  H   UNL     1       2.257   2.729  20.383  0.00  0.00    +0.000 HD
ATOM     16  H   UNL     1       2.726   2.154  18.926  0.00  0.00    +0.000 HD
ENDBRANCH   1  14
BRANCH   1  17
ATOM     17  C   UNL     1       4.401   3.943  19.092  0.00  0.00    +0.000 C 
BRANCH  17  18
ATOM     18  C   UNL     1       5.194   4.214  17.824  0.00  0.00    +0.000 A 
ATOM     19  C   UNL     1       4.774   3.702  16.585  0.00  0.00    +0.000 A 
ATOM     20  C   UNL     1       5.464   4.008  15.408  0.00  0.00    +0.000 A 
ATOM     21  C   UNL     1       6.599   4.807  15.460  0.00  0.00    +0.000 A 
ATOM     22 CL   UNL     1       7.421   5.217  14.006  0.00  0.00    +0.000 Cl
ATOM     23  C   UNL     1       7.075   5.274  16.680  0.00  0.00    +0.000 A 
ATOM     24  C   UNL     1       6.385   4.967  17.856  0.00  0.00    +0.000 A 
ATOM     25 CL   UNL     1       7.077   5.541  19.335  0.00  0.00    +0.000 Cl
ENDBRANCH  17  18
ENDBRANCH   1  17
TORSDOF 4
ENDMDL
MODEL 2
REMARK VINA RESULT:      -7.5      1.018      1.187
REMARK  Name = 
REMARK  4 active torsions:
REMARK  status: ('A' for Active; 'I' for Inactive)
REMARK    1  A    between atoms: N_1  and  C_2
REMARK    2  A    between atoms: C_2  and  C_3
REMARK    3  A    between atoms: C_2  and  C_12
REMARK    4  A    between atoms: C_3  and  C_4
REMARK                            x       y       z     vdW  Elec       q    Type
REMARK                         _______ _______ _______ _____ _____    ______ ____
ROOT
ATOM      1  C   UNL     1       2.997   4.645  17.632  0.00  0.00    +0.000 C 
ENDROOT
BRANCH   1   2
ATOM      2  C   UNL     1       2.776   5.390  18.986  0.00  0.00    +0.000 C 
ATOM      3  O   UNL     1       2.896   4.794  20.061  0.00  0.00    +0.000 OA
ATOM      4  N   UNL     1       2.454   6.748  18.965  0.00  0.00    +0.000 N 
ATOM      5  C   UNL     1       2.272   7.551  17.751  0.00  0.00    +0.000 C 
ATOM      6  C   UNL     1       2.246   9.065  17.975  0.00  0.00    +0.000 C 
ATOM      7  C   UNL     1       1.259   9.385  19.063  0.00  0.00    +0.000 A 
ATOM      8  C   UNL     1       0.387  10.473  18.987  0.00  0.00    +0.000 A 
ATOM      9  C   UNL     1      -0.508  10.721  20.027  0.00  0.00    +0.000 A 
ATOM     10  C   UNL     1      -0.522   9.895  21.152  0.00  0.00    +0.000 A 
ATOM     11  C   UNL     1       0.356   8.814  21.238  0.00  0.00    +0.000 A 
ATOM     12  C   UNL     1       1.241   8.544  20.189  0.00  0.00    +0.000 A 
ATOM     13  C   UNL     1       2.218   7.397  20.263  0.00  0.00    +0.000 C 
ENDBRANCH   1   2
BRANCH   1  14
ATOM     14  N   UNL     1       1.957   3.611  17.416  0.00  0.00    +0.000 NA
ATOM     15  H   UNL     1       1.146   4.008  16.954  0.00  0.00    +0.000 HD
ATOM     16  H   UNL     1       1.642   3.265  18.324  0.00  0.00    +0.000 HD
ENDBRANCH   1  14
BRANCH   1  17
ATOM     17  C   UNL     1       4.365   3.917  17.601  0.00  0.00    +0.000 C 
BRANCH  17  18
ATOM     18  C   UNL     1       5.294   4.202  16.432  0.00  0.00    +0.000 A 
ATOM     19  C   UNL     1       4.899   3.929  15.112  0.00  0.00    +0.000 A 
ATOM     20  C   UNL     1       5.726   4.255  14.032  0.00  0.00    +0.000 A 
ATOM     21  C   UNL     1       6.968   4.833  14.261  0.00  0.00    +0.000 A 
ATOM     22 CL   UNL     1       7.964   5.271  12.929  0.00  0.00    +0.000 Cl
ATOM     23  C   UNL     1       7.412   5.054  15.560  0.00  0.00    +0.000 A 
ATOM     24  C   UNL     1       6.586   4.728  16.639  0.00  0.00    +0.000 A 
ATOM     25 CL   UNL     1       7.237   4.984  18.221  0.00  0.00    +0.000 Cl
ENDBRANCH  17  18
ENDBRANCH   1  17
TORSDOF 4
ENDMDL
MODEL 3
REMARK VINA RESULT:      -7.5      1.296      2.189
REMARK  Name = 
REMARK  4 active torsions:
REMARK  status: ('A' for Active; 'I' for Inactive)
REMARK    1  A    between atoms: N_1  and  C_2
REMARK    2  A    between atoms: C_2  and  C_3
REMARK    3  A    between atoms: C_2  and  C_12
REMARK    4  A    between atoms: C_3  and  C_4
REMARK                            x       y       z     vdW  Elec       q    Type
REMARK                         _______ _______ _______ _____ _____    ______ ____
ROOT
ATOM      1  C   UNL     1       2.522   3.463  17.947  0.00  0.00    +0.000 C 
ENDROOT
BRANCH   1   2
ATOM      2  C   UNL     1       2.367   4.292  19.260  0.00  0.00    +0.000 C 
ATOM      3  O   UNL     1       2.272   3.728  20.354  0.00  0.00    +0.000 OA
ATOM      4  N   UNL     1       2.350   5.685  19.181  0.00  0.00    +0.000 N 
ATOM      5  C   UNL     1       2.439   6.459  17.938  0.00  0.00    +0.000 C 
ATOM      6  C   UNL     1       2.726   7.951  18.124  0.00  0.00    +0.000 C 
ATOM      7  C   UNL     1       1.753   8.519  19.119  0.00  0.00    +0.000 A 
ATOM      8  C   UNL     1       1.147   9.765  18.947  0.00  0.00    +0.000 A 
ATOM      9  C   UNL     1       0.251  10.241  19.903  0.00  0.00    +0.000 A 
ATOM     10  C   UNL     1      -0.027   9.483  21.042  0.00  0.00    +0.000 A 
ATOM     11  C   UNL     1       0.586   8.244  21.225  0.00  0.00    +0.000 A 
ATOM     12  C   UNL     1       1.468   7.748  20.259  0.00  0.00    +0.000 A 
ATOM     13  C   UNL     1       2.164   6.421  20.440  0.00  0.00    +0.000 C 
ENDBRANCH   1   2
BRANCH   1  14
ATOM     14  N   UNL     1       1.783   2.180  18.034  0.00  0.00    +0.000 NA
ATOM     15  H   UNL     1       1.759   1.843  18.990  0.00  0.00    +0.000 HD
ATOM     16  H   UNL     1       2.277   1.476  17.483  0.00  0.00    +0.000 HD
ENDBRANCH   1  14
BRANCH   1  17
ATOM     17  C   UNL     1       4.005   3.106  17.672  0.00  0.00    +0.000 C 
BRANCH  17  18
ATOM     18  C   UNL     1       5.046   4.196  17.871  0.00  0.00    +0.000 A 
ATOM     19  C   UNL     1       5.477   4.558  19.157  0.00  0.00    +0.000 A 
ATOM     20  C   UNL     1       6.483   5.512  19.338  0.00  0.00    +0.000 A 
ATOM     21  C   UNL     1       7.051   6.135  18.233  0.00  0.00    +0.000 A 
ATOM     22 CL   UNL     1       8.318   7.277  18.456  0.00  0.00    +0.000 Cl
ATOM     23  C   UNL     1       6.598   5.844  16.952  0.00  0.00    +0.000 A 
ATOM     24  C   UNL     1       5.592   4.891  16.773  0.00  0.00    +0.000 A 
ATOM     25 CL   UNL     1       5.049   4.630  15.150  0.00  0.00    +0.000 Cl
ENDBRANCH  17  18
ENDBRANCH   1  17
TORSDOF 4
ENDMDL
MODEL 4
REMARK VINA RESULT:      -7.3      1.596      2.458
REMARK  Name = 
REMARK  4 active torsions:
REMARK  status: ('A' for Active; 'I' for Inactive)
REMARK    1  A    between atoms: N_1  and  C_2
REMARK    2  A    between atoms: C_2  and  C_3
REMARK    3  A    between atoms: C_2  and  C_12
REMARK    4  A    between atoms: C_3  and  C_4
REMARK                            x       y       z     vdW  Elec       q    Type
REMARK                         _______ _______ _______ _____ _____    ______ ____
ROOT
ATOM      1  C   UNL     1       3.391   4.267  17.531  0.00  0.00    +0.000 C 
ENDROOT
BRANCH   1   2
ATOM      2  C   UNL     1       3.157   4.957  18.912  0.00  0.00    +0.000 C 
ATOM      3  O   UNL     1       3.317   4.331  19.964  0.00  0.00    +0.000 OA
ATOM      4  N   UNL     1       2.775   6.299  18.941  0.00  0.00    +0.000 N 
ATOM      5  C   UNL     1       2.541   7.133  17.757  0.00  0.00    +0.000 C 
ATOM      6  C   UNL     1       2.452   8.636  18.033  0.00  0.00    +0.000 C 
ATOM      7  C   UNL     1       1.468   8.876  19.143  0.00  0.00    +0.000 A 
ATOM      8  C   UNL     1       0.549   9.927  19.115  0.00  0.00    +0.000 A 
ATOM      9  C   UNL     1      -0.342  10.100  20.174  0.00  0.00    +0.000 A 
ATOM     10  C   UNL     1      -0.303   9.237  21.270  0.00  0.00    +0.000 A 
ATOM     11  C   UNL     1       0.621   8.194  21.309  0.00  0.00    +0.000 A 
ATOM     12  C   UNL     1       1.503   7.998  20.240  0.00  0.00    +0.000 A 
ATOM     13  C   UNL     1       2.530   6.893  20.263  0.00  0.00    +0.000 C 
ENDBRANCH   1   2
BRANCH   1  14
ATOM     14  N   UNL     1       2.772   2.920  17.495  0.00  0.00    +0.000 NA
ATOM     15  H   UNL     1       2.101   2.813  18.247  0.00  0.00    +0.000 HD
ATOM     16  H   UNL     1       3.499   2.219  17.644  0.00  0.00    +0.000 HD
ENDBRANCH   1  14
BRANCH   1  17
ATOM     17  C   UNL     1       4.901   4.073  17.242  0.00  0.00    +0.000 C 
BRANCH  17  18
ATOM     18  C   UNL     1       5.846   5.205  17.614  0.00  0.00    +0.000 A 
ATOM     19  C   UNL     1       6.596   5.160  18.801  0.00  0.00    +0.000 A 
ATOM     20  C   UNL     1       7.515   6.167  19.109  0.00  0.00    +0.000 A 
ATOM     21  C   UNL     1       7.675   7.245  18.248  0.00  0.00    +0.000 A 
ATOM     22 CL   UNL     1       8.837   8.461  18.609  0.00  0.00    +0.000 Cl
ATOM     23  C   UNL     1       6.900   7.348  17.099  0.00  0.00    +0.000 A 
ATOM     24  C   UNL     1       5.981   6.342  16.791  0.00  0.00    +0.000 A 
ATOM     25 CL   UNL     1       5.017   6.576  15.373  0.00  0.00    +0.000 Cl
ENDBRANCH  17  18
ENDBRANCH   1  17
TORSDOF 4
ENDMDL
MODEL 5
REMARK VINA RESULT:      -7.3      1.529      1.879
REMARK  Name = 
REMARK  4 active torsions:
REMARK  status: ('A' for Active; 'I' for Inactive)
REMARK    1  A    between atoms: N_1  and  C_2
REMARK    2  A    between atoms: C_2  and  C_3
REMARK    3  A    between atoms: C_2  and  C_12
REMARK    4  A    between atoms: C_3  and  C_4
REMARK                            x       y       z     vdW  Elec       q    Type
REMARK                         _______ _______ _______ _____ _____    ______ ____
ROOT
ATOM      1  C   UNL     1       1.697   3.793  17.978  0.00  0.00    +0.000 C 
ENDROOT
BRANCH   1   2
ATOM      2  C   UNL     1       1.868   4.640  19.278  0.00  0.00    +0.000 C 
ATOM      3  O   UNL     1       1.929   4.094  20.384  0.00  0.00    +0.000 OA
ATOM      4  N   UNL     1       1.965   6.029  19.171  0.00  0.00    +0.000 N 
ATOM      5  C   UNL     1       1.891   6.784  17.916  0.00  0.00    +0.000 C 
ATOM      6  C   UNL     1       2.344   8.242  18.011  0.00  0.00    +0.000 C 
ATOM      7  C   UNL     1       1.632   8.906  19.157  0.00  0.00    +0.000 A 
ATOM      8  C   UNL     1       1.122  10.203  19.071  0.00  0.00    +0.000 A 
ATOM      9  C   UNL     1       0.470  10.767  20.167  0.00  0.00    +0.000 A 
ATOM     10  C   UNL     1       0.342  10.046  21.354  0.00  0.00    +0.000 A 
ATOM     11  C   UNL     1       0.860   8.754  21.449  0.00  0.00    +0.000 A 
ATOM     12  C   UNL     1       1.496   8.171  20.347  0.00  0.00    +0.000 A 
ATOM     13  C   UNL     1       2.088   6.786  20.426  0.00  0.00    +0.000 C 
ENDBRANCH   1   2
BRANCH   1  14
ATOM     14  N   UNL     1       0.823   2.619  18.217  0.00  0.00    +0.000 NA
ATOM     15  H   UNL     1       1.211   1.788  17.784  0.00  0.00    +0.000 HD
ATOM     16  H   UNL     1      -0.084   2.787  17.778  0.00  0.00    +0.000 HD
ENDBRANCH   1  14
BRANCH   1  17
ATOM     17  C   UNL     1       3.056   3.244  17.475  0.00  0.00    +0.000 C 
BRANCH  17  18
ATOM     18  C   UNL     1       4.273   4.146  17.594  0.00  0.00    +0.000 A 
ATOM     19  C   UNL     1       4.580   5.083  16.595  0.00  0.00    +0.000 A 
ATOM     20  C   UNL     1       5.660   5.960  16.736  0.00  0.00    +0.000 A 
ATOM     21  C   UNL     1       6.463   5.891  17.868  0.00  0.00    +0.000 A 
ATOM     22 CL   UNL     1       7.765   6.999  18.059  0.00  0.00    +0.000 Cl
ATOM     23  C   UNL     1       6.222   4.930  18.843  0.00  0.00    +0.000 A 
ATOM     24  C   UNL     1       5.143   4.054  18.700  0.00  0.00    +0.000 A 
ATOM     25 CL   UNL     1       4.949   2.853  19.932  0.00  0.00    +0.000 Cl
ENDBRANCH  17  18
ENDBRANCH   1  17
TORSDOF 4
ENDMDL
MODEL 6
REMARK VINA RESULT:      -7.2      1.225      1.576
REMARK  Name = 
REMARK  4 active torsions:
REMARK  status: ('A' for Active; 'I' for Inactive)
REMARK    1  A    between atoms: N_1  and  C_2
REMARK    2  A    between atoms: C_2  and  C_3
REMARK    3  A    between atoms: C_2  and  C_12
REMARK    4  A    between atoms: C_3  and  C_4
REMARK                            x       y       z     vdW  Elec       q    Type
REMARK                         _______ _______ _______ _____ _____    ______ ____
ROOT
ATOM      1  C   UNL     1       2.811   3.804  19.453  0.00  0.00    +0.000 C 
ENDROOT
BRANCH   1   2
ATOM      2  C   UNL     1       2.466   5.027  20.360  0.00  0.00    +0.000 C 
ATOM      3  O   UNL     1       2.288   4.883  21.573  0.00  0.00    +0.000 OA
ATOM      4  N   UNL     1       2.374   6.293  19.779  0.00  0.00    +0.000 N 
ATOM      5  C   UNL     1       2.549   6.579  18.351  0.00  0.00    +0.000 C 
ATOM      6  C   UNL     1       2.724   8.060  18.005  0.00  0.00    +0.000 C 
ATOM      7  C   UNL     1       1.618   8.850  18.646  0.00  0.00    +0.000 A 
ATOM      8  C   UNL     1       0.960   9.890  17.986  0.00  0.00    +0.000 A 
ATOM      9  C   UNL     1      -0.060  10.588  18.631  0.00  0.00    +0.000 A 
ATOM     10  C   UNL     1      -0.413  10.261  19.941  0.00  0.00    +0.000 A 
ATOM     11  C   UNL     1       0.249   9.232  20.610  0.00  0.00    +0.000 A 
ATOM     12  C   UNL     1       1.258   8.511  19.962  0.00  0.00    +0.000 A 
ATOM     13  C   UNL     1       2.009   7.408  20.666  0.00  0.00    +0.000 C 
ENDBRANCH   1   2
BRANCH   1  14
ATOM     14  N   UNL     1       2.206   2.558  19.984  0.00  0.00    +0.000 NA
ATOM     15  H   UNL     1       1.452   2.771  20.627  0.00  0.00    +0.000 HD
ATOM     16  H   UNL     1       2.914   2.048  20.515  0.00  0.00    +0.000 HD
ENDBRANCH   1  14
BRANCH   1  17
ATOM     17  C   UNL     1       4.340   3.563  19.382  0.00  0.00    +0.000 C 
BRANCH  17  18
ATOM     18  C   UNL     1       5.067   3.985  18.115  0.00  0.00    +0.000 A 
ATOM     19  C   UNL     1       6.344   4.567  18.173  0.00  0.00    +0.000 A 
ATOM     20  C   UNL     1       7.040   4.892  17.005  0.00  0.00    +0.000 A 
ATOM     21  C   UNL     1       6.456   4.664  15.765  0.00  0.00    +0.000 A 
ATOM     22 CL   UNL     1       7.333   5.026  14.330  0.00  0.00    +0.000 Cl
ATOM     23  C   UNL     1       5.168   4.150  15.679  0.00  0.00    +0.000 A 
ATOM     24  C   UNL     1       4.472   3.826  16.847  0.00  0.00    +0.000 A 
ATOM     25 CL   UNL     1       2.854   3.243  16.651  0.00  0.00    +0.000 Cl
ENDBRANCH  17  18
ENDBRANCH   1  17
TORSDOF 4
ENDMDL
MODEL 7
REMARK VINA RESULT:      -7.1      3.644      5.076
REMARK  Name = 
REMARK  4 active torsions:
REMARK  status: ('A' for Active; 'I' for Inactive)
REMARK    1  A    between atoms: N_1  and  C_2
REMARK    2  A    between atoms: C_2  and  C_3
REMARK    3  A    between atoms: C_2  and  C_12
REMARK    4  A    between atoms: C_3  and  C_4
REMARK                            x       y       z     vdW  Elec       q    Type
REMARK                         _______ _______ _______ _____ _____    ______ ____
ROOT
ATOM      1  C   UNL     1       7.129   4.333  17.018  0.00  0.00    +0.000 C 
ENDROOT
BRANCH   1   2
ATOM      2  C   UNL     1       6.068   5.152  17.819  0.00  0.00    +0.000 C 
ATOM      3  O   UNL     1       6.384   6.194  18.401  0.00  0.00    +0.000 OA
ATOM      4  N   UNL     1       4.750   4.694  17.857  0.00  0.00    +0.000 N 
ATOM      5  C   UNL     1       4.266   3.465  17.218  0.00  0.00    +0.000 C 
ATOM      6  C   UNL     1       2.744   3.343  17.121  0.00  0.00    +0.000 C 
ATOM      7  C   UNL     1       2.142   3.595  18.476  0.00  0.00    +0.000 A 
ATOM      8  C   UNL     1       1.085   2.833  18.979  0.00  0.00    +0.000 A 
ATOM      9  C   UNL     1       0.568   3.113  20.243  0.00  0.00    +0.000 A 
ATOM     10  C   UNL     1       1.091   4.163  20.999  0.00  0.00    +0.000 A 
ATOM     11  C   UNL     1       2.138   4.935  20.495  0.00  0.00    +0.000 A 
ATOM     12  C   UNL     1       2.679   4.647  19.238  0.00  0.00    +0.000 A 
ATOM     13  C   UNL     1       3.796   5.478  18.656  0.00  0.00    +0.000 C 
ENDBRANCH   1   2
BRANCH   1  14
ATOM     14  N   UNL     1       8.397   4.213  17.778  0.00  0.00    +0.000 NA
ATOM     15  H   UNL     1       9.156   3.934  17.167  0.00  0.00    +0.000 HD
ATOM     16  H   UNL     1       8.293   3.477  18.479  0.00  0.00    +0.000 HD
ENDBRANCH   1  14
BRANCH   1  17
ATOM     17  C   UNL     1       7.477   5.018  15.672  0.00  0.00    +0.000 C 
BRANCH  17  18
ATOM     18  C   UNL     1       6.784   4.511  14.418  0.00  0.00    +0.000 A 
ATOM     19  C   UNL     1       5.652   3.684  14.501  0.00  0.00    +0.000 A 
ATOM     20  C   UNL     1       4.974   3.274  13.349  0.00  0.00    +0.000 A 
ATOM     21  C   UNL     1       5.436   3.664  12.099  0.00  0.00    +0.000 A 
ATOM     22 CL   UNL     1       4.575   3.193  10.686  0.00  0.00    +0.000 Cl
ATOM     23  C   UNL     1       6.591   4.428  11.983  0.00  0.00    +0.000 A 
ATOM     24  C   UNL     1       7.269   4.837  13.135  0.00  0.00    +0.000 A 
ATOM     25 CL   UNL     1       8.727   5.738  12.899  0.00  0.00    +0.000 Cl
ENDBRANCH  17  18
ENDBRANCH   1  17
TORSDOF 4
ENDMDL
MODEL 8
REMARK VINA RESULT:      -7.1      3.540      5.315
REMARK  Name = 
REMARK  4 active torsions:
REMARK  status: ('A' for Active; 'I' for Inactive)
REMARK    1  A    between atoms: N_1  and  C_2
REMARK    2  A    between atoms: C_2  and  C_3
REMARK    3  A    between atoms: C_2  and  C_12
REMARK    4  A    between atoms: C_3  and  C_4
REMARK                            x       y       z     vdW  Elec       q    Type
REMARK                         _______ _______ _______ _____ _____    ______ ____
ROOT
ATOM      1  C   UNL     1       6.231   5.664  16.165  0.00  0.00    +0.000 C 
ENDROOT
BRANCH   1   2
ATOM      2  C   UNL     1       5.025   6.127  17.042  0.00  0.00    +0.000 C 
ATOM      3  O   UNL     1       4.936   7.298  17.422  0.00  0.00    +0.000 OA
ATOM      4  N   UNL     1       4.039   5.198  17.379  0.00  0.00    +0.000 N 
ATOM      5  C   UNL     1       4.051   3.782  16.996  0.00  0.00    +0.000 C 
ATOM      6  C   UNL     1       2.723   3.047  17.198  0.00  0.00    +0.000 C 
ATOM      7  C   UNL     1       2.234   3.289  18.599  0.00  0.00    +0.000 A 
ATOM      8  C   UNL     1       1.667   2.279  19.378  0.00  0.00    +0.000 A 
ATOM      9  C   UNL     1       1.231   2.562  20.672  0.00  0.00    +0.000 A 
ATOM     10  C   UNL     1       1.344   3.856  21.183  0.00  0.00    +0.000 A 
ATOM     11  C   UNL     1       1.899   4.871  20.404  0.00  0.00    +0.000 A 
ATOM     12  C   UNL     1       2.360   4.591  19.113  0.00  0.00    +0.000 A 
ATOM     13  C   UNL     1       2.943   5.672  18.237  0.00  0.00    +0.000 C 
ENDBRANCH   1   2
BRANCH   1  14
ATOM     14  N   UNL     1       7.470   6.391  16.533  0.00  0.00    +0.000 NA
ATOM     15  H   UNL     1       7.337   7.393  16.449  0.00  0.00    +0.000 HD
ATOM     16  H   UNL     1       8.211   6.134  15.879  0.00  0.00    +0.000 HD
ENDBRANCH   1  14
BRANCH   1  17
ATOM     17  C   UNL     1       5.980   5.942  14.661  0.00  0.00    +0.000 C 
BRANCH  17  18
ATOM     18  C   UNL     1       6.171   4.791  13.686  0.00  0.00    +0.000 A 
ATOM     19  C   UNL     1       5.229   3.754  13.597  0.00  0.00    +0.000 A 
ATOM     20  C   UNL     1       5.370   2.732  12.653  0.00  0.00    +0.000 A 
ATOM     21  C   UNL     1       6.469   2.721  11.804  0.00  0.00    +0.000 A 
ATOM     22 CL   UNL     1       6.618   1.487  10.616  0.00  0.00    +0.000 Cl
ATOM     23  C   UNL     1       7.451   3.700  11.913  0.00  0.00    +0.000 A 
ATOM     24  C   UNL     1       7.310   4.720  12.857  0.00  0.00    +0.000 A 
ATOM     25 CL   UNL     1       8.604   5.864  12.964  0.00  0.00    +0.000 Cl
ENDBRANCH  17  18
ENDBRANCH   1  17
TORSDOF 4
ENDMDL
MODEL 9
REMARK VINA RESULT:      -6.9      3.896      8.441
REMARK  Name = 
REMARK  4 active torsions:
REMARK  status: ('A' for Active; 'I' for Inactive)
REMARK    1  A    between atoms: N_1  and  C_2
REMARK    2  A    between atoms: C_2  and  C_3
REMARK    3  A    between atoms: C_2  and  C_12
REMARK    4  A    between atoms: C_3  and  C_4
REMARK                            x       y       z     vdW  Elec       q    Type
REMARK                         _______ _______ _______ _____ _____    ______ ____
ROOT
ATOM      1  C   UNL     1       0.557   9.575  18.840  0.00  0.00    +0.000 C 
ENDROOT
BRANCH   1   2
ATOM      2  C   UNL     1       1.811   8.911  18.190  0.00  0.00    +0.000 C 
ATOM      3  O   UNL     1       2.378   9.440  17.230  0.00  0.00    +0.000 OA
ATOM      4  N   UNL     1       2.292   7.712  18.720  0.00  0.00    +0.000 N 
ATOM      5  C   UNL     1       1.691   6.988  19.846  0.00  0.00    +0.000 C 
ATOM      6  C   UNL     1       2.568   5.889  20.449  0.00  0.00    +0.000 C 
ATOM      7  C   UNL     1       3.061   4.991  19.349  0.00  0.00    +0.000 A 
ATOM      8  C   UNL     1       3.113   3.602  19.483  0.00  0.00    +0.000 A 
ATOM      9  C   UNL     1       3.578   2.819  18.428  0.00  0.00    +0.000 A 
ATOM     10  C   UNL     1       4.010   3.421  17.245  0.00  0.00    +0.000 A 
ATOM     11  C   UNL     1       3.972   4.809  17.111  0.00  0.00    +0.000 A 
ATOM     12  C   UNL     1       3.484   5.601  18.156  0.00  0.00    +0.000 A 
ATOM     13  C   UNL     1       3.453   7.106  18.050  0.00  0.00    +0.000 C 
ENDBRANCH   1   2
BRANCH   1  14
ATOM     14  N   UNL     1      -0.318  10.186  17.811  0.00  0.00    +0.000 NA
ATOM     15  H   UNL     1      -0.654   9.484  17.161  0.00  0.00    +0.000 HD
ATOM     16  H   UNL     1       0.230  10.855  17.267  0.00  0.00    +0.000 HD
ENDBRANCH   1  14
BRANCH   1  17
ATOM     17  C   UNL     1       0.957  10.709  19.818  0.00  0.00    +0.000 C 
BRANCH  17  18
ATOM     18  C   UNL     1      -0.068  11.149  20.850  0.00  0.00    +0.000 A 
ATOM     19  C   UNL     1      -0.924  12.235  20.603  0.00  0.00    +0.000 A 
ATOM     20  C   UNL     1      -1.913  12.597  21.523  0.00  0.00    +0.000 A 
ATOM     21  C   UNL     1      -2.039  11.894  22.714  0.00  0.00    +0.000 A 
ATOM     22 CL   UNL     1      -3.284  12.314  23.825  0.00  0.00    +0.000 Cl
ATOM     23  C   UNL     1      -1.164  10.856  23.015  0.00  0.00    +0.000 A 
ATOM     24  C   UNL     1      -0.176  10.495  22.095  0.00  0.00    +0.000 A 
ATOM     25 CL   UNL     1       0.905   9.231  22.572  0.00  0.00    +0.000 Cl
ENDBRANCH  17  18
ENDBRANCH   1  17
TORSDOF 4
ENDMDL
