MODEL 1
REMARK VINA RESULT:      -7.0      0.000      0.000
REMARK  Name = 
REMARK  5 active torsions:
REMARK  status: ('A' for Active; 'I' for Inactive)
REMARK    1  A    between atoms: C_1  and  C_2
REMARK    2  A    between atoms: C_4  and  C_5
REMARK    3  A    between atoms: C_7  and  N_8
REMARK    4  A    between atoms: C_9  and  C_11
REMARK    5  A    between atoms: C_16  and  N_17
REMARK                            x       y       z     vdW  Elec       q    Type
REMARK                         _______ _______ _______ _____ _____    ______ ____
ROOT
ATOM      1  N   UNL     1       3.741   4.987  17.242  0.00  0.00    +0.000 N 
ATOM      2  C   UNL     1       5.089   4.677  17.174  0.00  0.00    +0.000 C 
ATOM      3  O   UNL     1       5.809   4.376  18.125  0.00  0.00    +0.000 OA
ATOM      4  H   UNL     1       3.234   5.049  16.364  0.00  0.00    +0.000 HD
ENDROOT
BRANCH   1  11
ATOM      5  C   UNL     1       1.630   7.788  20.735  0.00  0.00    +0.000 C 
ATOM      6  C   UNL     1       1.948   6.430  20.177  0.00  0.00    +0.000 A 
ATOM      7  C   UNL     1       1.498   5.271  20.821  0.00  0.00    +0.000 A 
ATOM      8  C   UNL     1       1.792   4.013  20.296  0.00  0.00    +0.000 A 
ATOM      9  C   UNL     1       1.326   2.755  20.968  0.00  0.00    +0.000 C 
ATOM     10  C   UNL     1       2.536   3.923  19.110  0.00  0.00    +0.000 A 
ATOM     11  C   UNL     1       2.992   5.067  18.447  0.00  0.00    +0.000 A 
ATOM     12  C   UNL     1       2.705   6.319  18.993  0.00  0.00    +0.000 A 
ENDBRANCH   1  11
BRANCH   2  13
ATOM     13  C   UNL     1       5.725   4.659  15.831  0.00  0.00    +0.000 A 
ATOM     14  C   UNL     1       5.105   3.832  14.872  0.00  0.00    +0.000 A 
ATOM     15  C   UNL     1       5.653   3.674  13.604  0.00  0.00    +0.000 A 
ATOM     16  C   UNL     1       6.819   4.354  13.278  0.00  0.00    +0.000 A 
ATOM     17  C   UNL     1       7.433   5.189  14.221  0.00  0.00    +0.000 A 
ATOM     18  C   UNL     1       6.930   5.315  15.527  0.00  0.00    +0.000 A 
BRANCH  18  19
ATOM     19  N   UNL     1       7.552   6.228  16.405  0.00  0.00    +0.000 N 
ATOM     20  H   UNL     1       7.110   7.146  16.391  0.00  0.00    +0.000 HD
ATOM     21  H   UNL     1       8.552   6.317  16.224  0.00  0.00    +0.000 HD
ENDBRANCH  18  19
ENDBRANCH   2  13
TORSDOF 3
ENDMDL
MODEL 2
REMARK VINA RESULT:      -7.0      0.090      2.033
REMARK  Name = 
REMARK  5 active torsions:
REMARK  status: ('A' for Active; 'I' for Inactive)
REMARK    1  A    between atoms: C_1  and  C_2
REMARK    2  A    between atoms: C_4  and  C_5
REMARK    3  A    between atoms: C_7  and  N_8
REMARK    4  A    between atoms: C_9  and  C_11
REMARK    5  A    between atoms: C_16  and  N_17
REMARK                            x       y       z     vdW  Elec       q    Type
REMARK                         _______ _______ _______ _____ _____    ______ ____
ROOT
ATOM      1  N   UNL     1       3.739   4.940  17.211  0.00  0.00    +0.000 N 
ATOM      2  C   UNL     1       5.112   4.773  17.152  0.00  0.00    +0.000 C 
ATOM      3  O   UNL     1       5.865   4.639  18.116  0.00  0.00    +0.000 OA
ATOM      4  H   UNL     1       3.225   4.867  16.339  0.00  0.00    +0.000 HD
ENDROOT
BRANCH   1  11
ATOM      5  C   UNL     1       1.411   2.703  20.963  0.00  0.00    +0.000 C 
ATOM      6  C   UNL     1       1.838   3.964  20.269  0.00  0.00    +0.000 A 
ATOM      7  C   UNL     1       1.523   5.218  20.807  0.00  0.00    +0.000 A 
ATOM      8  C   UNL     1       1.926   6.385  20.160  0.00  0.00    +0.000 A 
ATOM      9  C   UNL     1       1.597   7.740  20.713  0.00  0.00    +0.000 C 
ATOM     10  C   UNL     1       2.660   6.289  18.969  0.00  0.00    +0.000 A 
ATOM     11  C   UNL     1       2.991   5.048  18.414  0.00  0.00    +0.000 A 
ATOM     12  C   UNL     1       2.566   3.888  19.064  0.00  0.00    +0.000 A 
ENDBRANCH   1  11
BRANCH   2  13
ATOM     13  C   UNL     1       5.741   4.701  15.807  0.00  0.00    +0.000 A 
ATOM     14  C   UNL     1       5.098   3.861  14.876  0.00  0.00    +0.000 A 
ATOM     15  C   UNL     1       5.636   3.655  13.610  0.00  0.00    +0.000 A 
ATOM     16  C   UNL     1       6.815   4.298  13.260  0.00  0.00    +0.000 A 
ATOM     17  C   UNL     1       7.454   5.145  14.175  0.00  0.00    +0.000 A 
ATOM     18  C   UNL     1       6.960   5.320  15.480  0.00  0.00    +0.000 A 
BRANCH  18  19
ATOM     19  N   UNL     1       7.607   6.242  16.329  0.00  0.00    +0.000 N 
ATOM     20  H   UNL     1       7.166   6.305  17.245  0.00  0.00    +0.000 HD
ATOM     21  H   UNL     1       7.678   7.170  15.908  0.00  0.00    +0.000 HD
ENDBRANCH  18  19
ENDBRANCH   2  13
TORSDOF 3
ENDMDL
MODEL 3
REMARK VINA RESULT:      -6.6      1.000      2.316
REMARK  Name = 
REMARK  5 active torsions:
REMARK  status: ('A' for Active; 'I' for Inactive)
REMARK    1  A    between atoms: C_1  and  C_2
REMARK    2  A    between atoms: C_4  and  C_5
REMARK    3  A    between atoms: C_7  and  N_8
REMARK    4  A    between atoms: C_9  and  C_11
REMARK    5  A    between atoms: C_16  and  N_17
REMARK                            x       y       z     vdW  Elec       q    Type
REMARK                         _______ _______ _______ _____ _____    ______ ____
ROOT
ATOM      1  N   UNL     1       3.857   4.474  16.246  0.00  0.00    +0.000 N 
ATOM      2  C   UNL     1       5.225   4.264  16.197  0.00  0.00    +0.000 C 
ATOM      3  O   UNL     1       5.947   3.987  17.154  0.00  0.00    +0.000 OA
ATOM      4  H   UNL     1       3.364   4.525  15.360  0.00  0.00    +0.000 HD
ENDROOT
BRANCH   1  11
ATOM      5  C   UNL     1       0.962   1.983  19.394  0.00  0.00    +0.000 C 
ATOM      6  C   UNL     1       1.653   3.255  18.998  0.00  0.00    +0.000 A 
ATOM      7  C   UNL     1       1.552   4.402  19.795  0.00  0.00    +0.000 A 
ATOM      8  C   UNL     1       2.200   5.579  19.425  0.00  0.00    +0.000 A 
ATOM      9  C   UNL     1       2.104   6.822  20.259  0.00  0.00    +0.000 C 
ATOM     10  C   UNL     1       2.963   5.599  18.248  0.00  0.00    +0.000 A 
ATOM     11  C   UNL     1       3.082   4.466  17.437  0.00  0.00    +0.000 A 
ATOM     12  C   UNL     1       2.414   3.299  17.812  0.00  0.00    +0.000 A 
ENDBRANCH   1  11
BRANCH   2  13
ATOM     13  C   UNL     1       5.886   4.329  14.867  0.00  0.00    +0.000 A 
ATOM     14  C   UNL     1       5.295   3.550  13.853  0.00  0.00    +0.000 A 
ATOM     15  C   UNL     1       5.868   3.471  12.588  0.00  0.00    +0.000 A 
ATOM     16  C   UNL     1       7.030   4.184  12.323  0.00  0.00    +0.000 A 
ATOM     17  C   UNL     1       7.616   4.972  13.322  0.00  0.00    +0.000 A 
ATOM     18  C   UNL     1       7.087   5.017  14.624  0.00  0.00    +0.000 A 
BRANCH  18  19
ATOM     19  N   UNL     1       7.680   5.887  15.564  0.00  0.00    +0.000 N 
ATOM     20  H   UNL     1       8.284   5.396  16.221  0.00  0.00    +0.000 HD
ATOM     21  H   UNL     1       6.987   6.439  16.069  0.00  0.00    +0.000 HD
ENDBRANCH  18  19
ENDBRANCH   2  13
TORSDOF 3
ENDMDL
MODEL 4
REMARK VINA RESULT:      -6.6      1.558      7.064
REMARK  Name = 
REMARK  5 active torsions:
REMARK  status: ('A' for Active; 'I' for Inactive)
REMARK    1  A    between atoms: C_1  and  C_2
REMARK    2  A    between atoms: C_4  and  C_5
REMARK    3  A    between atoms: C_7  and  N_8
REMARK    4  A    between atoms: C_9  and  C_11
REMARK    5  A    between atoms: C_16  and  N_17
REMARK                            x       y       z     vdW  Elec       q    Type
REMARK                         _______ _______ _______ _____ _____    ______ ____
ROOT
ATOM      1  N   UNL     1       4.831   4.627  15.640  0.00  0.00    +0.000 N 
ATOM      2  C   UNL     1       5.302   4.537  16.939  0.00  0.00    +0.000 C 
ATOM      3  O   UNL     1       6.471   4.342  17.271  0.00  0.00    +0.000 OA
ATOM      4  H   UNL     1       3.880   4.959  15.514  0.00  0.00    +0.000 HD
ENDROOT
BRANCH   1  11
ATOM      5  C   UNL     1       5.621   2.204  11.397  0.00  0.00    +0.000 C 
ATOM      6  C   UNL     1       6.034   3.255  12.386  0.00  0.00    +0.000 A 
ATOM      7  C   UNL     1       7.168   4.045  12.159  0.00  0.00    +0.000 A 
ATOM      8  C   UNL     1       7.543   5.023  13.079  0.00  0.00    +0.000 A 
ATOM      9  C   UNL     1       8.755   5.879  12.861  0.00  0.00    +0.000 C 
ATOM     10  C   UNL     1       6.767   5.212  14.231  0.00  0.00    +0.000 A 
ATOM     11  C   UNL     1       5.628   4.439  14.479  0.00  0.00    +0.000 A 
ATOM     12  C   UNL     1       5.274   3.452  13.557  0.00  0.00    +0.000 A 
ENDBRANCH   1  11
BRANCH   2  13
ATOM     13  C   UNL     1       4.327   4.740  18.042  0.00  0.00    +0.000 A 
ATOM     14  C   UNL     1       3.474   5.853  17.907  0.00  0.00    +0.000 A 
ATOM     15  C   UNL     1       2.572   6.189  18.911  0.00  0.00    +0.000 A 
ATOM     16  C   UNL     1       2.506   5.403  20.054  0.00  0.00    +0.000 A 
ATOM     17  C   UNL     1       3.341   4.286  20.190  0.00  0.00    +0.000 A 
ATOM     18  C   UNL     1       4.301   3.965  19.215  0.00  0.00    +0.000 A 
BRANCH  18  19
ATOM     19  N   UNL     1       5.059   2.787  19.376  0.00  0.00    +0.000 N 
ATOM     20  H   UNL     1       4.548   2.059  19.873  0.00  0.00    +0.000 HD
ATOM     21  H   UNL     1       5.953   2.963  19.835  0.00  0.00    +0.000 HD
ENDBRANCH  18  19
ENDBRANCH   2  13
TORSDOF 3
ENDMDL
MODEL 5
REMARK VINA RESULT:      -6.6      2.451      6.706
REMARK  Name = 
REMARK  5 active torsions:
REMARK  status: ('A' for Active; 'I' for Inactive)
REMARK    1  A    between atoms: C_1  and  C_2
REMARK    2  A    between atoms: C_4  and  C_5
REMARK    3  A    between atoms: C_7  and  N_8
REMARK    4  A    between atoms: C_9  and  C_11
REMARK    5  A    between atoms: C_16  and  N_17
REMARK                            x       y       z     vdW  Elec       q    Type
REMARK                         _______ _______ _______ _____ _____    ______ ____
ROOT
ATOM      1  N   UNL     1       4.183   7.188  17.629  0.00  0.00    +0.000 N 
ATOM      2  C   UNL     1       3.008   6.845  18.275  0.00  0.00    +0.000 C 
ATOM      3  O   UNL     1       2.640   5.703  18.546  0.00  0.00    +0.000 OA
ATOM      4  H   UNL     1       4.440   8.169  17.622  0.00  0.00    +0.000 HD
ENDROOT
BRANCH   1  11
ATOM      5  C   UNL     1       8.289   4.508  18.310  0.00  0.00    +0.000 C 
ATOM      6  C   UNL     1       7.145   4.928  17.433  0.00  0.00    +0.000 A 
ATOM      7  C   UNL     1       6.998   4.394  16.147  0.00  0.00    +0.000 A 
ATOM      8  C   UNL     1       5.930   4.783  15.339  0.00  0.00    +0.000 A 
ATOM      9  C   UNL     1       5.752   4.230  13.956  0.00  0.00    +0.000 C 
ATOM     10  C   UNL     1       5.000   5.709  15.834  0.00  0.00    +0.000 A 
ATOM     11  C   UNL     1       5.124   6.253  17.116  0.00  0.00    +0.000 A 
ATOM     12  C   UNL     1       6.207   5.867  17.907  0.00  0.00    +0.000 A 
ENDBRANCH   1  11
BRANCH   2  13
ATOM     13  C   UNL     1       2.124   7.950  18.729  0.00  0.00    +0.000 A 
ATOM     14  C   UNL     1       1.837   8.938  17.767  0.00  0.00    +0.000 A 
ATOM     15  C   UNL     1       1.082  10.059  18.097  0.00  0.00    +0.000 A 
ATOM     16  C   UNL     1       0.596  10.194  19.391  0.00  0.00    +0.000 A 
ATOM     17  C   UNL     1       0.866   9.209  20.350  0.00  0.00    +0.000 A 
ATOM     18  C   UNL     1       1.676   8.099  20.053  0.00  0.00    +0.000 A 
BRANCH  18  19
ATOM     19  N   UNL     1       1.849   7.106  21.041  0.00  0.00    +0.000 N 
ATOM     20  H   UNL     1       1.880   6.167  20.648  0.00  0.00    +0.000 HD
ATOM     21  H   UNL     1       1.136   7.158  21.769  0.00  0.00    +0.000 HD
ENDBRANCH  18  19
ENDBRANCH   2  13
TORSDOF 3
ENDMDL
MODEL 6
REMARK VINA RESULT:      -6.6      2.442      6.716
REMARK  Name = 
REMARK  5 active torsions:
REMARK  status: ('A' for Active; 'I' for Inactive)
REMARK    1  A    between atoms: C_1  and  C_2
REMARK    2  A    between atoms: C_4  and  C_5
REMARK    3  A    between atoms: C_7  and  N_8
REMARK    4  A    between atoms: C_9  and  C_11
REMARK    5  A    between atoms: C_16  and  N_17
REMARK                            x       y       z     vdW  Elec       q    Type
REMARK                         _______ _______ _______ _____ _____    ______ ____
ROOT
ATOM      1  N   UNL     1       4.075   7.168  17.545  0.00  0.00    +0.000 N 
ATOM      2  C   UNL     1       3.077   6.874  18.458  0.00  0.00    +0.000 C 
ATOM      3  O   UNL     1       2.936   5.808  19.056  0.00  0.00    +0.000 OA
ATOM      4  H   UNL     1       4.172   8.136  17.258  0.00  0.00    +0.000 HD
ENDROOT
BRANCH   1  11
ATOM      5  C   UNL     1       5.802   4.187  13.991  0.00  0.00    +0.000 C 
ATOM      6  C   UNL     1       5.928   4.771  15.368  0.00  0.00    +0.000 A 
ATOM      7  C   UNL     1       7.006   4.428  16.194  0.00  0.00    +0.000 A 
ATOM      8  C   UNL     1       7.120   4.978  17.470  0.00  0.00    +0.000 A 
ATOM      9  C   UNL     1       8.263   4.624  18.375  0.00  0.00    +0.000 C 
ATOM     10  C   UNL     1       6.147   5.884  17.914  0.00  0.00    +0.000 A 
ATOM     11  C   UNL     1       5.064   6.245  17.107  0.00  0.00    +0.000 A 
ATOM     12  C   UNL     1       4.953   5.674  15.838  0.00  0.00    +0.000 A 
ENDBRANCH   1  11
BRANCH   2  13
ATOM     13  C   UNL     1       2.108   7.951  18.790  0.00  0.00    +0.000 A 
ATOM     14  C   UNL     1       1.777   8.823  17.734  0.00  0.00    +0.000 A 
ATOM     15  C   UNL     1       0.940   9.914  17.944  0.00  0.00    +0.000 A 
ATOM     16  C   UNL     1       0.415  10.134  19.210  0.00  0.00    +0.000 A 
ATOM     17  C   UNL     1       0.729   9.264  20.263  0.00  0.00    +0.000 A 
ATOM     18  C   UNL     1       1.620   8.191  20.087  0.00  0.00    +0.000 A 
BRANCH  18  19
ATOM     19  N   UNL     1       1.837   7.309  21.167  0.00  0.00    +0.000 N 
ATOM     20  H   UNL     1       2.825   7.110  21.315  0.00  0.00    +0.000 HD
ATOM     21  H   UNL     1       1.315   6.439  21.064  0.00  0.00    +0.000 HD
ENDBRANCH  18  19
ENDBRANCH   2  13
TORSDOF 3
ENDMDL
MODEL 7
REMARK VINA RESULT:      -6.6      1.574      6.850
REMARK  Name = 
REMARK  5 active torsions:
REMARK  status: ('A' for Active; 'I' for Inactive)
REMARK    1  A    between atoms: C_1  and  C_2
REMARK    2  A    between atoms: C_4  and  C_5
REMARK    3  A    between atoms: C_7  and  N_8
REMARK    4  A    between atoms: C_9  and  C_11
REMARK    5  A    between atoms: C_16  and  N_17
REMARK                            x       y       z     vdW  Elec       q    Type
REMARK                         _______ _______ _______ _____ _____    ______ ____
ROOT
ATOM      1  N   UNL     1       4.821   4.648  15.581  0.00  0.00    +0.000 N 
ATOM      2  C   UNL     1       5.297   4.550  16.877  0.00  0.00    +0.000 C 
ATOM      3  O   UNL     1       6.461   4.320  17.202  0.00  0.00    +0.000 OA
ATOM      4  H   UNL     1       3.880   5.009  15.458  0.00  0.00    +0.000 HD
ENDROOT
BRANCH   1  11
ATOM      5  C   UNL     1       8.747   5.876  12.828  0.00  0.00    +0.000 C 
ATOM      6  C   UNL     1       7.532   5.022  13.046  0.00  0.00    +0.000 A 
ATOM      7  C   UNL     1       7.191   4.019  12.130  0.00  0.00    +0.000 A 
ATOM      8  C   UNL     1       6.064   3.225  12.339  0.00  0.00    +0.000 A 
ATOM      9  C   UNL     1       5.674   2.148  11.372  0.00  0.00    +0.000 C 
ATOM     10  C   UNL     1       5.281   3.438  13.484  0.00  0.00    +0.000 A 
ATOM     11  C   UNL     1       5.604   4.430  14.415  0.00  0.00    +0.000 A 
ATOM     12  C   UNL     1       6.726   5.228  14.183  0.00  0.00    +0.000 A 
ENDBRANCH   1  11
BRANCH   2  13
ATOM     13  C   UNL     1       4.335   4.789  17.985  0.00  0.00    +0.000 A 
ATOM     14  C   UNL     1       3.524   5.934  17.854  0.00  0.00    +0.000 A 
ATOM     15  C   UNL     1       2.640   6.302  18.863  0.00  0.00    +0.000 A 
ATOM     16  C   UNL     1       2.550   5.519  20.006  0.00  0.00    +0.000 A 
ATOM     17  C   UNL     1       3.344   4.372  20.138  0.00  0.00    +0.000 A 
ATOM     18  C   UNL     1       4.286   4.016  19.157  0.00  0.00    +0.000 A 
BRANCH  18  19
ATOM     19  N   UNL     1       5.001   2.810  19.315  0.00  0.00    +0.000 N 
ATOM     20  H   UNL     1       5.283   2.647  20.280  0.00  0.00    +0.000 HD
ATOM     21  H   UNL     1       5.813   2.759  18.699  0.00  0.00    +0.000 HD
ENDBRANCH  18  19
ENDBRANCH   2  13
TORSDOF 3
ENDMDL
MODEL 8
REMARK VINA RESULT:      -6.5      3.224      7.218
REMARK  Name = 
REMARK  5 active torsions:
REMARK  status: ('A' for Active; 'I' for Inactive)
REMARK    1  A    between atoms: C_1  and  C_2
REMARK    2  A    between atoms: C_4  and  C_5
REMARK    3  A    between atoms: C_7  and  N_8
REMARK    4  A    between atoms: C_9  and  C_11
REMARK    5  A    between atoms: C_16  and  N_17
REMARK                            x       y       z     vdW  Elec       q    Type
REMARK                         _______ _______ _______ _____ _____    ______ ____
ROOT
ATOM      1  N   UNL     1       2.315   7.566  19.004  0.00  0.00    +0.000 N 
ATOM      2  C   UNL     1       1.889   8.743  18.413  0.00  0.00    +0.000 C 
ATOM      3  O   UNL     1       1.930   9.003  17.211  0.00  0.00    +0.000 OA
ATOM      4  H   UNL     1       2.066   7.419  19.977  0.00  0.00    +0.000 HD
ENDROOT
BRANCH   1  11
ATOM      5  C   UNL     1       2.262   2.801  17.665  0.00  0.00    +0.000 C 
ATOM      6  C   UNL     1       2.925   4.147  17.640  0.00  0.00    +0.000 A 
ATOM      7  C   UNL     1       4.116   4.344  16.931  0.00  0.00    +0.000 A 
ATOM      8  C   UNL     1       4.725   5.599  16.907  0.00  0.00    +0.000 A 
ATOM      9  C   UNL     1       6.003   5.835  16.158  0.00  0.00    +0.000 C 
ATOM     10  C   UNL     1       4.125   6.663  17.595  0.00  0.00    +0.000 A 
ATOM     11  C   UNL     1       2.934   6.492  18.308  0.00  0.00    +0.000 A 
ATOM     12  C   UNL     1       2.345   5.227  18.337  0.00  0.00    +0.000 A 
ENDBRANCH   1  11
BRANCH   2  13
ATOM     13  C   UNL     1       1.281   9.775  19.292  0.00  0.00    +0.000 A 
ATOM     14  C   UNL     1       0.575   9.288  20.410  0.00  0.00    +0.000 A 
ATOM     15  C   UNL     1      -0.101  10.155  21.262  0.00  0.00    +0.000 A 
ATOM     16  C   UNL     1      -0.063  11.520  21.012  0.00  0.00    +0.000 A 
ATOM     17  C   UNL     1       0.648  12.014  19.910  0.00  0.00    +0.000 A 
ATOM     18  C   UNL     1       1.286  11.151  19.003  0.00  0.00    +0.000 A 
BRANCH  18  19
ATOM     19  N   UNL     1       2.047  11.714  17.956  0.00  0.00    +0.000 N 
ATOM     20  H   UNL     1       1.468  12.038  17.184  0.00  0.00    +0.000 HD
ATOM     21  H   UNL     1       2.764  11.074  17.613  0.00  0.00    +0.000 HD
ENDBRANCH  18  19
ENDBRANCH   2  13
TORSDOF 3
ENDMDL
MODEL 9
REMARK VINA RESULT:      -6.5      3.163      7.005
REMARK  Name = 
REMARK  5 active torsions:
REMARK  status: ('A' for Active; 'I' for Inactive)
REMARK    1  A    between atoms: C_1  and  C_2
REMARK    2  A    between atoms: C_4  and  C_5
REMARK    3  A    between atoms: C_7  and  N_8
REMARK    4  A    between atoms: C_9  and  C_11
REMARK    5  A    between atoms: C_16  and  N_17
REMARK                            x       y       z     vdW  Elec       q    Type
REMARK                         _______ _______ _______ _____ _____    ______ ____
ROOT
ATOM      1  N   UNL     1       2.330   7.465  19.032  0.00  0.00    +0.000 N 
ATOM      2  C   UNL     1       1.875   8.639  18.456  0.00  0.00    +0.000 C 
ATOM      3  O   UNL     1       1.871   8.899  17.253  0.00  0.00    +0.000 OA
ATOM      4  H   UNL     1       2.117   7.318  20.013  0.00  0.00    +0.000 HD
ENDROOT
BRANCH   1  11
ATOM      5  C   UNL     1       5.988   5.847  16.117  0.00  0.00    +0.000 C 
ATOM      6  C   UNL     1       4.722   5.580  16.877  0.00  0.00    +0.000 A 
ATOM      7  C   UNL     1       4.155   4.300  16.895  0.00  0.00    +0.000 A 
ATOM      8  C   UNL     1       2.981   4.057  17.607  0.00  0.00    +0.000 A 
ATOM      9  C   UNL     1       2.352   2.695  17.638  0.00  0.00    +0.000 C 
ATOM     10  C   UNL     1       2.380   5.108  18.313  0.00  0.00    +0.000 A 
ATOM     11  C   UNL     1       2.929   6.394  18.314  0.00  0.00    +0.000 A 
ATOM     12  C   UNL     1       4.095   6.627  17.583  0.00  0.00    +0.000 A 
ENDBRANCH   1  11
BRANCH   2  13
ATOM     13  C   UNL     1       1.294   9.669  19.357  0.00  0.00    +0.000 A 
ATOM     14  C   UNL     1       0.634   9.178  20.500  0.00  0.00    +0.000 A 
ATOM     15  C   UNL     1      -0.015  10.042  21.377  0.00  0.00    +0.000 A 
ATOM     16  C   UNL     1       0.004  11.407  21.123  0.00  0.00    +0.000 A 
ATOM     17  C   UNL     1       0.671  11.904  19.996  0.00  0.00    +0.000 A 
ATOM     18  C   UNL     1       1.280  11.044  19.066  0.00  0.00    +0.000 A 
BRANCH  18  19
ATOM     19  N   UNL     1       1.997  11.611  17.991  0.00  0.00    +0.000 N 
ATOM     20  H   UNL     1       1.458  11.627  17.127  0.00  0.00    +0.000 HD
ATOM     21  H   UNL     1       2.893  11.147  17.837  0.00  0.00    +0.000 HD
ENDBRANCH  18  19
ENDBRANCH   2  13
TORSDOF 3
ENDMDL
