MODEL 1
REMARK VINA RESULT:     -10.0      0.000      0.000
REMARK  Name = 
REMARK  10 active torsions:
REMARK  status: ('A' for Active; 'I' for Inactive)
REMARK    1  A    between atoms: C_1  and  C_2
REMARK    2  A    between atoms: C_2  and  C_3
REMARK    3  A    between atoms: C_2  and  C_4
REMARK    4  A    between atoms: C_9  and  C_10
REMARK    5  A    between atoms: C_16  and  N_17
REMARK    6  A    between atoms: N_20  and  C_21
REMARK    7  A    between atoms: C_24  and  C_25
REMARK    8  A    between atoms: C_25  and  C_26
REMARK    9  A    between atoms: C_25  and  C_27
REMARK   10  A    between atoms: C_25  and  C_28
REMARK                            x       y       z     vdW  Elec       q    Type
REMARK                         _______ _______ _______ _____ _____    ______ ____
ROOT
ATOM      1  C   UNL     1       4.053   4.378  17.127  0.00  0.00    +0.000 A 
ATOM      2  C   UNL     1       3.083   3.401  17.022  0.00  0.00    +0.000 A 
ATOM      3  C   UNL     1       2.304   3.429  18.192  0.00  0.00    +0.000 A 
ATOM      4  C   UNL     1       1.308   2.575  18.681  0.00  0.00    +0.000 A 
ATOM      5  C   UNL     1       0.690   2.884  19.884  0.00  0.00    +0.000 A 
ATOM      6  C   UNL     1       1.043   4.042  20.573  0.00  0.00    +0.000 A 
ATOM      7  C   UNL     1       2.060   4.922  20.124  0.00  0.00    +0.000 A 
ATOM      8  C   UNL     1       2.699   4.561  18.912  0.00  0.00    +0.000 A 
ATOM      9  O   UNL     1       3.782   5.144  18.254  0.00  0.00    +0.000 OA
ENDROOT
BRANCH   1  15
ATOM     10  C   UNL     1       6.402   5.354  16.540  0.00  0.00    +0.000 A 
ATOM     11  C   UNL     1       7.401   5.475  15.537  0.00  0.00    +0.000 A 
ATOM     12  C   UNL     1       7.280   4.884  14.280  0.00  0.00    +0.000 A 
ATOM     13  C   UNL     1       6.155   4.140  13.990  0.00  0.00    +0.000 A 
ATOM     14  C   UNL     1       5.177   3.981  14.971  0.00  0.00    +0.000 A 
ATOM     15  C   UNL     1       5.248   4.584  16.261  0.00  0.00    +0.000 A 
BRANCH  10  17
ATOM     16  C   UNL     1       7.182   5.438  19.004  0.00  0.00    +0.000 C 
ATOM     17  C   UNL     1       6.544   6.172  17.815  0.00  0.00    +0.000 C 
ATOM     18  C   UNL     1       7.359   7.426  17.485  0.00  0.00    +0.000 C 
ENDBRANCH  10  17
ENDBRANCH   1  15
BRANCH   7  19
ATOM     19  N   UNL     1       2.279   6.119  20.865  0.00  0.00    +0.000 N 
ATOM     20  C   UNL     1       1.284   7.086  21.009  0.00  0.00    +0.000 C 
ATOM     21  O   UNL     1       0.083   6.848  20.894  0.00  0.00    +0.000 OA
ATOM     22  N   UNL     1       1.790   8.364  21.222  0.00  0.00    +0.000 N 
ATOM     23  H   UNL     1       2.999   6.109  21.575  0.00  0.00    +0.000 HD
ATOM     24  H   UNL     1       2.582   8.588  20.638  0.00  0.00    +0.000 HD
BRANCH  22  25
ATOM     25  C   UNL     1       0.948   9.447  21.597  0.00  0.00    +0.000 A 
ATOM     26  C   UNL     1       0.772  10.537  20.743  0.00  0.00    +0.000 A 
ATOM     27  C   UNL     1      -0.131  11.564  21.053  0.00  0.00    +0.000 A 
ATOM     28  C   UNL     1      -0.887  11.551  22.236  0.00  0.00    +0.000 A 
ATOM     29  C   UNL     1      -0.656  10.476  23.115  0.00  0.00    +0.000 A 
ATOM     30  C   UNL     1       0.224   9.422  22.789  0.00  0.00    +0.000 A 
BRANCH  28  31
ATOM     31  C   UNL     1      -1.945  12.631  22.544  0.00  0.00    +0.000 C 
ATOM     32  C   UNL     1      -3.057  12.151  23.508  0.00  0.00    +0.000 C 
ATOM     33  C   UNL     1      -1.263  13.845  23.218  0.00  0.00    +0.000 C 
ATOM     34  C   UNL     1      -2.641  13.112  21.253  0.00  0.00    +0.000 C 
ENDBRANCH  28  31
ENDBRANCH  22  25
ENDBRANCH   7  19
TORSDOF 5
ENDMDL
MODEL 2
REMARK VINA RESULT:      -9.7      0.517      1.227
REMARK  Name = 
REMARK  10 active torsions:
REMARK  status: ('A' for Active; 'I' for Inactive)
REMARK    1  A    between atoms: C_1  and  C_2
REMARK    2  A    between atoms: C_2  and  C_3
REMARK    3  A    between atoms: C_2  and  C_4
REMARK    4  A    between atoms: C_9  and  C_10
REMARK    5  A    between atoms: C_16  and  N_17
REMARK    6  A    between atoms: N_20  and  C_21
REMARK    7  A    between atoms: C_24  and  C_25
REMARK    8  A    between atoms: C_25  and  C_26
REMARK    9  A    between atoms: C_25  and  C_27
REMARK   10  A    between atoms: C_25  and  C_28
REMARK                            x       y       z     vdW  Elec       q    Type
REMARK                         _______ _______ _______ _____ _____    ______ ____
ROOT
ATOM      1  C   UNL     1       4.196   4.509  17.237  0.00  0.00    +0.000 A 
ATOM      2  C   UNL     1       3.338   3.436  17.367  0.00  0.00    +0.000 A 
ATOM      3  C   UNL     1       2.579   3.619  18.536  0.00  0.00    +0.000 A 
ATOM      4  C   UNL     1       1.692   2.783  19.225  0.00  0.00    +0.000 A 
ATOM      5  C   UNL     1       1.064   3.262  20.365  0.00  0.00    +0.000 A 
ATOM      6  C   UNL     1       1.300   4.567  20.794  0.00  0.00    +0.000 A 
ATOM      7  C   UNL     1       2.206   5.439  20.141  0.00  0.00    +0.000 A 
ATOM      8  C   UNL     1       2.860   4.908  19.001  0.00  0.00    +0.000 A 
ATOM      9  O   UNL     1       3.862   5.455  18.198  0.00  0.00    +0.000 OA
ENDROOT
BRANCH   1  15
ATOM     10  C   UNL     1       6.555   5.361  16.517  0.00  0.00    +0.000 A 
ATOM     11  C   UNL     1       7.498   5.438  15.456  0.00  0.00    +0.000 A 
ATOM     12  C   UNL     1       7.269   4.869  14.203  0.00  0.00    +0.000 A 
ATOM     13  C   UNL     1       6.089   4.191  13.977  0.00  0.00    +0.000 A 
ATOM     14  C   UNL     1       5.164   4.076  15.014  0.00  0.00    +0.000 A 
ATOM     15  C   UNL     1       5.346   4.659  16.301  0.00  0.00    +0.000 A 
BRANCH  10  17
ATOM     16  C   UNL     1       7.652   5.434  18.858  0.00  0.00    +0.000 C 
ATOM     17  C   UNL     1       6.819   6.156  17.787  0.00  0.00    +0.000 C 
ATOM     18  C   UNL     1       7.510   7.465  17.392  0.00  0.00    +0.000 C 
ENDBRANCH  10  17
ENDBRANCH   1  15
BRANCH   7  19
ATOM     19  N   UNL     1       2.305   6.777  20.618  0.00  0.00    +0.000 N 
ATOM     20  C   UNL     1       1.172   7.539  20.908  0.00  0.00    +0.000 C 
ATOM     21  O   UNL     1       0.076   7.051  21.175  0.00  0.00    +0.000 OA
ATOM     22  N   UNL     1       1.390   8.907  20.793  0.00  0.00    +0.000 N 
ATOM     23  H   UNL     1       3.159   7.048  21.087  0.00  0.00    +0.000 HD
ATOM     24  H   UNL     1       1.933   9.163  19.982  0.00  0.00    +0.000 HD
BRANCH  22  25
ATOM     25  C   UNL     1       0.431   9.856  21.243  0.00  0.00    +0.000 A 
ATOM     26  C   UNL     1      -0.049   9.813  22.553  0.00  0.00    +0.000 A 
ATOM     27  C   UNL     1      -0.917  10.800  23.042  0.00  0.00    +0.000 A 
ATOM     28  C   UNL     1      -1.352  11.866  22.237  0.00  0.00    +0.000 A 
ATOM     29  C   UNL     1      -0.906  11.864  20.901  0.00  0.00    +0.000 A 
ATOM     30  C   UNL     1      -0.003  10.894  20.418  0.00  0.00    +0.000 A 
BRANCH  28  31
ATOM     31  C   UNL     1      -2.237  13.002  22.791  0.00  0.00    +0.000 C 
ATOM     32  C   UNL     1      -1.455  14.044  23.627  0.00  0.00    +0.000 C 
ATOM     33  C   UNL     1      -2.887  13.769  21.615  0.00  0.00    +0.000 C 
ATOM     34  C   UNL     1      -3.357  12.444  23.694  0.00  0.00    +0.000 C 
ENDBRANCH  28  31
ENDBRANCH  22  25
ENDBRANCH   7  19
TORSDOF 5
ENDMDL
MODEL 3
REMARK VINA RESULT:      -9.6      4.171      8.147
REMARK  Name = 
REMARK  10 active torsions:
REMARK  status: ('A' for Active; 'I' for Inactive)
REMARK    1  A    between atoms: C_1  and  C_2
REMARK    2  A    between atoms: C_2  and  C_3
REMARK    3  A    between atoms: C_2  and  C_4
REMARK    4  A    between atoms: C_9  and  C_10
REMARK    5  A    between atoms: C_16  and  N_17
REMARK    6  A    between atoms: N_20  and  C_21
REMARK    7  A    between atoms: C_24  and  C_25
REMARK    8  A    between atoms: C_25  and  C_26
REMARK    9  A    between atoms: C_25  and  C_27
REMARK   10  A    between atoms: C_25  and  C_28
REMARK                            x       y       z     vdW  Elec       q    Type
REMARK                         _______ _______ _______ _____ _____    ______ ____
ROOT
ATOM      1  C   UNL     1       4.053   4.184  18.081  0.00  0.00    +0.000 A 
ATOM      2  C   UNL     1       4.340   3.651  16.840  0.00  0.00    +0.000 A 
ATOM      3  C   UNL     1       5.446   4.340  16.312  0.00  0.00    +0.000 A 
ATOM      4  C   UNL     1       6.050   4.325  15.049  0.00  0.00    +0.000 A 
ATOM      5  C   UNL     1       7.167   5.118  14.829  0.00  0.00    +0.000 A 
ATOM      6  C   UNL     1       7.688   5.891  15.863  0.00  0.00    +0.000 A 
ATOM      7  C   UNL     1       7.096   5.952  17.150  0.00  0.00    +0.000 A 
ATOM      8  C   UNL     1       5.934   5.161  17.333  0.00  0.00    +0.000 A 
ATOM      9  O   UNL     1       5.070   5.066  18.424  0.00  0.00    +0.000 OA
ENDROOT
BRANCH   1  15
ATOM     10  C   UNL     1       2.072   4.915  19.616  0.00  0.00    +0.000 A 
ATOM     11  C   UNL     1       0.993   4.468  20.426  0.00  0.00    +0.000 A 
ATOM     12  C   UNL     1       0.680   3.118  20.584  0.00  0.00    +0.000 A 
ATOM     13  C   UNL     1       1.433   2.170  19.924  0.00  0.00    +0.000 A 
ATOM     14  C   UNL     1       2.476   2.587  19.098  0.00  0.00    +0.000 A 
ATOM     15  C   UNL     1       2.846   3.953  18.923  0.00  0.00    +0.000 A 
BRANCH  10  17
ATOM     16  C   UNL     1       2.284   7.133  18.304  0.00  0.00    +0.000 C 
ATOM     17  C   UNL     1       2.441   6.391  19.640  0.00  0.00    +0.000 C 
ATOM     18  C   UNL     1       1.590   7.075  20.714  0.00  0.00    +0.000 C 
ENDBRANCH  10  17
ENDBRANCH   1  15
BRANCH   7  19
ATOM     19  N   UNL     1       7.761   6.712  18.154  0.00  0.00    +0.000 N 
ATOM     20  C   UNL     1       7.892   8.098  18.061  0.00  0.00    +0.000 C 
ATOM     21  O   UNL     1       7.146   8.807  17.389  0.00  0.00    +0.000 OA
ATOM     22  N   UNL     1       8.998   8.590  18.746  0.00  0.00    +0.000 N 
ATOM     23  H   UNL     1       7.814   6.319  19.084  0.00  0.00    +0.000 HD
ATOM     24  H   UNL     1       9.829   8.030  18.627  0.00  0.00    +0.000 HD
BRANCH  22  25
ATOM     25  C   UNL     1       9.192   9.985  18.947  0.00  0.00    +0.000 A 
ATOM     26  C   UNL     1       9.255  10.513  20.237  0.00  0.00    +0.000 A 
ATOM     27  C   UNL     1       9.546  11.867  20.454  0.00  0.00    +0.000 A 
ATOM     28  C   UNL     1       9.773  12.754  19.390  0.00  0.00    +0.000 A 
ATOM     29  C   UNL     1       9.649  12.220  18.092  0.00  0.00    +0.000 A 
ATOM     30  C   UNL     1       9.394  10.850  17.872  0.00  0.00    +0.000 A 
BRANCH  28  31
ATOM     31  C   UNL     1      10.179  14.225  19.621  0.00  0.00    +0.000 C 
ATOM     32  C   UNL     1       9.820  14.751  21.031  0.00  0.00    +0.000 C 
ATOM     33  C   UNL     1      11.711  14.368  19.466  0.00  0.00    +0.000 C 
ATOM     34  C   UNL     1       9.491  15.156  18.600  0.00  0.00    +0.000 C 
ENDBRANCH  28  31
ENDBRANCH  22  25
ENDBRANCH   7  19
TORSDOF 5
ENDMDL
MODEL 4
REMARK VINA RESULT:      -9.3      4.704      8.250
REMARK  Name = 
REMARK  10 active torsions:
REMARK  status: ('A' for Active; 'I' for Inactive)
REMARK    1  A    between atoms: C_1  and  C_2
REMARK    2  A    between atoms: C_2  and  C_3
REMARK    3  A    between atoms: C_2  and  C_4
REMARK    4  A    between atoms: C_9  and  C_10
REMARK    5  A    between atoms: C_16  and  N_17
REMARK    6  A    between atoms: N_20  and  C_21
REMARK    7  A    between atoms: C_24  and  C_25
REMARK    8  A    between atoms: C_25  and  C_26
REMARK    9  A    between atoms: C_25  and  C_27
REMARK   10  A    between atoms: C_25  and  C_28
REMARK                            x       y       z     vdW  Elec       q    Type
REMARK                         _______ _______ _______ _____ _____    ______ ____
ROOT
ATOM      1  C   UNL     1       4.323   3.833  18.633  0.00  0.00    +0.000 A 
ATOM      2  C   UNL     1       4.535   3.331  17.364  0.00  0.00    +0.000 A 
ATOM      3  C   UNL     1       5.525   4.112  16.743  0.00  0.00    +0.000 A 
ATOM      4  C   UNL     1       6.006   4.153  15.429  0.00  0.00    +0.000 A 
ATOM      5  C   UNL     1       7.029   5.036  15.115  0.00  0.00    +0.000 A 
ATOM      6  C   UNL     1       7.581   5.845  16.106  0.00  0.00    +0.000 A 
ATOM      7  C   UNL     1       7.110   5.851  17.443  0.00  0.00    +0.000 A 
ATOM      8  C   UNL     1       6.040   4.966  17.725  0.00  0.00    +0.000 A 
ATOM      9  O   UNL     1       5.293   4.794  18.891  0.00  0.00    +0.000 OA
ENDROOT
BRANCH   1  15
ATOM     10  C   UNL     1       1.904   4.008  19.597  0.00  0.00    +0.000 A 
ATOM     11  C   UNL     1       1.029   3.605  20.642  0.00  0.00    +0.000 A 
ATOM     12  C   UNL     1       1.426   2.746  21.666  0.00  0.00    +0.000 A 
ATOM     13  C   UNL     1       2.713   2.251  21.670  0.00  0.00    +0.000 A 
ATOM     14  C   UNL     1       3.579   2.607  20.637  0.00  0.00    +0.000 A 
ATOM     15  C   UNL     1       3.225   3.498  19.582  0.00  0.00    +0.000 A 
BRANCH  10  17
ATOM     16  C   UNL     1       2.351   6.306  18.499  0.00  0.00    +0.000 C 
ATOM     17  C   UNL     1       1.435   5.079  18.623  0.00  0.00    +0.000 C 
ATOM     18  C   UNL     1       1.258   4.425  17.249  0.00  0.00    +0.000 C 
ENDBRANCH  10  17
ENDBRANCH   1  15
BRANCH   7  19
ATOM     19  N   UNL     1       7.803   6.658  18.390  0.00  0.00    +0.000 N 
ATOM     20  C   UNL     1       7.919   8.039  18.233  0.00  0.00    +0.000 C 
ATOM     21  O   UNL     1       7.144   8.713  17.557  0.00  0.00    +0.000 OA
ATOM     22  N   UNL     1       9.043   8.568  18.857  0.00  0.00    +0.000 N 
ATOM     23  H   UNL     1       7.892   6.306  19.334  0.00  0.00    +0.000 HD
ATOM     24  H   UNL     1       9.875   8.010  18.734  0.00  0.00    +0.000 HD
BRANCH  22  25
ATOM     25  C   UNL     1       9.232   9.972  18.991  0.00  0.00    +0.000 A 
ATOM     26  C   UNL     1       9.281  10.563  20.254  0.00  0.00    +0.000 A 
ATOM     27  C   UNL     1       9.567  11.927  20.407  0.00  0.00    +0.000 A 
ATOM     28  C   UNL     1       9.804  12.761  19.303  0.00  0.00    +0.000 A 
ATOM     29  C   UNL     1       9.694  12.163  18.032  0.00  0.00    +0.000 A 
ATOM     30  C   UNL     1       9.444  10.783  17.877  0.00  0.00    +0.000 A 
BRANCH  28  31
ATOM     31  C   UNL     1      10.203  14.242  19.465  0.00  0.00    +0.000 C 
ATOM     32  C   UNL     1       9.808  15.125  18.257  0.00  0.00    +0.000 C 
ATOM     33  C   UNL     1       9.493  14.836  20.704  0.00  0.00    +0.000 C 
ATOM     34  C   UNL     1      11.728  14.389  19.653  0.00  0.00    +0.000 C 
ENDBRANCH  28  31
ENDBRANCH  22  25
ENDBRANCH   7  19
TORSDOF 5
ENDMDL
MODEL 5
REMARK VINA RESULT:      -9.0      0.927      1.244
REMARK  Name = 
REMARK  10 active torsions:
REMARK  status: ('A' for Active; 'I' for Inactive)
REMARK    1  A    between atoms: C_1  and  C_2
REMARK    2  A    between atoms: C_2  and  C_3
REMARK    3  A    between atoms: C_2  and  C_4
REMARK    4  A    between atoms: C_9  and  C_10
REMARK    5  A    between atoms: C_16  and  N_17
REMARK    6  A    between atoms: N_20  and  C_21
REMARK    7  A    between atoms: C_24  and  C_25
REMARK    8  A    between atoms: C_25  and  C_26
REMARK    9  A    between atoms: C_25  and  C_27
REMARK   10  A    between atoms: C_25  and  C_28
REMARK                            x       y       z     vdW  Elec       q    Type
REMARK                         _______ _______ _______ _____ _____    ______ ____
ROOT
ATOM      1  C   UNL     1       4.127   4.778  17.234  0.00  0.00    +0.000 A 
ATOM      2  C   UNL     1       3.277   3.735  17.545  0.00  0.00    +0.000 A 
ATOM      3  C   UNL     1       2.522   4.103  18.672  0.00  0.00    +0.000 A 
ATOM      4  C   UNL     1       1.644   3.386  19.493  0.00  0.00    +0.000 A 
ATOM      5  C   UNL     1       1.017   4.044  20.542  0.00  0.00    +0.000 A 
ATOM      6  C   UNL     1       1.243   5.403  20.748  0.00  0.00    +0.000 A 
ATOM      7  C   UNL     1       2.140   6.161  19.954  0.00  0.00    +0.000 A 
ATOM      8  C   UNL     1       2.794   5.454  18.915  0.00  0.00    +0.000 A 
ATOM      9  O   UNL     1       3.788   5.868  18.027  0.00  0.00    +0.000 OA
ENDROOT
BRANCH   1  15
ATOM     10  C   UNL     1       6.570   5.305  16.483  0.00  0.00    +0.000 A 
ATOM     11  C   UNL     1       7.498   5.264  15.407  0.00  0.00    +0.000 A 
ATOM     12  C   UNL     1       7.172   4.748  14.153  0.00  0.00    +0.000 A 
ATOM     13  C   UNL     1       5.907   4.242  13.939  0.00  0.00    +0.000 A 
ATOM     14  C   UNL     1       4.991   4.243  14.991  0.00  0.00    +0.000 A 
ATOM     15  C   UNL     1       5.271   4.779  16.281  0.00  0.00    +0.000 A 
BRANCH  10  17
ATOM     16  C   UNL     1       7.922   5.286  18.687  0.00  0.00    +0.000 C 
ATOM     17  C   UNL     1       6.960   6.041  17.756  0.00  0.00    +0.000 C 
ATOM     18  C   UNL     1       7.577   7.385  17.357  0.00  0.00    +0.000 C 
ENDBRANCH  10  17
ENDBRANCH   1  15
BRANCH   7  19
ATOM     19  N   UNL     1       2.230   7.561  20.203  0.00  0.00    +0.000 N 
ATOM     20  C   UNL     1       1.132   8.299  20.647  0.00  0.00    +0.000 C 
ATOM     21  O   UNL     1       0.173   7.804  21.235  0.00  0.00    +0.000 OA
ATOM     22  N   UNL     1       1.199   9.643  20.294  0.00  0.00    +0.000 N 
ATOM     23  H   UNL     1       3.142   7.945  20.410  0.00  0.00    +0.000 HD
ATOM     24  H   UNL     1       1.517   9.797  19.349  0.00  0.00    +0.000 HD
BRANCH  22  25
ATOM     25  C   UNL     1       0.290  10.600  20.825  0.00  0.00    +0.000 A 
ATOM     26  C   UNL     1      -0.399  11.469  19.978  0.00  0.00    +0.000 A 
ATOM     27  C   UNL     1      -1.371  12.349  20.474  0.00  0.00    +0.000 A 
ATOM     28  C   UNL     1      -1.687  12.405  21.841  0.00  0.00    +0.000 A 
ATOM     29  C   UNL     1      -0.943  11.564  22.692  0.00  0.00    +0.000 A 
ATOM     30  C   UNL     1       0.009  10.652  22.190  0.00  0.00    +0.000 A 
BRANCH  28  31
ATOM     31  C   UNL     1      -2.815  13.307  22.385  0.00  0.00    +0.000 C 
ATOM     32  C   UNL     1      -2.404  14.128  23.631  0.00  0.00    +0.000 C 
ATOM     33  C   UNL     1      -3.232  14.325  21.297  0.00  0.00    +0.000 C 
ATOM     34  C   UNL     1      -4.052  12.473  22.779  0.00  0.00    +0.000 C 
ENDBRANCH  28  31
ENDBRANCH  22  25
ENDBRANCH   7  19
TORSDOF 5
ENDMDL
MODEL 6
REMARK VINA RESULT:      -8.8      4.344     10.463
REMARK  Name = 
REMARK  10 active torsions:
REMARK  status: ('A' for Active; 'I' for Inactive)
REMARK    1  A    between atoms: C_1  and  C_2
REMARK    2  A    between atoms: C_2  and  C_3
REMARK    3  A    between atoms: C_2  and  C_4
REMARK    4  A    between atoms: C_9  and  C_10
REMARK    5  A    between atoms: C_16  and  N_17
REMARK    6  A    between atoms: N_20  and  C_21
REMARK    7  A    between atoms: C_24  and  C_25
REMARK    8  A    between atoms: C_25  and  C_26
REMARK    9  A    between atoms: C_25  and  C_27
REMARK   10  A    between atoms: C_25  and  C_28
REMARK                            x       y       z     vdW  Elec       q    Type
REMARK                         _______ _______ _______ _____ _____    ______ ____
ROOT
ATOM      1  C   UNL     1       0.153  15.901  19.946  0.00  0.00    +0.000 A 
ATOM      2  C   UNL     1       0.107  16.347  21.252  0.00  0.00    +0.000 A 
ATOM      3  C   UNL     1      -0.462  15.332  22.042  0.00  0.00    +0.000 A 
ATOM      4  C   UNL     1      -0.886  15.303  23.376  0.00  0.00    +0.000 A 
ATOM      5  C   UNL     1      -1.398  14.121  23.892  0.00  0.00    +0.000 A 
ATOM      6  C   UNL     1      -1.459  12.980  23.095  0.00  0.00    +0.000 A 
ATOM      7  C   UNL     1      -1.061  12.972  21.734  0.00  0.00    +0.000 A 
ATOM      8  C   UNL     1      -0.577  14.202  21.225  0.00  0.00    +0.000 A 
ATOM      9  O   UNL     1      -0.200  14.557  19.929  0.00  0.00    +0.000 OA
ENDROOT
BRANCH   1  15
ATOM     10  C   UNL     1       1.674  16.765  18.009  0.00  0.00    +0.000 A 
ATOM     11  C   UNL     1       1.763  17.639  16.891  0.00  0.00    +0.000 A 
ATOM     12  C   UNL     1       0.699  18.441  16.478  0.00  0.00    +0.000 A 
ATOM     13  C   UNL     1      -0.496  18.383  17.165  0.00  0.00    +0.000 A 
ATOM     14  C   UNL     1      -0.615  17.509  18.245  0.00  0.00    +0.000 A 
ATOM     15  C   UNL     1       0.451  16.688  18.716  0.00  0.00    +0.000 A 
BRANCH  10  17
ATOM     16  C   UNL     1       3.911  15.631  17.380  0.00  0.00    +0.000 C 
ATOM     17  C   UNL     1       2.936  16.061  18.487  0.00  0.00    +0.000 C 
ATOM     18  C   UNL     1       3.652  16.988  19.474  0.00  0.00    +0.000 C 
ENDBRANCH  10  17
ENDBRANCH   1  15
BRANCH   7  19
ATOM     19  N   UNL     1      -1.088  11.728  21.040  0.00  0.00    +0.000 N 
ATOM     20  C   UNL     1       0.079  11.018  20.759  0.00  0.00    +0.000 C 
ATOM     21  O   UNL     1       1.124  11.150  21.393  0.00  0.00    +0.000 OA
ATOM     22  N   UNL     1      -0.035  10.199  19.641  0.00  0.00    +0.000 N 
ATOM     23  H   UNL     1      -1.943  11.189  21.073  0.00  0.00    +0.000 HD
ATOM     24  H   UNL     1      -0.518  10.634  18.869  0.00  0.00    +0.000 HD
BRANCH  22  25
ATOM     25  C   UNL     1       0.965   9.243  19.310  0.00  0.00    +0.000 A 
ATOM     26  C   UNL     1       1.304   8.231  20.210  0.00  0.00    +0.000 A 
ATOM     27  C   UNL     1       2.213   7.223  19.860  0.00  0.00    +0.000 A 
ATOM     28  C   UNL     1       2.833   7.191  18.600  0.00  0.00    +0.000 A 
ATOM     29  C   UNL     1       2.526   8.251  17.724  0.00  0.00    +0.000 A 
ATOM     30  C   UNL     1       1.583   9.245  18.060  0.00  0.00    +0.000 A 
BRANCH  28  31
ATOM     31  C   UNL     1       3.768   6.039  18.176  0.00  0.00    +0.000 C 
ATOM     32  C   UNL     1       3.016   4.798  17.638  0.00  0.00    +0.000 C 
ATOM     33  C   UNL     1       4.700   6.524  17.040  0.00  0.00    +0.000 C 
ATOM     34  C   UNL     1       4.638   5.566  19.359  0.00  0.00    +0.000 C 
ENDBRANCH  28  31
ENDBRANCH  22  25
ENDBRANCH   7  19
TORSDOF 5
ENDMDL
MODEL 7
REMARK VINA RESULT:      -8.7      3.338     10.406
REMARK  Name = 
REMARK  10 active torsions:
REMARK  status: ('A' for Active; 'I' for Inactive)
REMARK    1  A    between atoms: C_1  and  C_2
REMARK    2  A    between atoms: C_2  and  C_3
REMARK    3  A    between atoms: C_2  and  C_4
REMARK    4  A    between atoms: C_9  and  C_10
REMARK    5  A    between atoms: C_16  and  N_17
REMARK    6  A    between atoms: N_20  and  C_21
REMARK    7  A    between atoms: C_24  and  C_25
REMARK    8  A    between atoms: C_25  and  C_26
REMARK    9  A    between atoms: C_25  and  C_27
REMARK   10  A    between atoms: C_25  and  C_28
REMARK                            x       y       z     vdW  Elec       q    Type
REMARK                         _______ _______ _______ _____ _____    ______ ____
ROOT
ATOM      1  C   UNL     1      -1.627  12.935  19.504  0.00  0.00    +0.000 A 
ATOM      2  C   UNL     1      -0.952  14.138  19.562  0.00  0.00    +0.000 A 
ATOM      3  C   UNL     1       0.400  13.898  19.263  0.00  0.00    +0.000 A 
ATOM      4  C   UNL     1       1.539  14.709  19.332  0.00  0.00    +0.000 A 
ATOM      5  C   UNL     1       2.763  14.184  18.941  0.00  0.00    +0.000 A 
ATOM      6  C   UNL     1       2.840  12.878  18.463  0.00  0.00    +0.000 A 
ATOM      7  C   UNL     1       1.717  12.016  18.397  0.00  0.00    +0.000 A 
ATOM      8  C   UNL     1       0.489  12.568  18.838  0.00  0.00    +0.000 A 
ATOM      9  O   UNL     1      -0.765  11.974  18.992  0.00  0.00    +0.000 OA
ENDROOT
BRANCH   1  15
ATOM     10  C   UNL     1      -4.057  12.022  19.231  0.00  0.00    +0.000 A 
ATOM     11  C   UNL     1      -5.334  11.894  19.841  0.00  0.00    +0.000 A 
ATOM     12  C   UNL     1      -5.606  12.370  21.124  0.00  0.00    +0.000 A 
ATOM     13  C   UNL     1      -4.600  12.979  21.844  0.00  0.00    +0.000 A 
ATOM     14  C   UNL     1      -3.330  13.086  21.278  0.00  0.00    +0.000 A 
ATOM     15  C   UNL     1      -3.012  12.636  19.964  0.00  0.00    +0.000 A 
BRANCH  10  17
ATOM     16  C   UNL     1      -3.474  10.174  17.519  0.00  0.00    +0.000 C 
ATOM     17  C   UNL     1      -3.903  11.629  17.770  0.00  0.00    +0.000 C 
ATOM     18  C   UNL     1      -5.233  11.904  17.062  0.00  0.00    +0.000 C 
ENDBRANCH  10  17
ENDBRANCH   1  15
BRANCH   7  19
ATOM     19  N   UNL     1       1.898  10.729  17.814  0.00  0.00    +0.000 N 
ATOM     20  C   UNL     1       1.825   9.561  18.574  0.00  0.00    +0.000 C 
ATOM     21  O   UNL     1       1.225   9.484  19.644  0.00  0.00    +0.000 OA
ATOM     22  N   UNL     1       2.561   8.512  18.036  0.00  0.00    +0.000 N 
ATOM     23  H   UNL     1       1.717  10.631  16.824  0.00  0.00    +0.000 HD
ATOM     24  H   UNL     1       3.467   8.790  17.687  0.00  0.00    +0.000 HD
BRANCH  22  25
ATOM     25  C   UNL     1       2.452   7.187  18.541  0.00  0.00    +0.000 A 
ATOM     26  C   UNL     1       2.746   6.091  17.728  0.00  0.00    +0.000 A 
ATOM     27  C   UNL     1       2.741   4.786  18.240  0.00  0.00    +0.000 A 
ATOM     28  C   UNL     1       2.430   4.519  19.582  0.00  0.00    +0.000 A 
ATOM     29  C   UNL     1       2.079   5.628  20.376  0.00  0.00    +0.000 A 
ATOM     30  C   UNL     1       2.119   6.946  19.874  0.00  0.00    +0.000 A 
BRANCH  28  31
ATOM     31  C   UNL     1       2.506   3.096  20.174  0.00  0.00    +0.000 C 
ATOM     32  C   UNL     1       3.921   2.472  20.104  0.00  0.00    +0.000 C 
ATOM     33  C   UNL     1       2.109   3.137  21.669  0.00  0.00    +0.000 C 
ATOM     34  C   UNL     1       1.550   2.135  19.436  0.00  0.00    +0.000 C 
ENDBRANCH  28  31
ENDBRANCH  22  25
ENDBRANCH   7  19
TORSDOF 5
ENDMDL
MODEL 8
REMARK VINA RESULT:      -8.7      5.527     11.020
REMARK  Name = 
REMARK  10 active torsions:
REMARK  status: ('A' for Active; 'I' for Inactive)
REMARK    1  A    between atoms: C_1  and  C_2
REMARK    2  A    between atoms: C_2  and  C_3
REMARK    3  A    between atoms: C_2  and  C_4
REMARK    4  A    between atoms: C_9  and  C_10
REMARK    5  A    between atoms: C_16  and  N_17
REMARK    6  A    between atoms: N_20  and  C_21
REMARK    7  A    between atoms: C_24  and  C_25
REMARK    8  A    between atoms: C_25  and  C_26
REMARK    9  A    between atoms: C_25  and  C_27
REMARK   10  A    between atoms: C_25  and  C_28
REMARK                            x       y       z     vdW  Elec       q    Type
REMARK                         _______ _______ _______ _____ _____    ______ ____
ROOT
ATOM      1  C   UNL     1       0.406  12.880  20.023  0.00  0.00    +0.000 A 
ATOM      2  C   UNL     1      -0.412  13.991  20.085  0.00  0.00    +0.000 A 
ATOM      3  C   UNL     1       0.282  15.079  19.529  0.00  0.00    +0.000 A 
ATOM      4  C   UNL     1       0.002  16.450  19.479  0.00  0.00    +0.000 A 
ATOM      5  C   UNL     1       0.888  17.294  18.826  0.00  0.00    +0.000 A 
ATOM      6  C   UNL     1       2.023  16.771  18.209  0.00  0.00    +0.000 A 
ATOM      7  C   UNL     1       2.356  15.394  18.253  0.00  0.00    +0.000 A 
ATOM      8  C   UNL     1       1.451  14.563  18.959  0.00  0.00    +0.000 A 
ATOM      9  O   UNL     1       1.527  13.204  19.269  0.00  0.00    +0.000 OA
ENDROOT
BRANCH   1  15
ATOM     10  C   UNL     1       0.373  10.272  20.120  0.00  0.00    +0.000 A 
ATOM     11  C   UNL     1       0.069   9.134  20.916  0.00  0.00    +0.000 A 
ATOM     12  C   UNL     1      -0.402   9.236  22.225  0.00  0.00    +0.000 A 
ATOM     13  C   UNL     1      -0.571  10.485  22.785  0.00  0.00    +0.000 A 
ATOM     14  C   UNL     1      -0.248  11.615  22.033  0.00  0.00    +0.000 A 
ATOM     15  C   UNL     1       0.214  11.560  20.686  0.00  0.00    +0.000 A 
BRANCH  10  17
ATOM     16  C   UNL     1       1.651   8.885  18.351  0.00  0.00    +0.000 C 
ATOM     17  C   UNL     1       0.715  10.066  18.651  0.00  0.00    +0.000 C 
ATOM     18  C   UNL     1      -0.596   9.895  17.878  0.00  0.00    +0.000 C 
ENDBRANCH  10  17
ENDBRANCH   1  15
BRANCH   7  19
ATOM     19  N   UNL     1       3.495  14.960  17.516  0.00  0.00    +0.000 N 
ATOM     20  C   UNL     1       4.707  14.670  18.143  0.00  0.00    +0.000 C 
ATOM     21  O   UNL     1       4.803  14.365  19.330  0.00  0.00    +0.000 OA
ATOM     22  N   UNL     1       5.807  14.832  17.307  0.00  0.00    +0.000 N 
ATOM     23  H   UNL     1       3.336  14.518  16.621  0.00  0.00    +0.000 HD
ATOM     24  H   UNL     1       5.761  15.661  16.735  0.00  0.00    +0.000 HD
BRANCH  22  25
ATOM     25  C   UNL     1       7.105  14.391  17.687  0.00  0.00    +0.000 A 
ATOM     26  C   UNL     1       7.525  13.092  17.399  0.00  0.00    +0.000 A 
ATOM     27  C   UNL     1       8.835  12.674  17.676  0.00  0.00    +0.000 A 
ATOM     28  C   UNL     1       9.776  13.534  18.264  0.00  0.00    +0.000 A 
ATOM     29  C   UNL     1       9.321  14.823  18.603  0.00  0.00    +0.000 A 
ATOM     30  C   UNL     1       8.015  15.258  18.292  0.00  0.00    +0.000 A 
BRANCH  28  31
ATOM     31  C   UNL     1      11.242  13.110  18.493  0.00  0.00    +0.000 C 
ATOM     32  C   UNL     1      11.995  14.010  19.503  0.00  0.00    +0.000 C 
ATOM     33  C   UNL     1      11.281  11.672  19.060  0.00  0.00    +0.000 C 
ATOM     34  C   UNL     1      12.042  13.142  17.174  0.00  0.00    +0.000 C 
ENDBRANCH  28  31
ENDBRANCH  22  25
ENDBRANCH   7  19
TORSDOF 5
ENDMDL
MODEL 9
REMARK VINA RESULT:      -8.5      4.401     10.550
REMARK  Name = 
REMARK  10 active torsions:
REMARK  status: ('A' for Active; 'I' for Inactive)
REMARK    1  A    between atoms: C_1  and  C_2
REMARK    2  A    between atoms: C_2  and  C_3
REMARK    3  A    between atoms: C_2  and  C_4
REMARK    4  A    between atoms: C_9  and  C_10
REMARK    5  A    between atoms: C_16  and  N_17
REMARK    6  A    between atoms: N_20  and  C_21
REMARK    7  A    between atoms: C_24  and  C_25
REMARK    8  A    between atoms: C_25  and  C_26
REMARK    9  A    between atoms: C_25  and  C_27
REMARK   10  A    between atoms: C_25  and  C_28
REMARK                            x       y       z     vdW  Elec       q    Type
REMARK                         _______ _______ _______ _____ _____    ______ ____
ROOT
ATOM      1  C   UNL     1       0.260  16.161  19.870  0.00  0.00    +0.000 A 
ATOM      2  C   UNL     1       0.295  16.646  21.162  0.00  0.00    +0.000 A 
ATOM      3  C   UNL     1      -0.260  15.672  22.011  0.00  0.00    +0.000 A 
ATOM      4  C   UNL     1      -0.615  15.694  23.365  0.00  0.00    +0.000 A 
ATOM      5  C   UNL     1      -1.132  14.544  23.943  0.00  0.00    +0.000 A 
ATOM      6  C   UNL     1      -1.268  13.383  23.186  0.00  0.00    +0.000 A 
ATOM      7  C   UNL     1      -0.941  13.323  21.808  0.00  0.00    +0.000 A 
ATOM      8  C   UNL     1      -0.451  14.523  21.236  0.00  0.00    +0.000 A 
ATOM      9  O   UNL     1      -0.132  14.829  19.913  0.00  0.00    +0.000 OA
ENDROOT
BRANCH   1  15
ATOM     10  C   UNL     1       1.741  17.043  17.910  0.00  0.00    +0.000 A 
ATOM     11  C   UNL     1       1.778  17.860  16.747  0.00  0.00    +0.000 A 
ATOM     12  C   UNL     1       0.660  18.547  16.275  0.00  0.00    +0.000 A 
ATOM     13  C   UNL     1      -0.538  18.427  16.947  0.00  0.00    +0.000 A 
ATOM     14  C   UNL     1      -0.605  17.605  18.072  0.00  0.00    +0.000 A 
ATOM     15  C   UNL     1       0.515  16.903  18.603  0.00  0.00    +0.000 A 
BRANCH  10  17
ATOM     16  C   UNL     1       3.448  16.945  19.850  0.00  0.00    +0.000 C 
ATOM     17  C   UNL     1       3.047  16.473  18.444  0.00  0.00    +0.000 C 
ATOM     18  C   UNL     1       2.941  14.945  18.423  0.00  0.00    +0.000 C 
ENDBRANCH  10  17
ENDBRANCH   1  15
BRANCH   7  19
ATOM     19  N   UNL     1      -1.041  12.061  21.154  0.00  0.00    +0.000 N 
ATOM     20  C   UNL     1       0.089  11.306  20.840  0.00  0.00    +0.000 C 
ATOM     21  O   UNL     1       1.167  11.422  21.419  0.00  0.00    +0.000 OA
ATOM     22  N   UNL     1      -0.105  10.458  19.754  0.00  0.00    +0.000 N 
ATOM     23  H   UNL     1      -1.910  11.551  21.244  0.00  0.00    +0.000 HD
ATOM     24  H   UNL     1      -0.611  10.885  18.993  0.00  0.00    +0.000 HD
BRANCH  22  25
ATOM     25  C   UNL     1       0.848   9.461  19.406  0.00  0.00    +0.000 A 
ATOM     26  C   UNL     1       1.204   8.470  20.321  0.00  0.00    +0.000 A 
ATOM     27  C   UNL     1       2.064   7.422  19.960  0.00  0.00    +0.000 A 
ATOM     28  C   UNL     1       2.615   7.330  18.673  0.00  0.00    +0.000 A 
ATOM     29  C   UNL     1       2.294   8.369  17.777  0.00  0.00    +0.000 A 
ATOM     30  C   UNL     1       1.400   9.403  18.126  0.00  0.00    +0.000 A 
BRANCH  28  31
ATOM     31  C   UNL     1       3.493   6.136  18.241  0.00  0.00    +0.000 C 
ATOM     32  C   UNL     1       4.478   6.475  17.097  0.00  0.00    +0.000 C 
ATOM     33  C   UNL     1       4.346   5.662  19.441  0.00  0.00    +0.000 C 
ATOM     34  C   UNL     1       2.625   4.955  17.757  0.00  0.00    +0.000 C 
ENDBRANCH  28  31
ENDBRANCH  22  25
ENDBRANCH   7  19
TORSDOF 5
ENDMDL
