MODEL 1
REMARK VINA RESULT:      -7.7      0.000      0.000
REMARK  Name = 
REMARK  8 active torsions:
REMARK  status: ('A' for Active; 'I' for Inactive)
REMARK    1  A    between atoms: C_1  and  C_2
REMARK    2  A    between atoms: C_2  and  C_3
REMARK    3  A    between atoms: C_2  and  C_4
REMARK    4  A    between atoms: C_2  and  O_5
REMARK    5  A    between atoms: O_5  and  C_6
REMARK    6  A    between atoms: C_6  and  C_8
REMARK    7  A    between atoms: C_8  and  C_9
REMARK    8  A    between atoms: C_11  and  C_12
REMARK                            x       y       z     vdW  Elec       q    Type
REMARK                         _______ _______ _______ _____ _____    ______ ____
ROOT
ATOM      1  C   UNL     1       6.192   4.425  15.839  0.00  0.00    +0.000 C 
ATOM      2  C   UNL     1       4.838   4.361  15.843  0.00  0.00    +0.000 C 
ENDROOT
BRANCH   2   3
ATOM      3  C   UNL     1       4.048   4.309  17.031  0.00  0.00    +0.000 A 
ATOM      4  C   UNL     1       3.553   5.253  17.912  0.00  0.00    +0.000 A 
ATOM      5  C   UNL     1       2.765   4.594  18.889  0.00  0.00    +0.000 A 
ATOM      6  C   UNL     1       1.989   5.045  19.973  0.00  0.00    +0.000 A 
ATOM      7  C   UNL     1       1.316   4.109  20.765  0.00  0.00    +0.000 A 
ATOM      8  C   UNL     1       1.416   2.748  20.488  0.00  0.00    +0.000 A 
ATOM      9  C   UNL     1       2.181   2.280  19.413  0.00  0.00    +0.000 A 
ATOM     10  C   UNL     1       2.842   3.231  18.623  0.00  0.00    +0.000 A 
ATOM     11  N   UNL     1       3.644   3.079  17.509  0.00  0.00    +0.000 N 
ATOM     12  H   UNL     1       3.859   2.187  17.090  0.00  0.00    +0.000 HD
ENDBRANCH   2   3
BRANCH   1  13
ATOM     13  C   UNL     1       6.850   4.426  14.519  0.00  0.00    +0.000 C 
ATOM     14  O   UNL     1       7.556   5.363  14.162  0.00  0.00    +0.000 OA
BRANCH  13  15
ATOM     15  O   UNL     1       6.587   3.321  13.781  0.00  0.00    +0.000 OA
BRANCH  15  17
ATOM     16  C   UNL     1       7.206   4.569  11.738  0.00  0.00    +0.000 C 
ATOM     17  C   UNL     1       6.300   3.494  12.361  0.00  0.00    +0.000 C 
ATOM     18  C   UNL     1       4.811   3.788  12.114  0.00  0.00    +0.000 C 
ATOM     19  C   UNL     1       6.632   2.153  11.688  0.00  0.00    +0.000 C 
ENDBRANCH  15  17
ENDBRANCH  13  15
ENDBRANCH   1  13
BRANCH   1  20
ATOM     20  C   UNL     1       6.922   4.517  17.168  0.00  0.00    +0.000 C 
ATOM     21  N   UNL     1       7.529   4.593  18.272  0.00  0.00    +0.000 NA
ENDBRANCH   1  20
TORSDOF 5
ENDMDL
MODEL 2
REMARK VINA RESULT:      -7.6      1.255      1.388
REMARK  Name = 
REMARK  8 active torsions:
REMARK  status: ('A' for Active; 'I' for Inactive)
REMARK    1  A    between atoms: C_1  and  C_2
REMARK    2  A    between atoms: C_2  and  C_3
REMARK    3  A    between atoms: C_2  and  C_4
REMARK    4  A    between atoms: C_2  and  O_5
REMARK    5  A    between atoms: O_5  and  C_6
REMARK    6  A    between atoms: C_6  and  C_8
REMARK    7  A    between atoms: C_8  and  C_9
REMARK    8  A    between atoms: C_11  and  C_12
REMARK                            x       y       z     vdW  Elec       q    Type
REMARK                         _______ _______ _______ _____ _____    ______ ____
ROOT
ATOM      1  C   UNL     1       5.658   4.649  15.693  0.00  0.00    +0.000 C 
ATOM      2  C   UNL     1       5.035   3.519  16.110  0.00  0.00    +0.000 C 
ENDROOT
BRANCH   2   3
ATOM      3  C   UNL     1       4.102   3.478  17.189  0.00  0.00    +0.000 A 
ATOM      4  C   UNL     1       2.755   3.763  17.321  0.00  0.00    +0.000 A 
ATOM      5  C   UNL     1       2.355   3.464  18.648  0.00  0.00    +0.000 A 
ATOM      6  C   UNL     1       1.119   3.504  19.320  0.00  0.00    +0.000 A 
ATOM      7  C   UNL     1       1.064   3.134  20.668  0.00  0.00    +0.000 A 
ATOM      8  C   UNL     1       2.219   2.738  21.339  0.00  0.00    +0.000 A 
ATOM      9  C   UNL     1       3.457   2.690  20.687  0.00  0.00    +0.000 A 
ATOM     10  C   UNL     1       3.494   3.054  19.334  0.00  0.00    +0.000 A 
ATOM     11  N   UNL     1       4.544   3.094  18.439  0.00  0.00    +0.000 N 
ATOM     12  H   UNL     1       5.490   2.832  18.671  0.00  0.00    +0.000 HD
ENDBRANCH   2   3
BRANCH   1  13
ATOM     13  C   UNL     1       6.628   4.503  14.592  0.00  0.00    +0.000 C 
ATOM     14  O   UNL     1       7.490   5.350  14.387  0.00  0.00    +0.000 OA
BRANCH  13  15
ATOM     15  O   UNL     1       6.453   3.373  13.864  0.00  0.00    +0.000 OA
BRANCH  15  17
ATOM     16  C   UNL     1       7.174   4.541  11.807  0.00  0.00    +0.000 C 
ATOM     17  C   UNL     1       6.220   3.509  12.429  0.00  0.00    +0.000 C 
ATOM     18  C   UNL     1       4.749   3.830  12.121  0.00  0.00    +0.000 C 
ATOM     19  C   UNL     1       6.542   2.140  11.810  0.00  0.00    +0.000 C 
ENDBRANCH  15  17
ENDBRANCH  13  15
ENDBRANCH   1  13
BRANCH   1  20
ATOM     20  C   UNL     1       5.300   5.968  16.359  0.00  0.00    +0.000 C 
ATOM     21  N   UNL     1       5.002   7.062  16.911  0.00  0.00    +0.000 NA
ENDBRANCH   1  20
TORSDOF 5
ENDMDL
MODEL 3
REMARK VINA RESULT:      -7.4      0.713      1.359
REMARK  Name = 
REMARK  8 active torsions:
REMARK  status: ('A' for Active; 'I' for Inactive)
REMARK    1  A    between atoms: C_1  and  C_2
REMARK    2  A    between atoms: C_2  and  C_3
REMARK    3  A    between atoms: C_2  and  C_4
REMARK    4  A    between atoms: C_2  and  O_5
REMARK    5  A    between atoms: O_5  and  C_6
REMARK    6  A    between atoms: C_6  and  C_8
REMARK    7  A    between atoms: C_8  and  C_9
REMARK    8  A    between atoms: C_11  and  C_12
REMARK                            x       y       z     vdW  Elec       q    Type
REMARK                         _______ _______ _______ _____ _____    ______ ____
ROOT
ATOM      1  C   UNL     1       6.156   4.320  15.782  0.00  0.00    +0.000 C 
ATOM      2  C   UNL     1       4.817   4.121  15.860  0.00  0.00    +0.000 C 
ENDROOT
BRANCH   2   3
ATOM      3  C   UNL     1       4.107   3.970  17.089  0.00  0.00    +0.000 A 
ATOM      4  C   UNL     1       3.760   2.894  17.886  0.00  0.00    +0.000 A 
ATOM      5  C   UNL     1       3.099   3.380  19.042  0.00  0.00    +0.000 A 
ATOM      6  C   UNL     1       2.585   2.760  20.197  0.00  0.00    +0.000 A 
ATOM      7  C   UNL     1       1.974   3.548  21.179  0.00  0.00    +0.000 A 
ATOM      8  C   UNL     1       1.869   4.927  21.013  0.00  0.00    +0.000 A 
ATOM      9  C   UNL     1       2.376   5.562  19.872  0.00  0.00    +0.000 A 
ATOM     10  C   UNL     1       2.993   4.760  18.902  0.00  0.00    +0.000 A 
ATOM     11  N   UNL     1       3.588   5.093  17.702  0.00  0.00    +0.000 N 
ATOM     12  H   UNL     1       3.664   6.038  17.356  0.00  0.00    +0.000 HD
ENDBRANCH   2   3
BRANCH   1  13
ATOM     13  C   UNL     1       6.734   4.410  14.428  0.00  0.00    +0.000 C 
ATOM     14  O   UNL     1       7.298   5.429  14.044  0.00  0.00    +0.000 OA
BRANCH  13  15
ATOM     15  O   UNL     1       6.567   3.285  13.692  0.00  0.00    +0.000 OA
BRANCH  15  17
ATOM     16  C   UNL     1       7.174   4.468  11.607  0.00  0.00    +0.000 C 
ATOM     17  C   UNL     1       6.256   3.430  12.274  0.00  0.00    +0.000 C 
ATOM     18  C   UNL     1       4.770   3.753  12.048  0.00  0.00    +0.000 C 
ATOM     19  C   UNL     1       6.544   2.065  11.628  0.00  0.00    +0.000 C 
ENDBRANCH  15  17
ENDBRANCH  13  15
ENDBRANCH   1  13
BRANCH   1  20
ATOM     20  C   UNL     1       6.950   4.461  17.071  0.00  0.00    +0.000 C 
ATOM     21  N   UNL     1       7.608   4.579  18.140  0.00  0.00    +0.000 NA
ENDBRANCH   1  20
TORSDOF 5
ENDMDL
MODEL 4
REMARK VINA RESULT:      -7.2      3.367      4.914
REMARK  Name = 
REMARK  8 active torsions:
REMARK  status: ('A' for Active; 'I' for Inactive)
REMARK    1  A    between atoms: C_1  and  C_2
REMARK    2  A    between atoms: C_2  and  C_3
REMARK    3  A    between atoms: C_2  and  C_4
REMARK    4  A    between atoms: C_2  and  O_5
REMARK    5  A    between atoms: O_5  and  C_6
REMARK    6  A    between atoms: C_6  and  C_8
REMARK    7  A    between atoms: C_8  and  C_9
REMARK    8  A    between atoms: C_11  and  C_12
REMARK                            x       y       z     vdW  Elec       q    Type
REMARK                         _______ _______ _______ _____ _____    ______ ____
ROOT
ATOM      1  C   UNL     1       3.630   4.870  18.215  0.00  0.00    +0.000 C 
ATOM      2  C   UNL     1       3.907   6.039  18.844  0.00  0.00    +0.000 C 
ENDROOT
BRANCH   2   3
ATOM      3  C   UNL     1       2.944   7.068  19.069  0.00  0.00    +0.000 A 
ATOM      4  C   UNL     1       2.411   8.086  18.300  0.00  0.00    +0.000 A 
ATOM      5  C   UNL     1       1.424   8.762  19.061  0.00  0.00    +0.000 A 
ATOM      6  C   UNL     1       0.537   9.818  18.779  0.00  0.00    +0.000 A 
ATOM      7  C   UNL     1      -0.335  10.262  19.779  0.00  0.00    +0.000 A 
ATOM      8  C   UNL     1      -0.321   9.670  21.040  0.00  0.00    +0.000 A 
ATOM      9  C   UNL     1       0.552   8.617  21.339  0.00  0.00    +0.000 A 
ATOM     10  C   UNL     1       1.412   8.178  20.324  0.00  0.00    +0.000 A 
ATOM     11  N   UNL     1       2.357   7.171  20.314  0.00  0.00    +0.000 N 
ATOM     12  H   UNL     1       2.549   6.574  21.104  0.00  0.00    +0.000 HD
ENDBRANCH   2   3
BRANCH   1  13
ATOM     13  C   UNL     1       4.756   3.937  18.028  0.00  0.00    +0.000 C 
ATOM     14  O   UNL     1       5.375   3.486  18.985  0.00  0.00    +0.000 OA
BRANCH  13  15
ATOM     15  O   UNL     1       5.016   3.656  16.728  0.00  0.00    +0.000 OA
BRANCH  15  17
ATOM     16  C   UNL     1       7.278   4.651  16.793  0.00  0.00    +0.000 C 
ATOM     17  C   UNL     1       5.960   4.510  16.015  0.00  0.00    +0.000 C 
ATOM     18  C   UNL     1       5.345   5.877  15.677  0.00  0.00    +0.000 C 
ATOM     19  C   UNL     1       6.272   3.794  14.690  0.00  0.00    +0.000 C 
ENDBRANCH  15  17
ENDBRANCH  13  15
ENDBRANCH   1  13
BRANCH   1  20
ATOM     20  C   UNL     1       2.199   4.596  17.781  0.00  0.00    +0.000 C 
ATOM     21  N   UNL     1       1.011   4.368  17.421  0.00  0.00    +0.000 NA
ENDBRANCH   1  20
TORSDOF 5
ENDMDL
MODEL 5
REMARK VINA RESULT:      -7.2      1.300      1.354
REMARK  Name = 
REMARK  8 active torsions:
REMARK  status: ('A' for Active; 'I' for Inactive)
REMARK    1  A    between atoms: C_1  and  C_2
REMARK    2  A    between atoms: C_2  and  C_3
REMARK    3  A    between atoms: C_2  and  C_4
REMARK    4  A    between atoms: C_2  and  O_5
REMARK    5  A    between atoms: O_5  and  C_6
REMARK    6  A    between atoms: C_6  and  C_8
REMARK    7  A    between atoms: C_8  and  C_9
REMARK    8  A    between atoms: C_11  and  C_12
REMARK                            x       y       z     vdW  Elec       q    Type
REMARK                         _______ _______ _______ _____ _____    ______ ____
ROOT
ATOM      1  C   UNL     1       5.743   4.737  15.565  0.00  0.00    +0.000 C 
ATOM      2  C   UNL     1       5.324   3.620  16.211  0.00  0.00    +0.000 C 
ENDROOT
BRANCH   2   3
ATOM      3  C   UNL     1       4.427   3.634  17.321  0.00  0.00    +0.000 A 
ATOM      4  C   UNL     1       4.504   4.079  18.628  0.00  0.00    +0.000 A 
ATOM      5  C   UNL     1       3.247   3.877  19.252  0.00  0.00    +0.000 A 
ATOM      6  C   UNL     1       2.738   4.184  20.527  0.00  0.00    +0.000 A 
ATOM      7  C   UNL     1       1.417   3.840  20.835  0.00  0.00    +0.000 A 
ATOM      8  C   UNL     1       0.618   3.197  19.893  0.00  0.00    +0.000 A 
ATOM      9  C   UNL     1       1.106   2.886  18.618  0.00  0.00    +0.000 A 
ATOM     10  C   UNL     1       2.428   3.245  18.322  0.00  0.00    +0.000 A 
ATOM     11  N   UNL     1       3.170   3.085  17.169  0.00  0.00    +0.000 N 
ATOM     12  H   UNL     1       2.813   2.662  16.326  0.00  0.00    +0.000 HD
ENDBRANCH   2   3
BRANCH   1  13
ATOM     13  C   UNL     1       6.707   4.543  14.466  0.00  0.00    +0.000 C 
ATOM     14  O   UNL     1       7.581   5.371  14.234  0.00  0.00    +0.000 OA
BRANCH  13  15
ATOM     15  O   UNL     1       6.513   3.396  13.772  0.00  0.00    +0.000 OA
BRANCH  15  17
ATOM     16  C   UNL     1       7.157   4.548  11.681  0.00  0.00    +0.000 C 
ATOM     17  C   UNL     1       6.252   3.494  12.339  0.00  0.00    +0.000 C 
ATOM     18  C   UNL     1       4.765   3.755  12.050  0.00  0.00    +0.000 C 
ATOM     19  C   UNL     1       6.614   2.125  11.741  0.00  0.00    +0.000 C 
ENDBRANCH  15  17
ENDBRANCH  13  15
ENDBRANCH   1  13
BRANCH   1  20
ATOM     20  C   UNL     1       5.180   6.082  15.994  0.00  0.00    +0.000 C 
ATOM     21  N   UNL     1       4.712   7.199  16.349  0.00  0.00    +0.000 NA
ENDBRANCH   1  20
TORSDOF 5
ENDMDL
MODEL 6
REMARK VINA RESULT:      -7.2      0.761      1.717
REMARK  Name = 
REMARK  8 active torsions:
REMARK  status: ('A' for Active; 'I' for Inactive)
REMARK    1  A    between atoms: C_1  and  C_2
REMARK    2  A    between atoms: C_2  and  C_3
REMARK    3  A    between atoms: C_2  and  C_4
REMARK    4  A    between atoms: C_2  and  O_5
REMARK    5  A    between atoms: O_5  and  C_6
REMARK    6  A    between atoms: C_6  and  C_8
REMARK    7  A    between atoms: C_8  and  C_9
REMARK    8  A    between atoms: C_11  and  C_12
REMARK                            x       y       z     vdW  Elec       q    Type
REMARK                         _______ _______ _______ _____ _____    ______ ____
ROOT
ATOM      1  C   UNL     1       6.292   4.446  15.787  0.00  0.00    +0.000 C 
ATOM      2  C   UNL     1       4.938   4.366  15.786  0.00  0.00    +0.000 C 
ENDROOT
BRANCH   2   3
ATOM      3  C   UNL     1       4.147   4.281  16.971  0.00  0.00    +0.000 A 
ATOM      4  C   UNL     1       3.684   3.242  17.759  0.00  0.00    +0.000 A 
ATOM      5  C   UNL     1       2.986   3.788  18.866  0.00  0.00    +0.000 A 
ATOM      6  C   UNL     1       2.366   3.222  19.995  0.00  0.00    +0.000 A 
ATOM      7  C   UNL     1       1.748   4.063  20.927  0.00  0.00    +0.000 A 
ATOM      8  C   UNL     1       1.742   5.442  20.737  0.00  0.00    +0.000 A 
ATOM      9  C   UNL     1       2.356   6.025  19.622  0.00  0.00    +0.000 A 
ATOM     10  C   UNL     1       2.979   5.170  18.702  0.00  0.00    +0.000 A 
ATOM     11  N   UNL     1       3.665   5.444  17.536  0.00  0.00    +0.000 N 
ATOM     12  H   UNL     1       3.821   6.376  17.183  0.00  0.00    +0.000 HD
ENDBRANCH   2   3
BRANCH   1  13
ATOM     13  C   UNL     1       6.953   4.482  14.469  0.00  0.00    +0.000 C 
ATOM     14  O   UNL     1       7.588   5.465  14.103  0.00  0.00    +0.000 OA
BRANCH  13  15
ATOM     15  O   UNL     1       6.777   3.351  13.744  0.00  0.00    +0.000 OA
BRANCH  15  17
ATOM     16  C   UNL     1       4.916   3.822  12.185  0.00  0.00    +0.000 C 
ATOM     17  C   UNL     1       6.409   3.486  12.338  0.00  0.00    +0.000 C 
ATOM     18  C   UNL     1       6.801   2.242  11.526  0.00  0.00    +0.000 C 
ATOM     19  C   UNL     1       7.215   4.676  11.794  0.00  0.00    +0.000 C 
ENDBRANCH  15  17
ENDBRANCH  13  15
ENDBRANCH   1  13
BRANCH   1  20
ATOM     20  C   UNL     1       7.018   4.521  17.120  0.00  0.00    +0.000 C 
ATOM     21  N   UNL     1       7.620   4.583  18.227  0.00  0.00    +0.000 NA
ENDBRANCH   1  20
TORSDOF 5
ENDMDL
MODEL 7
REMARK VINA RESULT:      -7.0      3.425      5.071
REMARK  Name = 
REMARK  8 active torsions:
REMARK  status: ('A' for Active; 'I' for Inactive)
REMARK    1  A    between atoms: C_1  and  C_2
REMARK    2  A    between atoms: C_2  and  C_3
REMARK    3  A    between atoms: C_2  and  C_4
REMARK    4  A    between atoms: C_2  and  O_5
REMARK    5  A    between atoms: O_5  and  C_6
REMARK    6  A    between atoms: C_6  and  C_8
REMARK    7  A    between atoms: C_8  and  C_9
REMARK    8  A    between atoms: C_11  and  C_12
REMARK                            x       y       z     vdW  Elec       q    Type
REMARK                         _______ _______ _______ _____ _____    ______ ____
ROOT
ATOM      1  C   UNL     1       3.610   4.835  18.369  0.00  0.00    +0.000 C 
ATOM      2  C   UNL     1       3.813   5.951  19.112  0.00  0.00    +0.000 C 
ENDROOT
BRANCH   2   3
ATOM      3  C   UNL     1       2.798   6.916  19.390  0.00  0.00    +0.000 A 
ATOM      4  C   UNL     1       1.945   7.151  20.453  0.00  0.00    +0.000 A 
ATOM      5  C   UNL     1       1.189   8.319  20.179  0.00  0.00    +0.000 A 
ATOM      6  C   UNL     1       0.230   9.046  20.908  0.00  0.00    +0.000 A 
ATOM      7  C   UNL     1      -0.342  10.187  20.335  0.00  0.00    +0.000 A 
ATOM      8  C   UNL     1       0.028  10.595  19.056  0.00  0.00    +0.000 A 
ATOM      9  C   UNL     1       0.982   9.886  18.315  0.00  0.00    +0.000 A 
ATOM     10  C   UNL     1       1.552   8.751  18.907  0.00  0.00    +0.000 A 
ATOM     11  N   UNL     1       2.510   7.873  18.439  0.00  0.00    +0.000 N 
ATOM     12  H   UNL     1       2.958   7.959  17.539  0.00  0.00    +0.000 HD
ENDBRANCH   2   3
BRANCH   1  13
ATOM     13  C   UNL     1       4.782   3.969  18.144  0.00  0.00    +0.000 C 
ATOM     14  O   UNL     1       5.464   3.566  19.079  0.00  0.00    +0.000 OA
BRANCH  13  15
ATOM     15  O   UNL     1       5.007   3.690  16.837  0.00  0.00    +0.000 OA
BRANCH  15  17
ATOM     16  C   UNL     1       7.288   4.643  16.834  0.00  0.00    +0.000 C 
ATOM     17  C   UNL     1       5.940   4.539  16.103  0.00  0.00    +0.000 C 
ATOM     18  C   UNL     1       5.339   5.923  15.810  0.00  0.00    +0.000 C 
ATOM     19  C   UNL     1       6.189   3.840  14.757  0.00  0.00    +0.000 C 
ENDBRANCH  15  17
ENDBRANCH  13  15
ENDBRANCH   1  13
BRANCH   1  20
ATOM     20  C   UNL     1       2.210   4.547  17.853  0.00  0.00    +0.000 C 
ATOM     21  N   UNL     1       1.048   4.307  17.425  0.00  0.00    +0.000 NA
ENDBRANCH   1  20
TORSDOF 5
ENDMDL
MODEL 8
REMARK VINA RESULT:      -6.8      3.869      5.774
REMARK  Name = 
REMARK  8 active torsions:
REMARK  status: ('A' for Active; 'I' for Inactive)
REMARK    1  A    between atoms: C_1  and  C_2
REMARK    2  A    between atoms: C_2  and  C_3
REMARK    3  A    between atoms: C_2  and  C_4
REMARK    4  A    between atoms: C_2  and  O_5
REMARK    5  A    between atoms: O_5  and  C_6
REMARK    6  A    between atoms: C_6  and  C_8
REMARK    7  A    between atoms: C_8  and  C_9
REMARK    8  A    between atoms: C_11  and  C_12
REMARK                            x       y       z     vdW  Elec       q    Type
REMARK                         _______ _______ _______ _____ _____    ______ ____
ROOT
ATOM      1  C   UNL     1       3.033   5.868  18.283  0.00  0.00    +0.000 C 
ATOM      2  C   UNL     1       3.010   7.218  18.158  0.00  0.00    +0.000 C 
ENDROOT
BRANCH   2   3
ATOM      3  C   UNL     1       2.167   8.073  18.930  0.00  0.00    +0.000 A 
ATOM      4  C   UNL     1       1.353   9.154  18.642  0.00  0.00    +0.000 A 
ATOM      5  C   UNL     1       0.699   9.561  19.832  0.00  0.00    +0.000 A 
ATOM      6  C   UNL     1      -0.263  10.546  20.121  0.00  0.00    +0.000 A 
ATOM      7  C   UNL     1      -0.714  10.694  21.438  0.00  0.00    +0.000 A 
ATOM      8  C   UNL     1      -0.211   9.880  22.451  0.00  0.00    +0.000 A 
ATOM      9  C   UNL     1       0.744   8.893  22.182  0.00  0.00    +0.000 A 
ATOM     10  C   UNL     1       1.178   8.751  20.857  0.00  0.00    +0.000 A 
ATOM     11  N   UNL     1       2.084   7.875  20.293  0.00  0.00    +0.000 N 
ATOM     12  H   UNL     1       2.576   7.164  20.813  0.00  0.00    +0.000 HD
ENDBRANCH   2   3
BRANCH   1  13
ATOM     13  C   UNL     1       3.933   5.135  17.374  0.00  0.00    +0.000 C 
ATOM     14  O   UNL     1       3.714   3.969  17.066  0.00  0.00    +0.000 OA
BRANCH  13  15
ATOM     15  O   UNL     1       4.987   5.871  16.945  0.00  0.00    +0.000 OA
BRANCH  15  17
ATOM     16  C   UNL     1       7.062   4.540  16.759  0.00  0.00    +0.000 C 
ATOM     17  C   UNL     1       6.293   5.616  17.543  0.00  0.00    +0.000 C 
ATOM     18  C   UNL     1       6.176   5.263  19.035  0.00  0.00    +0.000 C 
ATOM     19  C   UNL     1       7.082   6.931  17.432  0.00  0.00    +0.000 C 
ENDBRANCH  15  17
ENDBRANCH  13  15
ENDBRANCH   1  13
BRANCH   1  20
ATOM     20  C   UNL     1       2.166   5.219  19.349  0.00  0.00    +0.000 C 
ATOM     21  N   UNL     1       1.446   4.680  20.234  0.00  0.00    +0.000 NA
ENDBRANCH   1  20
TORSDOF 5
ENDMDL
MODEL 9
REMARK VINA RESULT:      -6.8      2.639      7.198
REMARK  Name = 
REMARK  8 active torsions:
REMARK  status: ('A' for Active; 'I' for Inactive)
REMARK    1  A    between atoms: C_1  and  C_2
REMARK    2  A    between atoms: C_2  and  C_3
REMARK    3  A    between atoms: C_2  and  C_4
REMARK    4  A    between atoms: C_2  and  O_5
REMARK    5  A    between atoms: O_5  and  C_6
REMARK    6  A    between atoms: C_6  and  C_8
REMARK    7  A    between atoms: C_8  and  C_9
REMARK    8  A    between atoms: C_11  and  C_12
REMARK                            x       y       z     vdW  Elec       q    Type
REMARK                         _______ _______ _______ _____ _____    ______ ____
ROOT
ATOM      1  C   UNL     1       4.855   4.582  18.145  0.00  0.00    +0.000 C 
ATOM      2  C   UNL     1       5.678   3.796  17.409  0.00  0.00    +0.000 C 
ENDROOT
BRANCH   2   3
ATOM      3  C   UNL     1       6.137   4.132  16.100  0.00  0.00    +0.000 A 
ATOM      4  C   UNL     1       7.002   5.082  15.587  0.00  0.00    +0.000 A 
ATOM      5  C   UNL     1       7.117   4.884  14.188  0.00  0.00    +0.000 A 
ATOM      6  C   UNL     1       7.881   5.502  13.181  0.00  0.00    +0.000 A 
ATOM      7  C   UNL     1       7.758   5.056  11.860  0.00  0.00    +0.000 A 
ATOM      8  C   UNL     1       6.885   4.018  11.545  0.00  0.00    +0.000 A 
ATOM      9  C   UNL     1       6.118   3.389  12.533  0.00  0.00    +0.000 A 
ATOM     10  C   UNL     1       6.259   3.841  13.852  0.00  0.00    +0.000 A 
ATOM     11  N   UNL     1       5.659   3.417  15.021  0.00  0.00    +0.000 N 
ATOM     12  H   UNL     1       4.995   2.658  15.068  0.00  0.00    +0.000 HD
ENDBRANCH   2   3
BRANCH   1  13
ATOM     13  C   UNL     1       4.442   4.059  19.460  0.00  0.00    +0.000 C 
ATOM     14  O   UNL     1       4.811   2.957  19.851  0.00  0.00    +0.000 OA
BRANCH  13  15
ATOM     15  O   UNL     1       3.637   4.903  20.151  0.00  0.00    +0.000 OA
BRANCH  15  17
ATOM     16  C   UNL     1       2.080   3.567  21.530  0.00  0.00    +0.000 C 
ATOM     17  C   UNL     1       2.241   4.524  20.337  0.00  0.00    +0.000 C 
ATOM     18  C   UNL     1       1.634   3.942  19.051  0.00  0.00    +0.000 C 
ATOM     19  C   UNL     1       1.483   5.819  20.670  0.00  0.00    +0.000 C 
ENDBRANCH  15  17
ENDBRANCH  13  15
ENDBRANCH   1  13
BRANCH   1  20
ATOM     20  C   UNL     1       4.445   5.935  17.586  0.00  0.00    +0.000 C 
ATOM     21  N   UNL     1       4.105   7.058  17.122  0.00  0.00    +0.000 NA
ENDBRANCH   1  20
TORSDOF 5
ENDMDL
