MODEL 1
REMARK VINA RESULT:      -8.5      0.000      0.000
REMARK  Name = 
REMARK  7 active torsions:
REMARK  status: ('A' for Active; 'I' for Inactive)
REMARK    1  A    between atoms: C_2  and  C_3
REMARK    2  A    between atoms: C_4  and  C_5
REMARK    3  A    between atoms: C_10  and  S_11
REMARK    4  A    between atoms: S_11  and  C_12
REMARK    5  A    between atoms: N_20  and  C_21
REMARK    6  A    between atoms: C_21  and  C_22
REMARK    7  A    between atoms: C_22  and  C_23
REMARK                            x       y       z     vdW  Elec       q    Type
REMARK                         _______ _______ _______ _____ _____    ______ ____
ROOT
ATOM      1  C   UNL     1       2.070   4.593  19.093  0.00  0.00    +0.000 A 
ATOM      2  C   UNL     1       1.373   4.449  20.312  0.00  0.00    +0.000 A 
ATOM      3  C   UNL     1       1.357   3.237  21.008  0.00  0.00    +0.000 A 
ATOM      4  C   UNL     1       2.038   2.140  20.495  0.00  0.00    +0.000 A 
ATOM      5  C   UNL     1       2.745   2.266  19.300  0.00  0.00    +0.000 A 
ATOM      6  C   UNL     1       2.795   3.483  18.597  0.00  0.00    +0.000 A 
ENDROOT
BRANCH   1   8
ATOM      7  C   UNL     1       2.284   7.099  19.118  0.00  0.00    +0.000 C 
ATOM      8  C   UNL     1       2.009   5.943  18.494  0.00  0.00    +0.000 C 
BRANCH   7  10
ATOM      9  O   UNL     1       2.587   8.534  17.240  0.00  0.00    +0.000 OA
ATOM     10  C   UNL     1       2.165   8.380  18.375  0.00  0.00    +0.000 C 
ATOM     11  N   UNL     1       1.498   9.344  19.095  0.00  0.00    +0.000 N 
ATOM     12  H   UNL     1       1.141   9.120  20.013  0.00  0.00    +0.000 HD
BRANCH  11  13
ATOM     13  C   UNL     1       1.177  10.645  18.540  0.00  0.00    +0.000 C 
BRANCH  13  14
ATOM     14  C   UNL     1      -0.094  11.292  19.113  0.00  0.00    +0.000 C 
BRANCH  14  15
ATOM     15  C   UNL     1      -1.394  11.032  18.382  0.00  0.00    +0.000 A 
ATOM     16  C   UNL     1      -1.523  10.049  17.393  0.00  0.00    +0.000 A 
ATOM     17  C   UNL     1      -2.750   9.831  16.759  0.00  0.00    +0.000 A 
ATOM     18  C   UNL     1      -3.868  10.577  17.123  0.00  0.00    +0.000 A 
ATOM     19  C   UNL     1      -3.765  11.535  18.128  0.00  0.00    +0.000 A 
ATOM     20  C   UNL     1      -2.537  11.759  18.753  0.00  0.00    +0.000 A 
ENDBRANCH  14  15
ENDBRANCH  13  14
ENDBRANCH  11  13
ENDBRANCH   7  10
ENDBRANCH   1   8
BRANCH   6  21
ATOM     21  S   UNL     1       3.768   3.477  17.084  0.00  0.00    +0.000 S 
BRANCH  21  22
ATOM     22  C   UNL     1       5.104   4.591  17.511  0.00  0.00    +0.000 A 
ATOM     23  C   UNL     1       5.495   4.645  18.858  0.00  0.00    +0.000 A 
ATOM     24  C   UNL     1       6.530   5.489  19.268  0.00  0.00    +0.000 A 
ATOM     25  C   UNL     1       7.178   6.294  18.336  0.00  0.00    +0.000 A 
ATOM     26 CL   UNL     1       8.470   7.312  18.839  0.00  0.00    +0.000 Cl
ATOM     27  C   UNL     1       6.781   6.286  17.003  0.00  0.00    +0.000 A 
ATOM     28  C   UNL     1       5.737   5.447  16.593  0.00  0.00    +0.000 A 
ATOM     29 CL   UNL     1       5.259   5.556  14.933  0.00  0.00    +0.000 Cl
ENDBRANCH  21  22
ENDBRANCH   6  21
TORSDOF 7
ENDMDL
MODEL 2
REMARK VINA RESULT:      -8.4      1.233      2.118
REMARK  Name = 
REMARK  7 active torsions:
REMARK  status: ('A' for Active; 'I' for Inactive)
REMARK    1  A    between atoms: C_2  and  C_3
REMARK    2  A    between atoms: C_4  and  C_5
REMARK    3  A    between atoms: C_10  and  S_11
REMARK    4  A    between atoms: S_11  and  C_12
REMARK    5  A    between atoms: N_20  and  C_21
REMARK    6  A    between atoms: C_21  and  C_22
REMARK    7  A    between atoms: C_22  and  C_23
REMARK                            x       y       z     vdW  Elec       q    Type
REMARK                         _______ _______ _______ _____ _____    ______ ____
ROOT
ATOM      1  C   UNL     1       2.364   4.748  19.016  0.00  0.00    +0.000 A 
ATOM      2  C   UNL     1       1.188   3.973  18.923  0.00  0.00    +0.000 A 
ATOM      3  C   UNL     1       1.222   2.577  18.992  0.00  0.00    +0.000 A 
ATOM      4  C   UNL     1       2.439   1.927  19.153  0.00  0.00    +0.000 A 
ATOM      5  C   UNL     1       3.611   2.674  19.262  0.00  0.00    +0.000 A 
ATOM      6  C   UNL     1       3.595   4.081  19.221  0.00  0.00    +0.000 A 
ENDROOT
BRANCH   1   8
ATOM      7  C   UNL     1       2.474   7.008  17.918  0.00  0.00    +0.000 C 
ATOM      8  C   UNL     1       2.156   6.210  18.949  0.00  0.00    +0.000 C 
BRANCH   7  10
ATOM      9  O   UNL     1       2.687   9.281  17.236  0.00  0.00    +0.000 OA
ATOM     10  C   UNL     1       2.209   8.467  18.010  0.00  0.00    +0.000 C 
ATOM     11  N   UNL     1       1.345   8.779  19.034  0.00  0.00    +0.000 N 
ATOM     12  H   UNL     1       0.959   8.039  19.602  0.00  0.00    +0.000 HD
BRANCH  11  13
ATOM     13  C   UNL     1       0.865  10.129  19.260  0.00  0.00    +0.000 C 
BRANCH  13  14
ATOM     14  C   UNL     1      -0.620  10.227  19.648  0.00  0.00    +0.000 C 
BRANCH  14  15
ATOM     15  C   UNL     1      -1.615  10.458  18.531  0.00  0.00    +0.000 A 
ATOM     16  C   UNL     1      -1.588   9.735  17.332  0.00  0.00    +0.000 A 
ATOM     17  C   UNL     1      -2.540   9.970  16.336  0.00  0.00    +0.000 A 
ATOM     18  C   UNL     1      -3.545  10.912  16.536  0.00  0.00    +0.000 A 
ATOM     19  C   UNL     1      -3.607  11.615  17.736  0.00  0.00    +0.000 A 
ATOM     20  C   UNL     1      -2.648  11.388  18.726  0.00  0.00    +0.000 A 
ENDBRANCH  14  15
ENDBRANCH  13  14
ENDBRANCH  11  13
ENDBRANCH   7  10
ENDBRANCH   1   8
BRANCH   6  21
ATOM     21  S   UNL     1       5.192   4.890  19.395  0.00  0.00    +0.000 S 
BRANCH  21  22
ATOM     22  C   UNL     1       5.769   4.916  17.700  0.00  0.00    +0.000 A 
ATOM     23  C   UNL     1       5.106   4.090  16.778  0.00  0.00    +0.000 A 
ATOM     24  C   UNL     1       5.498   4.057  15.438  0.00  0.00    +0.000 A 
ATOM     25  C   UNL     1       6.562   4.844  15.007  0.00  0.00    +0.000 A 
ATOM     26 CL   UNL     1       7.024   4.822  13.351  0.00  0.00    +0.000 Cl
ATOM     27  C   UNL     1       7.258   5.641  15.910  0.00  0.00    +0.000 A 
ATOM     28  C   UNL     1       6.872   5.667  17.256  0.00  0.00    +0.000 A 
ATOM     29 CL   UNL     1       7.840   6.627  18.324  0.00  0.00    +0.000 Cl
ENDBRANCH  21  22
ENDBRANCH   6  21
TORSDOF 7
ENDMDL
MODEL 3
REMARK VINA RESULT:      -8.4      0.639      1.118
REMARK  Name = 
REMARK  7 active torsions:
REMARK  status: ('A' for Active; 'I' for Inactive)
REMARK    1  A    between atoms: C_2  and  C_3
REMARK    2  A    between atoms: C_4  and  C_5
REMARK    3  A    between atoms: C_10  and  S_11
REMARK    4  A    between atoms: S_11  and  C_12
REMARK    5  A    between atoms: N_20  and  C_21
REMARK    6  A    between atoms: C_21  and  C_22
REMARK    7  A    between atoms: C_22  and  C_23
REMARK                            x       y       z     vdW  Elec       q    Type
REMARK                         _______ _______ _______ _____ _____    ______ ____
ROOT
ATOM      1  C   UNL     1       2.690   4.773  19.413  0.00  0.00    +0.000 A 
ATOM      2  C   UNL     1       2.033   4.661  20.656  0.00  0.00    +0.000 A 
ATOM      3  C   UNL     1       2.155   3.517  21.451  0.00  0.00    +0.000 A 
ATOM      4  C   UNL     1       2.938   2.456  21.012  0.00  0.00    +0.000 A 
ATOM      5  C   UNL     1       3.608   2.552  19.794  0.00  0.00    +0.000 A 
ATOM      6  C   UNL     1       3.518   3.705  18.992  0.00  0.00    +0.000 A 
ENDROOT
BRANCH   1   8
ATOM      7  C   UNL     1       2.352   7.261  19.278  0.00  0.00    +0.000 C 
ATOM      8  C   UNL     1       2.479   6.054  18.706  0.00  0.00    +0.000 C 
BRANCH   7  10
ATOM      9  O   UNL     1       2.546   8.544  17.280  0.00  0.00    +0.000 OA
ATOM     10  C   UNL     1       2.132   8.457  18.425  0.00  0.00    +0.000 C 
ATOM     11  N   UNL     1       1.385   9.423  19.059  0.00  0.00    +0.000 N 
ATOM     12  H   UNL     1       1.043   9.254  19.993  0.00  0.00    +0.000 HD
BRANCH  11  13
ATOM     13  C   UNL     1       0.962  10.640  18.391  0.00  0.00    +0.000 C 
BRANCH  13  14
ATOM     14  C   UNL     1      -0.225  11.358  19.055  0.00  0.00    +0.000 C 
BRANCH  14  15
ATOM     15  C   UNL     1      -1.598  11.115  18.465  0.00  0.00    +0.000 A 
ATOM     16  C   UNL     1      -2.739  11.804  18.894  0.00  0.00    +0.000 A 
ATOM     17  C   UNL     1      -3.983  11.560  18.305  0.00  0.00    +0.000 A 
ATOM     18  C   UNL     1      -4.098  10.643  17.265  0.00  0.00    +0.000 A 
ATOM     19  C   UNL     1      -2.967   9.974  16.803  0.00  0.00    +0.000 A 
ATOM     20  C   UNL     1      -1.726  10.210  17.399  0.00  0.00    +0.000 A 
ENDBRANCH  14  15
ENDBRANCH  13  14
ENDBRANCH  11  13
ENDBRANCH   7  10
ENDBRANCH   1   8
BRANCH   6  21
ATOM     21  S   UNL     1       4.461   3.670  17.460  0.00  0.00    +0.000 S 
BRANCH  21  22
ATOM     22  C   UNL     1       5.652   4.978  17.741  0.00  0.00    +0.000 A 
ATOM     23  C   UNL     1       6.356   4.961  18.956  0.00  0.00    +0.000 A 
ATOM     24  C   UNL     1       7.302   5.947  19.247  0.00  0.00    +0.000 A 
ATOM     25  C   UNL     1       7.547   6.965  18.330  0.00  0.00    +0.000 A 
ATOM     26 CL   UNL     1       8.732   8.162  18.679  0.00  0.00    +0.000 Cl
ATOM     27  C   UNL     1       6.834   7.024  17.137  0.00  0.00    +0.000 A 
ATOM     28  C   UNL     1       5.878   6.041  16.849  0.00  0.00    +0.000 A 
ATOM     29 CL   UNL     1       4.985   6.233  15.378  0.00  0.00    +0.000 Cl
ENDBRANCH  21  22
ENDBRANCH   6  21
TORSDOF 7
ENDMDL
MODEL 4
REMARK VINA RESULT:      -8.0      1.476      2.374
REMARK  Name = 
REMARK  7 active torsions:
REMARK  status: ('A' for Active; 'I' for Inactive)
REMARK    1  A    between atoms: C_2  and  C_3
REMARK    2  A    between atoms: C_4  and  C_5
REMARK    3  A    between atoms: C_10  and  S_11
REMARK    4  A    between atoms: S_11  and  C_12
REMARK    5  A    between atoms: N_20  and  C_21
REMARK    6  A    between atoms: C_21  and  C_22
REMARK    7  A    between atoms: C_22  and  C_23
REMARK                            x       y       z     vdW  Elec       q    Type
REMARK                         _______ _______ _______ _____ _____    ______ ____
ROOT
ATOM      1  C   UNL     1       2.076   4.511  19.142  0.00  0.00    +0.000 A 
ATOM      2  C   UNL     1       1.407   4.344  20.373  0.00  0.00    +0.000 A 
ATOM      3  C   UNL     1       1.441   3.132  21.068  0.00  0.00    +0.000 A 
ATOM      4  C   UNL     1       2.147   2.057  20.542  0.00  0.00    +0.000 A 
ATOM      5  C   UNL     1       2.828   2.206  19.334  0.00  0.00    +0.000 A 
ATOM      6  C   UNL     1       2.826   3.424  18.632  0.00  0.00    +0.000 A 
ENDROOT
BRANCH   1   8
ATOM      7  C   UNL     1       2.624   6.957  18.940  0.00  0.00    +0.000 C 
ATOM      8  C   UNL     1       1.962   5.858  18.545  0.00  0.00    +0.000 C 
BRANCH   7  10
ATOM      9  O   UNL     1       2.783   8.470  17.106  0.00  0.00    +0.000 OA
ATOM     10  C   UNL     1       2.389   8.246  18.240  0.00  0.00    +0.000 C 
ATOM     11  N   UNL     1       1.654   9.128  18.997  0.00  0.00    +0.000 N 
ATOM     12  H   UNL     1       1.328   8.847  19.911  0.00  0.00    +0.000 HD
BRANCH  11  13
ATOM     13  C   UNL     1       1.219  10.415  18.487  0.00  0.00    +0.000 C 
BRANCH  13  14
ATOM     14  C   UNL     1      -0.179  10.852  18.955  0.00  0.00    +0.000 C 
BRANCH  14  15
ATOM     15  C   UNL     1      -0.453  10.819  20.444  0.00  0.00    +0.000 A 
ATOM     16  C   UNL     1      -0.956  11.921  21.146  0.00  0.00    +0.000 A 
ATOM     17  C   UNL     1      -1.212  11.836  22.518  0.00  0.00    +0.000 A 
ATOM     18  C   UNL     1      -0.992  10.642  23.199  0.00  0.00    +0.000 A 
ATOM     19  C   UNL     1      -0.525   9.526  22.509  0.00  0.00    +0.000 A 
ATOM     20  C   UNL     1      -0.258   9.615  21.141  0.00  0.00    +0.000 A 
ENDBRANCH  14  15
ENDBRANCH  13  14
ENDBRANCH  11  13
ENDBRANCH   7  10
ENDBRANCH   1   8
BRANCH   6  21
ATOM     21  S   UNL     1       3.771   3.449  17.101  0.00  0.00    +0.000 S 
BRANCH  21  22
ATOM     22  C   UNL     1       5.101   4.575  17.517  0.00  0.00    +0.000 A 
ATOM     23  C   UNL     1       5.518   4.615  18.857  0.00  0.00    +0.000 A 
ATOM     24  C   UNL     1       6.550   5.467  19.259  0.00  0.00    +0.000 A 
ATOM     25  C   UNL     1       7.168   6.294  18.325  0.00  0.00    +0.000 A 
ATOM     26 CL   UNL     1       8.457   7.322  18.817  0.00  0.00    +0.000 Cl
ATOM     27  C   UNL     1       6.745   6.300  17.000  0.00  0.00    +0.000 A 
ATOM     28  C   UNL     1       5.704   5.453  16.599  0.00  0.00    +0.000 A 
ATOM     29 CL   UNL     1       5.191   5.578  14.950  0.00  0.00    +0.000 Cl
ENDBRANCH  21  22
ENDBRANCH   6  21
TORSDOF 7
ENDMDL
MODEL 5
REMARK VINA RESULT:      -8.0      1.797      2.717
REMARK  Name = 
REMARK  7 active torsions:
REMARK  status: ('A' for Active; 'I' for Inactive)
REMARK    1  A    between atoms: C_2  and  C_3
REMARK    2  A    between atoms: C_4  and  C_5
REMARK    3  A    between atoms: C_10  and  S_11
REMARK    4  A    between atoms: S_11  and  C_12
REMARK    5  A    between atoms: N_20  and  C_21
REMARK    6  A    between atoms: C_21  and  C_22
REMARK    7  A    between atoms: C_22  and  C_23
REMARK                            x       y       z     vdW  Elec       q    Type
REMARK                         _______ _______ _______ _____ _____    ______ ____
ROOT
ATOM      1  C   UNL     1       2.369   5.143  19.936  0.00  0.00    +0.000 A 
ATOM      2  C   UNL     1       1.235   4.335  20.165  0.00  0.00    +0.000 A 
ATOM      3  C   UNL     1       1.289   2.944  20.041  0.00  0.00    +0.000 A 
ATOM      4  C   UNL     1       2.483   2.331  19.680  0.00  0.00    +0.000 A 
ATOM      5  C   UNL     1       3.619   3.110  19.464  0.00  0.00    +0.000 A 
ATOM      6  C   UNL     1       3.592   4.509  19.609  0.00  0.00    +0.000 A 
ENDROOT
BRANCH   1   8
ATOM      7  C   UNL     1       1.275   7.155  20.975  0.00  0.00    +0.000 C 
ATOM      8  C   UNL     1       2.154   6.592  20.132  0.00  0.00    +0.000 C 
BRANCH   7  10
ATOM      9  O   UNL     1       1.552   9.284  22.009  0.00  0.00    +0.000 OA
ATOM     10  C   UNL     1       1.172   8.636  21.047  0.00  0.00    +0.000 C 
ATOM     11  N   UNL     1       0.640   9.181  19.901  0.00  0.00    +0.000 N 
ATOM     12  H   UNL     1       0.391   8.576  19.132  0.00  0.00    +0.000 HD
BRANCH  11  13
ATOM     13  C   UNL     1       0.530  10.613  19.702  0.00  0.00    +0.000 C 
BRANCH  13  14
ATOM     14  C   UNL     1      -0.895  11.174  19.843  0.00  0.00    +0.000 C 
BRANCH  14  15
ATOM     15  C   UNL     1      -1.844  10.956  18.683  0.00  0.00    +0.000 A 
ATOM     16  C   UNL     1      -3.082  11.603  18.586  0.00  0.00    +0.000 A 
ATOM     17  C   UNL     1      -3.916  11.384  17.485  0.00  0.00    +0.000 A 
ATOM     18  C   UNL     1      -3.511  10.537  16.457  0.00  0.00    +0.000 A 
ATOM     19  C   UNL     1      -2.268   9.913  16.522  0.00  0.00    +0.000 A 
ATOM     20  C   UNL     1      -1.440  10.123  17.627  0.00  0.00    +0.000 A 
ENDBRANCH  14  15
ENDBRANCH  13  14
ENDBRANCH  11  13
ENDBRANCH   7  10
ENDBRANCH   1   8
BRANCH   6  21
ATOM     21  S   UNL     1       5.149   5.360  19.312  0.00  0.00    +0.000 S 
BRANCH  21  22
ATOM     22  C   UNL     1       5.498   4.889  17.619  0.00  0.00    +0.000 A 
ATOM     23  C   UNL     1       4.408   4.769  16.743  0.00  0.00    +0.000 A 
ATOM     24  C   UNL     1       4.600   4.406  15.408  0.00  0.00    +0.000 A 
ATOM     25  C   UNL     1       5.885   4.152  14.938  0.00  0.00    +0.000 A 
ATOM     26 CL   UNL     1       6.122   3.733  13.286  0.00  0.00    +0.000 Cl
ATOM     27  C   UNL     1       6.977   4.227  15.797  0.00  0.00    +0.000 A 
ATOM     28  C   UNL     1       6.783   4.581  17.138  0.00  0.00    +0.000 A 
ATOM     29 CL   UNL     1       8.186   4.577  18.153  0.00  0.00    +0.000 Cl
ENDBRANCH  21  22
ENDBRANCH   6  21
TORSDOF 7
ENDMDL
MODEL 6
REMARK VINA RESULT:      -8.0      4.093      9.435
REMARK  Name = 
REMARK  7 active torsions:
REMARK  status: ('A' for Active; 'I' for Inactive)
REMARK    1  A    between atoms: C_2  and  C_3
REMARK    2  A    between atoms: C_4  and  C_5
REMARK    3  A    between atoms: C_10  and  S_11
REMARK    4  A    between atoms: S_11  and  C_12
REMARK    5  A    between atoms: N_20  and  C_21
REMARK    6  A    between atoms: C_21  and  C_22
REMARK    7  A    between atoms: C_22  and  C_23
REMARK                            x       y       z     vdW  Elec       q    Type
REMARK                         _______ _______ _______ _____ _____    ______ ____
ROOT
ATOM      1  C   UNL     1       0.184   9.918  20.936  0.00  0.00    +0.000 A 
ATOM      2  C   UNL     1       0.218   9.257  22.183  0.00  0.00    +0.000 A 
ATOM      3  C   UNL     1      -0.440   9.771  23.304  0.00  0.00    +0.000 A 
ATOM      4  C   UNL     1      -1.145  10.964  23.200  0.00  0.00    +0.000 A 
ATOM      5  C   UNL     1      -1.204  11.625  21.974  0.00  0.00    +0.000 A 
ATOM      6  C   UNL     1      -0.570  11.111  20.828  0.00  0.00    +0.000 A 
ENDROOT
BRANCH   1   8
ATOM      7  C   UNL     1       1.717   8.170  19.978  0.00  0.00    +0.000 C 
ATOM      8  C   UNL     1       0.909   9.233  19.845  0.00  0.00    +0.000 C 
BRANCH   7  10
ATOM      9  O   UNL     1       2.892   8.292  17.908  0.00  0.00    +0.000 OA
ATOM     10  C   UNL     1       2.384   7.602  18.778  0.00  0.00    +0.000 C 
ATOM     11  N   UNL     1       2.393   6.226  18.785  0.00  0.00    +0.000 N 
ATOM     12  H   UNL     1       1.989   5.730  19.566  0.00  0.00    +0.000 HD
BRANCH  11  13
ATOM     13  C   UNL     1       3.071   5.449  17.765  0.00  0.00    +0.000 C 
BRANCH  13  14
ATOM     14  C   UNL     1       4.367   4.766  18.233  0.00  0.00    +0.000 C 
BRANCH  14  15
ATOM     15  C   UNL     1       5.638   5.587  18.186  0.00  0.00    +0.000 A 
ATOM     16  C   UNL     1       5.807   6.672  17.317  0.00  0.00    +0.000 A 
ATOM     17  C   UNL     1       6.992   7.413  17.324  0.00  0.00    +0.000 A 
ATOM     18  C   UNL     1       8.012   7.095  18.216  0.00  0.00    +0.000 A 
ATOM     19  C   UNL     1       7.846   6.041  19.111  0.00  0.00    +0.000 A 
ATOM     20  C   UNL     1       6.666   5.294  19.096  0.00  0.00    +0.000 A 
ENDBRANCH  14  15
ENDBRANCH  13  14
ENDBRANCH  11  13
ENDBRANCH   7  10
ENDBRANCH   1   8
BRANCH   6  21
ATOM     21  S   UNL     1      -0.762  12.079  19.324  0.00  0.00    +0.000 S 
BRANCH  21  22
ATOM     22  C   UNL     1      -2.484  11.787  18.925  0.00  0.00    +0.000 A 
ATOM     23  C   UNL     1      -3.446  12.521  19.636  0.00  0.00    +0.000 A 
ATOM     24  C   UNL     1      -4.808  12.349  19.381  0.00  0.00    +0.000 A 
ATOM     25  C   UNL     1      -5.223  11.434  18.418  0.00  0.00    +0.000 A 
ATOM     26 CL   UNL     1      -6.900  11.244  18.087  0.00  0.00    +0.000 Cl
ATOM     27  C   UNL     1      -4.289  10.667  17.729  0.00  0.00    +0.000 A 
ATOM     28  C   UNL     1      -2.923  10.832  17.991  0.00  0.00    +0.000 A 
ATOM     29 CL   UNL     1      -1.836   9.785  17.143  0.00  0.00    +0.000 Cl
ENDBRANCH  21  22
ENDBRANCH   6  21
TORSDOF 7
ENDMDL
MODEL 7
REMARK VINA RESULT:      -8.0      1.868      3.010
REMARK  Name = 
REMARK  7 active torsions:
REMARK  status: ('A' for Active; 'I' for Inactive)
REMARK    1  A    between atoms: C_2  and  C_3
REMARK    2  A    between atoms: C_4  and  C_5
REMARK    3  A    between atoms: C_10  and  S_11
REMARK    4  A    between atoms: S_11  and  C_12
REMARK    5  A    between atoms: N_20  and  C_21
REMARK    6  A    between atoms: C_21  and  C_22
REMARK    7  A    between atoms: C_22  and  C_23
REMARK                            x       y       z     vdW  Elec       q    Type
REMARK                         _______ _______ _______ _____ _____    ______ ____
ROOT
ATOM      1  C   UNL     1       2.448   4.634  18.915  0.00  0.00    +0.000 A 
ATOM      2  C   UNL     1       1.263   3.883  18.759  0.00  0.00    +0.000 A 
ATOM      3  C   UNL     1       1.281   2.485  18.719  0.00  0.00    +0.000 A 
ATOM      4  C   UNL     1       2.490   1.810  18.831  0.00  0.00    +0.000 A 
ATOM      5  C   UNL     1       3.670   2.533  19.002  0.00  0.00    +0.000 A 
ATOM      6  C   UNL     1       3.670   3.938  19.070  0.00  0.00    +0.000 A 
ENDROOT
BRANCH   1   8
ATOM      7  C   UNL     1       2.318   6.938  17.916  0.00  0.00    +0.000 C 
ATOM      8  C   UNL     1       2.257   6.099  18.961  0.00  0.00    +0.000 C 
BRANCH   7  10
ATOM      9  O   UNL     1       2.315   9.231  17.266  0.00  0.00    +0.000 OA
ATOM     10  C   UNL     1       2.113   8.394  18.132  0.00  0.00    +0.000 C 
ATOM     11  N   UNL     1       1.640   8.676  19.392  0.00  0.00    +0.000 N 
ATOM     12  H   UNL     1       1.457   7.920  20.035  0.00  0.00    +0.000 HD
BRANCH  11  13
ATOM     13  C   UNL     1       1.274  10.019  19.801  0.00  0.00    +0.000 C 
BRANCH  13  14
ATOM     14  C   UNL     1      -0.197  10.390  19.549  0.00  0.00    +0.000 C 
BRANCH  14  15
ATOM     15  C   UNL     1      -0.948  11.054  20.683  0.00  0.00    +0.000 A 
ATOM     16  C   UNL     1      -0.674  10.789  22.030  0.00  0.00    +0.000 A 
ATOM     17  C   UNL     1      -1.382  11.443  23.044  0.00  0.00    +0.000 A 
ATOM     18  C   UNL     1      -2.353  12.387  22.723  0.00  0.00    +0.000 A 
ATOM     19  C   UNL     1      -2.613  12.687  21.389  0.00  0.00    +0.000 A 
ATOM     20  C   UNL     1      -1.914  12.026  20.377  0.00  0.00    +0.000 A 
ENDBRANCH  14  15
ENDBRANCH  13  14
ENDBRANCH  11  13
ENDBRANCH   7  10
ENDBRANCH   1   8
BRANCH   6  21
ATOM     21  S   UNL     1       5.276   4.712  19.312  0.00  0.00    +0.000 S 
BRANCH  21  22
ATOM     22  C   UNL     1       5.878   4.824  17.628  0.00  0.00    +0.000 A 
ATOM     23  C   UNL     1       5.259   4.012  16.665  0.00  0.00    +0.000 A 
ATOM     24  C   UNL     1       5.672   4.044  15.331  0.00  0.00    +0.000 A 
ATOM     25  C   UNL     1       6.715   4.884  14.949  0.00  0.00    +0.000 A 
ATOM     26 CL   UNL     1       7.203   4.942  13.301  0.00  0.00    +0.000 Cl
ATOM     27  C   UNL     1       7.368   5.669  15.893  0.00  0.00    +0.000 A 
ATOM     28  C   UNL     1       6.960   5.630  17.232  0.00  0.00    +0.000 A 
ATOM     29 CL   UNL     1       7.876   6.581  18.352  0.00  0.00    +0.000 Cl
ENDBRANCH  21  22
ENDBRANCH   6  21
TORSDOF 7
ENDMDL
MODEL 8
REMARK VINA RESULT:      -7.9      1.052      1.674
REMARK  Name = 
REMARK  7 active torsions:
REMARK  status: ('A' for Active; 'I' for Inactive)
REMARK    1  A    between atoms: C_2  and  C_3
REMARK    2  A    between atoms: C_4  and  C_5
REMARK    3  A    between atoms: C_10  and  S_11
REMARK    4  A    between atoms: S_11  and  C_12
REMARK    5  A    between atoms: N_20  and  C_21
REMARK    6  A    between atoms: C_21  and  C_22
REMARK    7  A    between atoms: C_22  and  C_23
REMARK                            x       y       z     vdW  Elec       q    Type
REMARK                         _______ _______ _______ _____ _____    ______ ____
ROOT
ATOM      1  C   UNL     1       2.506   4.661  19.540  0.00  0.00    +0.000 A 
ATOM      2  C   UNL     1       1.918   4.554  20.819  0.00  0.00    +0.000 A 
ATOM      3  C   UNL     1       2.122   3.434  21.629  0.00  0.00    +0.000 A 
ATOM      4  C   UNL     1       2.919   2.391  21.173  0.00  0.00    +0.000 A 
ATOM      5  C   UNL     1       3.522   2.483  19.919  0.00  0.00    +0.000 A 
ATOM      6  C   UNL     1       3.350   3.613  19.099  0.00  0.00    +0.000 A 
ENDROOT
BRANCH   1   8
ATOM      7  C   UNL     1       2.624   7.145  19.171  0.00  0.00    +0.000 C 
ATOM      8  C   UNL     1       2.213   5.917  18.819  0.00  0.00    +0.000 C 
BRANCH   7  10
ATOM      9  O   UNL     1       2.572   8.448  17.176  0.00  0.00    +0.000 OA
ATOM     10  C   UNL     1       2.233   8.315  18.341  0.00  0.00    +0.000 C 
ATOM     11  N   UNL     1       1.425   9.195  19.024  0.00  0.00    +0.000 N 
ATOM     12  H   UNL     1       1.154   8.987  19.974  0.00  0.00    +0.000 HD
BRANCH  11  13
ATOM     13  C   UNL     1       0.840  10.362  18.391  0.00  0.00    +0.000 C 
BRANCH  13  14
ATOM     14  C   UNL     1      -0.695  10.343  18.301  0.00  0.00    +0.000 C 
BRANCH  14  15
ATOM     15  C   UNL     1      -1.458  11.160  19.321  0.00  0.00    +0.000 A 
ATOM     16  C   UNL     1      -0.991  11.374  20.624  0.00  0.00    +0.000 A 
ATOM     17  C   UNL     1      -1.722  12.153  21.525  0.00  0.00    +0.000 A 
ATOM     18  C   UNL     1      -2.917  12.748  21.128  0.00  0.00    +0.000 A 
ATOM     19  C   UNL     1      -3.378  12.574  19.826  0.00  0.00    +0.000 A 
ATOM     20  C   UNL     1      -2.653  11.787  18.929  0.00  0.00    +0.000 A 
ENDBRANCH  14  15
ENDBRANCH  13  14
ENDBRANCH  11  13
ENDBRANCH   7  10
ENDBRANCH   1   8
BRANCH   6  21
ATOM     21  S   UNL     1       4.213   3.577  17.521  0.00  0.00    +0.000 S 
BRANCH  21  22
ATOM     22  C   UNL     1       5.459   4.841  17.765  0.00  0.00    +0.000 A 
ATOM     23  C   UNL     1       6.047   4.933  19.036  0.00  0.00    +0.000 A 
ATOM     24  C   UNL     1       7.026   5.893  19.303  0.00  0.00    +0.000 A 
ATOM     25  C   UNL     1       7.422   6.775  18.302  0.00  0.00    +0.000 A 
ATOM     26 CL   UNL     1       8.648   7.938  18.625  0.00  0.00    +0.000 Cl
ATOM     27  C   UNL     1       6.827   6.727  17.046  0.00  0.00    +0.000 A 
ATOM     28  C   UNL     1       5.838   5.772  16.781  0.00  0.00    +0.000 A 
ATOM     29 CL   UNL     1       5.097   5.832  15.217  0.00  0.00    +0.000 Cl
ENDBRANCH  21  22
ENDBRANCH   6  21
TORSDOF 7
ENDMDL
MODEL 9
REMARK VINA RESULT:      -7.9      1.994      3.170
REMARK  Name = 
REMARK  7 active torsions:
REMARK  status: ('A' for Active; 'I' for Inactive)
REMARK    1  A    between atoms: C_2  and  C_3
REMARK    2  A    between atoms: C_4  and  C_5
REMARK    3  A    between atoms: C_10  and  S_11
REMARK    4  A    between atoms: S_11  and  C_12
REMARK    5  A    between atoms: N_20  and  C_21
REMARK    6  A    between atoms: C_21  and  C_22
REMARK    7  A    between atoms: C_22  and  C_23
REMARK                            x       y       z     vdW  Elec       q    Type
REMARK                         _______ _______ _______ _____ _____    ______ ____
ROOT
ATOM      1  C   UNL     1       2.434   4.737  18.716  0.00  0.00    +0.000 A 
ATOM      2  C   UNL     1       1.343   3.849  18.824  0.00  0.00    +0.000 A 
ATOM      3  C   UNL     1       1.512   2.528  19.249  0.00  0.00    +0.000 A 
ATOM      4  C   UNL     1       2.782   2.066  19.571  0.00  0.00    +0.000 A 
ATOM      5  C   UNL     1       3.871   2.932  19.486  0.00  0.00    +0.000 A 
ATOM      6  C   UNL     1       3.719   4.272  19.085  0.00  0.00    +0.000 A 
ENDROOT
BRANCH   1   8
ATOM      7  C   UNL     1       2.567   7.247  18.789  0.00  0.00    +0.000 C 
ATOM      8  C   UNL     1       2.086   6.104  18.276  0.00  0.00    +0.000 C 
BRANCH   7  10
ATOM      9  O   UNL     1       2.493   8.995  17.172  0.00  0.00    +0.000 OA
ATOM     10  C   UNL     1       2.107   8.549  18.240  0.00  0.00    +0.000 C 
ATOM     11  N   UNL     1       1.180   9.162  19.051  0.00  0.00    +0.000 N 
ATOM     12  H   UNL     1       0.881   8.703  19.899  0.00  0.00    +0.000 HD
BRANCH  11  13
ATOM     13  C   UNL     1       0.517  10.397  18.677  0.00  0.00    +0.000 C 
BRANCH  13  14
ATOM     14  C   UNL     1       0.709  11.555  19.670  0.00  0.00    +0.000 C 
BRANCH  14  15
ATOM     15  C   UNL     1      -0.234  11.617  20.853  0.00  0.00    +0.000 A 
ATOM     16  C   UNL     1      -1.285  12.538  20.935  0.00  0.00    +0.000 A 
ATOM     17  C   UNL     1      -2.143  12.544  22.039  0.00  0.00    +0.000 A 
ATOM     18  C   UNL     1      -1.976  11.614  23.062  0.00  0.00    +0.000 A 
ATOM     19  C   UNL     1      -0.956  10.669  22.979  0.00  0.00    +0.000 A 
ATOM     20  C   UNL     1      -0.093  10.671  21.881  0.00  0.00    +0.000 A 
ENDBRANCH  14  15
ENDBRANCH  13  14
ENDBRANCH  11  13
ENDBRANCH   7  10
ENDBRANCH   1   8
BRANCH   6  21
ATOM     21  S   UNL     1       5.224   5.257  19.047  0.00  0.00    +0.000 S 
BRANCH  21  22
ATOM     22  C   UNL     1       5.746   5.050  17.346  0.00  0.00    +0.000 A 
ATOM     23  C   UNL     1       5.153   4.012  16.610  0.00  0.00    +0.000 A 
ATOM     24  C   UNL     1       5.508   3.789  15.277  0.00  0.00    +0.000 A 
ATOM     25  C   UNL     1       6.466   4.596  14.671  0.00  0.00    +0.000 A 
ATOM     26 CL   UNL     1       6.881   4.336  13.022  0.00  0.00    +0.000 Cl
ATOM     27  C   UNL     1       7.095   5.605  15.393  0.00  0.00    +0.000 A 
ATOM     28  C   UNL     1       6.747   5.823  16.731  0.00  0.00    +0.000 A 
ATOM     29 CL   UNL     1       7.632   7.048  17.576  0.00  0.00    +0.000 Cl
ENDBRANCH  21  22
ENDBRANCH   6  21
TORSDOF 7
ENDMDL
