MODEL 1
REMARK VINA RESULT:      -5.3      0.000      0.000
REMARK  Name = 
REMARK  6 active torsions:
REMARK  status: ('A' for Active; 'I' for Inactive)
REMARK    1  A    between atoms: N_1  and  C_2
REMARK    2  A    between atoms: C_2  and  C_3
REMARK    3  A    between atoms: C_3  and  O_4
REMARK    4  A    between atoms: C_3  and  C_5
REMARK    5  A    between atoms: C_8  and  O_9
REMARK    6  A    between atoms: C_10  and  O_11
REMARK                            x       y       z     vdW  Elec       q    Type
REMARK                         _______ _______ _______ _____ _____    ______ ____
ROOT
ATOM      1  C   UNL     1       4.599   4.668  18.344  0.00  0.00    +0.000 A 
ATOM      2  C   UNL     1       3.453   5.469  18.190  0.00  0.00    +0.000 A 
ATOM      3  C   UNL     1       2.186   4.883  18.112  0.00  0.00    +0.000 A 
ATOM      4  C   UNL     1       2.041   3.491  18.191  0.00  0.00    +0.000 A 
ATOM      5  C   UNL     1       3.180   2.683  18.361  0.00  0.00    +0.000 A 
ATOM      6  C   UNL     1       4.448   3.273  18.437  0.00  0.00    +0.000 A 
ENDROOT
BRANCH   4   7
ATOM      7  O   UNL     1       0.819   2.926  18.098  0.00  0.00    +0.000 OA
ATOM      8  H   UNL     1       0.271   3.008  17.304  0.00  0.00    +0.000 HD
ENDBRANCH   4   7
BRANCH   5   9
ATOM      9  O   UNL     1       3.081   1.339  18.438  0.00  0.00    +0.000 OA
ATOM     10  H   UNL     1       2.230   0.880  18.492  0.00  0.00    +0.000 HD
ENDBRANCH   5   9
BRANCH   1  11
ATOM     11  C   UNL     1       5.986   5.285  18.368  0.00  0.00    +0.000 C 
BRANCH  11  12
ATOM     12  O   UNL     1       6.584   5.049  19.618  0.00  0.00    +0.000 OA
ATOM     13  H   UNL     1       6.071   4.336  20.078  0.00  0.00    +0.000 HD
ENDBRANCH  11  12
BRANCH  11  14
ATOM     14  C   UNL     1       6.907   4.802  17.229  0.00  0.00    +0.000 C 
BRANCH  14  15
ATOM     15  N   UNL     1       8.104   4.154  17.757  0.00  0.00    +0.000 NA
ATOM     16  H   UNL     1       8.112   3.162  17.422  0.00  0.00    +0.000 HD
ATOM     17  H   UNL     1       8.043   4.125  18.801  0.00  0.00    +0.000 HD
ENDBRANCH  14  15
ENDBRANCH  11  14
ENDBRANCH   1  11
TORSDOF 6
ENDMDL
MODEL 2
REMARK VINA RESULT:      -5.3      0.915      1.837
REMARK  Name = 
REMARK  6 active torsions:
REMARK  status: ('A' for Active; 'I' for Inactive)
REMARK    1  A    between atoms: N_1  and  C_2
REMARK    2  A    between atoms: C_2  and  C_3
REMARK    3  A    between atoms: C_3  and  O_4
REMARK    4  A    between atoms: C_3  and  C_5
REMARK    5  A    between atoms: C_8  and  O_9
REMARK    6  A    between atoms: C_10  and  O_11
REMARK                            x       y       z     vdW  Elec       q    Type
REMARK                         _______ _______ _______ _____ _____    ______ ____
ROOT
ATOM      1  C   UNL     1       4.587   4.203  18.483  0.00  0.00    +0.000 A 
ATOM      2  C   UNL     1       4.612   2.997  19.207  0.00  0.00    +0.000 A 
ATOM      3  C   UNL     1       3.479   2.180  19.260  0.00  0.00    +0.000 A 
ATOM      4  C   UNL     1       2.304   2.550  18.591  0.00  0.00    +0.000 A 
ATOM      5  C   UNL     1       2.274   3.747  17.852  0.00  0.00    +0.000 A 
ATOM      6  C   UNL     1       3.410   4.563  17.801  0.00  0.00    +0.000 A 
ENDROOT
BRANCH   4   7
ATOM      7  O   UNL     1       1.205   1.769  18.659  0.00  0.00    +0.000 OA
ATOM      8  H   UNL     1       0.596   1.800  19.410  0.00  0.00    +0.000 HD
ENDBRANCH   4   7
BRANCH   5   9
ATOM      9  O   UNL     1       1.160   4.138  17.197  0.00  0.00    +0.000 OA
ATOM     10  H   UNL     1       0.856   3.712  16.383  0.00  0.00    +0.000 HD
ENDBRANCH   5   9
BRANCH   1  11
ATOM     11  C   UNL     1       5.789   5.130  18.466  0.00  0.00    +0.000 C 
BRANCH  11  12
ATOM     12  O   UNL     1       6.467   5.042  19.694  0.00  0.00    +0.000 OA
ATOM     13  H   UNL     1       7.330   5.525  19.608  0.00  0.00    +0.000 HD
ENDBRANCH  11  12
BRANCH  11  14
ATOM     14  C   UNL     1       6.759   4.879  17.294  0.00  0.00    +0.000 C 
BRANCH  14  15
ATOM     15  N   UNL     1       7.967   4.195  17.746  0.00  0.00    +0.000 NA
ATOM     16  H   UNL     1       8.226   3.482  17.025  0.00  0.00    +0.000 HD
ATOM     17  H   UNL     1       7.754   3.675  18.629  0.00  0.00    +0.000 HD
ENDBRANCH  14  15
ENDBRANCH  11  14
ENDBRANCH   1  11
TORSDOF 6
ENDMDL
MODEL 3
REMARK VINA RESULT:      -5.3      2.347      4.687
REMARK  Name = 
REMARK  6 active torsions:
REMARK  status: ('A' for Active; 'I' for Inactive)
REMARK    1  A    between atoms: N_1  and  C_2
REMARK    2  A    between atoms: C_2  and  C_3
REMARK    3  A    between atoms: C_3  and  O_4
REMARK    4  A    between atoms: C_3  and  C_5
REMARK    5  A    between atoms: C_8  and  O_9
REMARK    6  A    between atoms: C_10  and  O_11
REMARK                            x       y       z     vdW  Elec       q    Type
REMARK                         _______ _______ _______ _____ _____    ______ ____
ROOT
ATOM      1  C   UNL     1       3.663   4.204  18.172  0.00  0.00    +0.000 A 
ATOM      2  C   UNL     1       4.120   3.949  16.866  0.00  0.00    +0.000 A 
ATOM      3  C   UNL     1       5.466   4.140  16.538  0.00  0.00    +0.000 A 
ATOM      4  C   UNL     1       6.376   4.584  17.506  0.00  0.00    +0.000 A 
ATOM      5  C   UNL     1       5.932   4.827  18.818  0.00  0.00    +0.000 A 
ATOM      6  C   UNL     1       4.583   4.636  19.144  0.00  0.00    +0.000 A 
ENDROOT
BRANCH   4   7
ATOM      7  O   UNL     1       7.671   4.785  17.182  0.00  0.00    +0.000 OA
ATOM      8  H   UNL     1       8.249   4.064  16.896  0.00  0.00    +0.000 HD
ENDBRANCH   4   7
BRANCH   5   9
ATOM      9  O   UNL     1       6.779   5.258  19.777  0.00  0.00    +0.000 OA
ATOM     10  H   UNL     1       6.740   6.153  20.145  0.00  0.00    +0.000 HD
ENDBRANCH   5   9
BRANCH   1  11
ATOM     11  C   UNL     1       2.194   4.062  18.528  0.00  0.00    +0.000 C 
BRANCH  11  12
ATOM     12  O   UNL     1       1.427   4.010  17.350  0.00  0.00    +0.000 OA
ATOM     13  H   UNL     1       0.880   4.837  17.299  0.00  0.00    +0.000 HD
ENDBRANCH  11  12
BRANCH  11  14
ATOM     14  C   UNL     1       1.881   2.850  19.429  0.00  0.00    +0.000 C 
BRANCH  14  15
ATOM     15  N   UNL     1       2.032   1.595  18.697  0.00  0.00    +0.000 NA
ATOM     16  H   UNL     1       2.670   1.767  17.885  0.00  0.00    +0.000 HD
ATOM     17  H   UNL     1       1.104   1.316  18.304  0.00  0.00    +0.000 HD
ENDBRANCH  14  15
ENDBRANCH  11  14
ENDBRANCH   1  11
TORSDOF 6
ENDMDL
MODEL 4
REMARK VINA RESULT:      -5.2      1.116      1.116
REMARK  Name = 
REMARK  6 active torsions:
REMARK  status: ('A' for Active; 'I' for Inactive)
REMARK    1  A    between atoms: N_1  and  C_2
REMARK    2  A    between atoms: C_2  and  C_3
REMARK    3  A    between atoms: C_3  and  O_4
REMARK    4  A    between atoms: C_3  and  C_5
REMARK    5  A    between atoms: C_8  and  O_9
REMARK    6  A    between atoms: C_10  and  O_11
REMARK                            x       y       z     vdW  Elec       q    Type
REMARK                         _______ _______ _______ _____ _____    ______ ____
ROOT
ATOM      1  C   UNL     1       4.384   4.358  17.731  0.00  0.00    +0.000 A 
ATOM      2  C   UNL     1       3.248   5.183  17.652  0.00  0.00    +0.000 A 
ATOM      3  C   UNL     1       1.971   4.652  17.856  0.00  0.00    +0.000 A 
ATOM      4  C   UNL     1       1.808   3.290  18.145  0.00  0.00    +0.000 A 
ATOM      5  C   UNL     1       2.939   2.459  18.241  0.00  0.00    +0.000 A 
ATOM      6  C   UNL     1       4.216   2.995  18.035  0.00  0.00    +0.000 A 
ENDROOT
BRANCH   4   7
ATOM      7  O   UNL     1       0.572   2.775  18.324  0.00  0.00    +0.000 OA
ATOM      8  H   UNL     1       0.142   2.756  19.190  0.00  0.00    +0.000 HD
ENDBRANCH   4   7
BRANCH   5   9
ATOM      9  O   UNL     1       2.820   1.143  18.515  0.00  0.00    +0.000 OA
ATOM     10  H   UNL     1       3.253   0.458  17.986  0.00  0.00    +0.000 HD
ENDBRANCH   5   9
BRANCH   1  11
ATOM     11  C   UNL     1       5.772   4.907  17.451  0.00  0.00    +0.000 C 
BRANCH  11  12
ATOM     12  O   UNL     1       6.727   4.154  18.156  0.00  0.00    +0.000 OA
ATOM     13  H   UNL     1       6.246   3.520  18.749  0.00  0.00    +0.000 HD
ENDBRANCH  11  12
BRANCH  11  14
ATOM     14  C   UNL     1       6.131   4.969  15.953  0.00  0.00    +0.000 C 
BRANCH  14  15
ATOM     15  N   UNL     1       7.396   5.669  15.742  0.00  0.00    +0.000 NA
ATOM     16  H   UNL     1       7.251   6.679  15.975  0.00  0.00    +0.000 HD
ATOM     17  H   UNL     1       7.647   5.621  14.727  0.00  0.00    +0.000 HD
ENDBRANCH  14  15
ENDBRANCH  11  14
ENDBRANCH   1  11
TORSDOF 6
ENDMDL
MODEL 5
REMARK VINA RESULT:      -5.2      1.645      1.694
REMARK  Name = 
REMARK  6 active torsions:
REMARK  status: ('A' for Active; 'I' for Inactive)
REMARK    1  A    between atoms: N_1  and  C_2
REMARK    2  A    between atoms: C_2  and  C_3
REMARK    3  A    between atoms: C_3  and  O_4
REMARK    4  A    between atoms: C_3  and  C_5
REMARK    5  A    between atoms: C_8  and  O_9
REMARK    6  A    between atoms: C_10  and  O_11
REMARK                            x       y       z     vdW  Elec       q    Type
REMARK                         _______ _______ _______ _____ _____    ______ ____
ROOT
ATOM      1  C   UNL     1       4.552   4.856  16.952  0.00  0.00    +0.000 A 
ATOM      2  C   UNL     1       3.728   5.819  17.562  0.00  0.00    +0.000 A 
ATOM      3  C   UNL     1       2.549   5.435  18.209  0.00  0.00    +0.000 A 
ATOM      4  C   UNL     1       2.175   4.085  18.259  0.00  0.00    +0.000 A 
ATOM      5  C   UNL     1       3.000   3.113  17.665  0.00  0.00    +0.000 A 
ATOM      6  C   UNL     1       4.180   3.501  17.018  0.00  0.00    +0.000 A 
ENDROOT
BRANCH   4   7
ATOM      7  O   UNL     1       1.027   3.719  18.868  0.00  0.00    +0.000 OA
ATOM      8  H   UNL     1       1.019   3.242  19.710  0.00  0.00    +0.000 HD
ENDBRANCH   4   7
BRANCH   5   9
ATOM      9  O   UNL     1       2.672   1.804  17.691  0.00  0.00    +0.000 OA
ATOM     10  H   UNL     1       1.906   1.447  17.218  0.00  0.00    +0.000 HD
ENDBRANCH   5   9
BRANCH   1  11
ATOM     11  C   UNL     1       5.802   5.264  16.193  0.00  0.00    +0.000 C 
BRANCH  11  12
ATOM     12  O   UNL     1       5.547   6.439  15.464  0.00  0.00    +0.000 OA
ATOM     13  H   UNL     1       4.592   6.678  15.584  0.00  0.00    +0.000 HD
ENDBRANCH  11  12
BRANCH  11  14
ATOM     14  C   UNL     1       7.047   5.441  17.086  0.00  0.00    +0.000 C 
BRANCH  14  15
ATOM     15  N   UNL     1       7.873   4.238  17.084  0.00  0.00    +0.000 NA
ATOM     16  H   UNL     1       7.480   3.572  17.790  0.00  0.00    +0.000 HD
ATOM     17  H   UNL     1       8.839   4.486  17.402  0.00  0.00    +0.000 HD
ENDBRANCH  14  15
ENDBRANCH  11  14
ENDBRANCH   1  11
TORSDOF 6
ENDMDL
MODEL 6
REMARK VINA RESULT:      -5.2      2.719      4.945
REMARK  Name = 
REMARK  6 active torsions:
REMARK  status: ('A' for Active; 'I' for Inactive)
REMARK    1  A    between atoms: N_1  and  C_2
REMARK    2  A    between atoms: C_2  and  C_3
REMARK    3  A    between atoms: C_3  and  O_4
REMARK    4  A    between atoms: C_3  and  C_5
REMARK    5  A    between atoms: C_8  and  O_9
REMARK    6  A    between atoms: C_10  and  O_11
REMARK                            x       y       z     vdW  Elec       q    Type
REMARK                         _______ _______ _______ _____ _____    ______ ____
ROOT
ATOM      1  C   UNL     1       5.098   4.141  17.010  0.00  0.00    +0.000 A 
ATOM      2  C   UNL     1       5.217   3.507  15.760  0.00  0.00    +0.000 A 
ATOM      3  C   UNL     1       6.144   3.965  14.819  0.00  0.00    +0.000 A 
ATOM      4  C   UNL     1       6.969   5.060  15.110  0.00  0.00    +0.000 A 
ATOM      5  C   UNL     1       6.868   5.692  16.362  0.00  0.00    +0.000 A 
ATOM      6  C   UNL     1       5.938   5.231  17.303  0.00  0.00    +0.000 A 
ENDROOT
BRANCH   4   7
ATOM      7  O   UNL     1       7.850   5.512  14.192  0.00  0.00    +0.000 OA
ATOM      8  H   UNL     1       7.599   6.141  13.502  0.00  0.00    +0.000 HD
ENDBRANCH   4   7
BRANCH   5   9
ATOM      9  O   UNL     1       7.643   6.751  16.678  0.00  0.00    +0.000 OA
ATOM     10  H   UNL     1       8.466   6.665  17.181  0.00  0.00    +0.000 HD
ENDBRANCH   5   9
BRANCH   1  11
ATOM     11  C   UNL     1       4.055   3.695  18.018  0.00  0.00    +0.000 C 
BRANCH  11  12
ATOM     12  O   UNL     1       3.494   2.474  17.605  0.00  0.00    +0.000 OA
ATOM     13  H   UNL     1       3.054   2.053  18.388  0.00  0.00    +0.000 HD
ENDBRANCH  11  12
BRANCH  11  14
ATOM     14  C   UNL     1       4.585   3.584  19.462  0.00  0.00    +0.000 C 
BRANCH  14  15
ATOM     15  N   UNL     1       4.973   2.213  19.778  0.00  0.00    +0.000 NA
ATOM     16  H   UNL     1       4.109   1.679  20.030  0.00  0.00    +0.000 HD
ATOM     17  H   UNL     1       5.588   2.219  20.625  0.00  0.00    +0.000 HD
ENDBRANCH  14  15
ENDBRANCH  11  14
ENDBRANCH   1  11
TORSDOF 6
ENDMDL
MODEL 7
REMARK VINA RESULT:      -5.2      2.927      3.465
REMARK  Name = 
REMARK  6 active torsions:
REMARK  status: ('A' for Active; 'I' for Inactive)
REMARK    1  A    between atoms: N_1  and  C_2
REMARK    2  A    between atoms: C_2  and  C_3
REMARK    3  A    between atoms: C_3  and  O_4
REMARK    4  A    between atoms: C_3  and  C_5
REMARK    5  A    between atoms: C_8  and  O_9
REMARK    6  A    between atoms: C_10  and  O_11
REMARK                            x       y       z     vdW  Elec       q    Type
REMARK                         _______ _______ _______ _____ _____    ______ ____
ROOT
ATOM      1  C   UNL     1       2.805   4.710  18.744  0.00  0.00    +0.000 A 
ATOM      2  C   UNL     1       2.135   3.913  17.798  0.00  0.00    +0.000 A 
ATOM      3  C   UNL     1       2.496   2.575  17.616  0.00  0.00    +0.000 A 
ATOM      4  C   UNL     1       3.529   2.009  18.376  0.00  0.00    +0.000 A 
ATOM      5  C   UNL     1       4.196   2.793  19.335  0.00  0.00    +0.000 A 
ATOM      6  C   UNL     1       3.832   4.133  19.515  0.00  0.00    +0.000 A 
ENDROOT
BRANCH   4   7
ATOM      7  O   UNL     1       3.889   0.722  18.185  0.00  0.00    +0.000 OA
ATOM      8  H   UNL     1       4.439   0.241  18.819  0.00  0.00    +0.000 HD
ENDBRANCH   4   7
BRANCH   5   9
ATOM      9  O   UNL     1       5.197   2.284  20.084  0.00  0.00    +0.000 OA
ATOM     10  H   UNL     1       6.019   1.949  19.698  0.00  0.00    +0.000 HD
ENDBRANCH   5   9
BRANCH   1  11
ATOM     11  C   UNL     1       2.466   6.180  18.910  0.00  0.00    +0.000 C 
BRANCH  11  12
ATOM     12  O   UNL     1       2.689   6.567  20.243  0.00  0.00    +0.000 OA
ATOM     13  H   UNL     1       1.974   7.202  20.506  0.00  0.00    +0.000 HD
ENDBRANCH  11  12
BRANCH  11  14
ATOM     14  C   UNL     1       3.224   7.112  17.943  0.00  0.00    +0.000 C 
BRANCH  14  15
ATOM     15  N   UNL     1       2.554   8.403  17.821  0.00  0.00    +0.000 NA
ATOM     16  H   UNL     1       1.766   8.428  18.510  0.00  0.00    +0.000 HD
ATOM     17  H   UNL     1       2.130   8.479  16.867  0.00  0.00    +0.000 HD
ENDBRANCH  14  15
ENDBRANCH  11  14
ENDBRANCH   1  11
TORSDOF 6
ENDMDL
MODEL 8
REMARK VINA RESULT:      -5.2      2.470      4.662
REMARK  Name = 
REMARK  6 active torsions:
REMARK  status: ('A' for Active; 'I' for Inactive)
REMARK    1  A    between atoms: N_1  and  C_2
REMARK    2  A    between atoms: C_2  and  C_3
REMARK    3  A    between atoms: C_3  and  O_4
REMARK    4  A    between atoms: C_3  and  C_5
REMARK    5  A    between atoms: C_8  and  O_9
REMARK    6  A    between atoms: C_10  and  O_11
REMARK                            x       y       z     vdW  Elec       q    Type
REMARK                         _______ _______ _______ _____ _____    ______ ____
ROOT
ATOM      1  C   UNL     1       4.991   4.191  17.971  0.00  0.00    +0.000 A 
ATOM      2  C   UNL     1       5.806   4.895  18.876  0.00  0.00    +0.000 A 
ATOM      3  C   UNL     1       6.726   5.840  18.412  0.00  0.00    +0.000 A 
ATOM      4  C   UNL     1       6.846   6.100  17.040  0.00  0.00    +0.000 A 
ATOM      5  C   UNL     1       6.025   5.412  16.128  0.00  0.00    +0.000 A 
ATOM      6  C   UNL     1       5.105   4.465  16.596  0.00  0.00    +0.000 A 
ENDROOT
BRANCH   4   7
ATOM      7  O   UNL     1       7.748   7.000  16.594  0.00  0.00    +0.000 OA
ATOM      8  H   UNL     1       8.534   6.739  16.094  0.00  0.00    +0.000 HD
ENDBRANCH   4   7
BRANCH   5   9
ATOM      9  O   UNL     1       6.114   5.634  14.800  0.00  0.00    +0.000 OA
ATOM     10  H   UNL     1       6.948   5.861  14.362  0.00  0.00    +0.000 HD
ENDBRANCH   5   9
BRANCH   1  11
ATOM     11  C   UNL     1       4.032   3.118  18.453  0.00  0.00    +0.000 C 
BRANCH  11  12
ATOM     12  O   UNL     1       4.158   1.975  17.644  0.00  0.00    +0.000 OA
ATOM     13  H   UNL     1       4.735   1.321  18.117  0.00  0.00    +0.000 HD
ENDBRANCH  11  12
BRANCH  11  14
ATOM     14  C   UNL     1       4.201   2.747  19.941  0.00  0.00    +0.000 C 
BRANCH  14  15
ATOM     15  N   UNL     1       5.111   1.617  20.102  0.00  0.00    +0.000 NA
ATOM     16  H   UNL     1       6.042   1.889  19.708  0.00  0.00    +0.000 HD
ATOM     17  H   UNL     1       4.760   0.813  19.532  0.00  0.00    +0.000 HD
ENDBRANCH  14  15
ENDBRANCH  11  14
ENDBRANCH   1  11
TORSDOF 6
ENDMDL
MODEL 9
REMARK VINA RESULT:      -5.2      1.772      1.818
REMARK  Name = 
REMARK  6 active torsions:
REMARK  status: ('A' for Active; 'I' for Inactive)
REMARK    1  A    between atoms: N_1  and  C_2
REMARK    2  A    between atoms: C_2  and  C_3
REMARK    3  A    between atoms: C_3  and  O_4
REMARK    4  A    between atoms: C_3  and  C_5
REMARK    5  A    between atoms: C_8  and  O_9
REMARK    6  A    between atoms: C_10  and  O_11
REMARK                            x       y       z     vdW  Elec       q    Type
REMARK                         _______ _______ _______ _____ _____    ______ ____
ROOT
ATOM      1  C   UNL     1       3.981   4.241  18.687  0.00  0.00    +0.000 A 
ATOM      2  C   UNL     1       3.459   5.023  19.734  0.00  0.00    +0.000 A 
ATOM      3  C   UNL     1       2.281   4.642  20.383  0.00  0.00    +0.000 A 
ATOM      4  C   UNL     1       1.607   3.474  20.001  0.00  0.00    +0.000 A 
ATOM      5  C   UNL     1       2.128   2.677  18.966  0.00  0.00    +0.000 A 
ATOM      6  C   UNL     1       3.308   3.062  18.317  0.00  0.00    +0.000 A 
ENDROOT
BRANCH   4   7
ATOM      7  O   UNL     1       0.459   3.118  20.617  0.00  0.00    +0.000 OA
ATOM      8  H   UNL     1      -0.388   3.537  20.412  0.00  0.00    +0.000 HD
ENDBRANCH   4   7
BRANCH   5   9
ATOM      9  O   UNL     1       1.505   1.548  18.569  0.00  0.00    +0.000 OA
ATOM     10  H   UNL     1       1.266   0.839  19.183  0.00  0.00    +0.000 HD
ENDBRANCH   5   9
BRANCH   1  11
ATOM     11  C   UNL     1       5.225   4.674  17.932  0.00  0.00    +0.000 C 
BRANCH  11  12
ATOM     12  O   UNL     1       6.342   3.978  18.427  0.00  0.00    +0.000 OA
ATOM     13  H   UNL     1       7.161   4.430  18.097  0.00  0.00    +0.000 HD
ENDBRANCH  11  12
BRANCH  11  14
ATOM     14  C   UNL     1       5.120   4.509  16.402  0.00  0.00    +0.000 C 
BRANCH  14  15
ATOM     15  N   UNL     1       6.040   3.484  15.918  0.00  0.00    +0.000 NA
ATOM     16  H   UNL     1       5.481   2.752  15.421  0.00  0.00    +0.000 HD
ATOM     17  H   UNL     1       6.494   3.018  16.739  0.00  0.00    +0.000 HD
ENDBRANCH  14  15
ENDBRANCH  11  14
ENDBRANCH   1  11
TORSDOF 6
ENDMDL
