MODEL 1
REMARK VINA RESULT:      -7.0      0.000      0.000
REMARK  Name = 
REMARK  7 active torsions:
REMARK  status: ('A' for Active; 'I' for Inactive)
REMARK    1  A    between atoms: C_1  and  C_2
REMARK    2  A    between atoms: C_2  and  O_3
REMARK    3  A    between atoms: O_3  and  C_4
REMARK    4  A    between atoms: C_10  and  C_12
REMARK    5  A    between atoms: C_12  and  N_21
REMARK    6  A    between atoms: C_13  and  C_14
REMARK    7  A    between atoms: C_22  and  C_24
REMARK                            x       y       z     vdW  Elec       q    Type
REMARK                         _______ _______ _______ _____ _____    ______ ____
ROOT
ATOM      1  C   UNL     1       0.887   9.481  19.656  0.00  0.00    +0.000 C 
ATOM      2  C   UNL     1       1.216  10.148  20.777  0.00  0.00    +0.000 C 
ENDROOT
BRANCH   1   9
ATOM      3  C   UNL     1       3.168   3.373  20.421  0.00  0.00    +0.000 C 
ATOM      4  O   UNL     1       2.452   2.746  21.180  0.00  0.00    +0.000 OA
ATOM      5  N   UNL     1       3.072   4.740  20.235  0.00  0.00    +0.000 N 
ATOM      6  C   UNL     1       3.890   5.514  19.294  0.00  0.00    +0.000 C 
ATOM      7  C   UNL     1       3.023   6.437  18.402  0.00  0.00    +0.000 C 
ATOM      8  N   UNL     1       2.001   7.189  19.169  0.00  0.00    +0.000 N 
ATOM      9  C   UNL     1       1.859   8.554  18.910  0.00  0.00    +0.000 C 
ATOM     10  O   UNL     1       2.517   9.082  18.003  0.00  0.00    +0.000 OA
ATOM     11  C   UNL     1       1.181   6.278  19.996  0.00  0.00    +0.000 C 
ATOM     12  C   UNL     1       2.085   5.518  20.983  0.00  0.00    +0.000 C 
BRANCH   3  13
ATOM     13  O   UNL     1       4.137   2.806  19.650  0.00  0.00    +0.000 OA
BRANCH  13  15
ATOM     14  C   UNL     1       2.763   2.246  17.727  0.00  0.00    +0.000 C 
ATOM     15  C   UNL     1       3.721   1.734  18.788  0.00  0.00    +0.000 C 
ENDBRANCH  13  15
ENDBRANCH   3  13
ENDBRANCH   1   9
BRANCH   2  16
ATOM     16  C   UNL     1       0.332  10.989  21.592  0.00  0.00    +0.000 A 
ATOM     17  C   UNL     1       0.299  12.382  21.463  0.00  0.00    +0.000 A 
ATOM     18  C   UNL     1      -0.608  13.137  22.221  0.00  0.00    +0.000 A 
ATOM     19  C   UNL     1      -1.477  12.492  23.098  0.00  0.00    +0.000 A 
ATOM     20 CL   UNL     1      -2.580  13.408  24.048  0.00  0.00    +0.000 Cl
ATOM     21  C   UNL     1      -1.463  11.102  23.214  0.00  0.00    +0.000 A 
ATOM     22  C   UNL     1      -0.557  10.355  22.460  0.00  0.00    +0.000 A 
ENDBRANCH   2  16
BRANCH   1  23
ATOM     23  N   UNL     1      -0.372   9.680  19.055  0.00  0.00    +0.000 N 
ATOM     24  C   UNL     1      -0.657  10.841  18.313  0.00  0.00    +0.000 C 
ATOM     25  O   UNL     1       0.116  11.779  18.148  0.00  0.00    +0.000 OA
ATOM     26  H   UNL     1      -0.708   8.868  18.546  0.00  0.00    +0.000 HD
BRANCH  24  27
ATOM     27  C   UNL     1      -2.028  10.894  17.691  0.00  0.00    +0.000 A 
ATOM     28  C   UNL     1      -3.091  11.514  18.368  0.00  0.00    +0.000 A 
ATOM     29  C   UNL     1      -4.347  11.639  17.775  0.00  0.00    +0.000 A 
ATOM     30  C   UNL     1      -4.575  11.145  16.492  0.00  0.00    +0.000 A 
ATOM     31  C   UNL     1      -3.538  10.523  15.801  0.00  0.00    +0.000 A 
ATOM     32  C   UNL     1      -2.266  10.402  16.393  0.00  0.00    +0.000 A 
ENDBRANCH  24  27
ENDBRANCH   1  23
TORSDOF 6
ENDMDL
MODEL 2
REMARK VINA RESULT:      -7.0      4.416      9.128
REMARK  Name = 
REMARK  7 active torsions:
REMARK  status: ('A' for Active; 'I' for Inactive)
REMARK    1  A    between atoms: C_1  and  C_2
REMARK    2  A    between atoms: C_2  and  O_3
REMARK    3  A    between atoms: O_3  and  C_4
REMARK    4  A    between atoms: C_10  and  C_12
REMARK    5  A    between atoms: C_12  and  N_21
REMARK    6  A    between atoms: C_13  and  C_14
REMARK    7  A    between atoms: C_22  and  C_24
REMARK                            x       y       z     vdW  Elec       q    Type
REMARK                         _______ _______ _______ _____ _____    ______ ____
ROOT
ATOM      1  C   UNL     1       0.050  12.206  21.679  0.00  0.00    +0.000 C 
ATOM      2  C   UNL     1       0.508  13.446  21.428  0.00  0.00    +0.000 C 
ENDROOT
BRANCH   1   9
ATOM      3  C   UNL     1      -5.790  14.882  23.031  0.00  0.00    +0.000 C 
ATOM      4  O   UNL     1      -6.137  15.619  22.126  0.00  0.00    +0.000 OA
ATOM      5  N   UNL     1      -4.518  14.349  23.136  0.00  0.00    +0.000 N 
ATOM      6  C   UNL     1      -4.085  13.423  24.189  0.00  0.00    +0.000 C 
ATOM      7  C   UNL     1      -3.370  12.181  23.603  0.00  0.00    +0.000 C 
ATOM      8  N   UNL     1      -2.366  12.525  22.568  0.00  0.00    +0.000 N 
ATOM      9  C   UNL     1      -1.112  11.915  22.640  0.00  0.00    +0.000 C 
ATOM     10  O   UNL     1      -0.895  11.051  23.501  0.00  0.00    +0.000 OA
ATOM     11  C   UNL     1      -2.960  13.376  21.516  0.00  0.00    +0.000 C 
ATOM     12  C   UNL     1      -3.497  14.677  22.141  0.00  0.00    +0.000 C 
BRANCH   3  13
ATOM     13  O   UNL     1      -6.612  14.478  24.037  0.00  0.00    +0.000 OA
BRANCH  13  15
ATOM     14  C   UNL     1      -7.580  12.454  23.105  0.00  0.00    +0.000 C 
ATOM     15  C   UNL     1      -7.843  13.849  23.643  0.00  0.00    +0.000 C 
ENDBRANCH  13  15
ENDBRANCH   3  13
ENDBRANCH   1   9
BRANCH   2  16
ATOM     16  C   UNL     1       1.556  13.819  20.471  0.00  0.00    +0.000 A 
ATOM     17  C   UNL     1       1.301  13.964  19.103  0.00  0.00    +0.000 A 
ATOM     18  C   UNL     1       2.323  14.382  18.237  0.00  0.00    +0.000 A 
ATOM     19  C   UNL     1       3.588  14.657  18.749  0.00  0.00    +0.000 A 
ATOM     20 CL   UNL     1       4.855  15.152  17.695  0.00  0.00    +0.000 Cl
ATOM     21  C   UNL     1       3.842  14.536  20.115  0.00  0.00    +0.000 A 
ATOM     22  C   UNL     1       2.824  14.116  20.972  0.00  0.00    +0.000 A 
ENDBRANCH   2  16
BRANCH   1  23
ATOM     23  N   UNL     1       0.696  11.085  21.122  0.00  0.00    +0.000 N 
ATOM     24  C   UNL     1       0.220  10.468  19.950  0.00  0.00    +0.000 C 
ATOM     25  O   UNL     1      -0.787  10.806  19.336  0.00  0.00    +0.000 OA
ATOM     26  H   UNL     1       1.705  11.193  21.056  0.00  0.00    +0.000 HD
BRANCH  24  27
ATOM     27  C   UNL     1       1.040   9.310  19.447  0.00  0.00    +0.000 A 
ATOM     28  C   UNL     1       1.523   9.302  18.128  0.00  0.00    +0.000 A 
ATOM     29  C   UNL     1       2.347   8.275  17.669  0.00  0.00    +0.000 A 
ATOM     30  C   UNL     1       2.707   7.227  18.513  0.00  0.00    +0.000 A 
ATOM     31  C   UNL     1       2.239   7.210  19.825  0.00  0.00    +0.000 A 
ATOM     32  C   UNL     1       1.414   8.250  20.295  0.00  0.00    +0.000 A 
ENDBRANCH  24  27
ENDBRANCH   1  23
TORSDOF 6
ENDMDL
MODEL 3
REMARK VINA RESULT:      -7.0      2.412      3.179
REMARK  Name = 
REMARK  7 active torsions:
REMARK  status: ('A' for Active; 'I' for Inactive)
REMARK    1  A    between atoms: C_1  and  C_2
REMARK    2  A    between atoms: C_2  and  O_3
REMARK    3  A    between atoms: O_3  and  C_4
REMARK    4  A    between atoms: C_10  and  C_12
REMARK    5  A    between atoms: C_12  and  N_21
REMARK    6  A    between atoms: C_13  and  C_14
REMARK    7  A    between atoms: C_22  and  C_24
REMARK                            x       y       z     vdW  Elec       q    Type
REMARK                         _______ _______ _______ _____ _____    ______ ____
ROOT
ATOM      1  C   UNL     1       0.827  10.243  20.070  0.00  0.00    +0.000 C 
ATOM      2  C   UNL     1       1.527  11.342  20.404  0.00  0.00    +0.000 C 
ENDROOT
BRANCH   1   9
ATOM      3  C   UNL     1       3.132   4.367  18.267  0.00  0.00    +0.000 C 
ATOM      4  O   UNL     1       3.788   4.465  17.246  0.00  0.00    +0.000 OA
ATOM      5  N   UNL     1       2.342   5.386  18.769  0.00  0.00    +0.000 N 
ATOM      6  C   UNL     1       1.579   5.313  20.019  0.00  0.00    +0.000 C 
ATOM      7  C   UNL     1       1.831   6.546  20.921  0.00  0.00    +0.000 C 
ATOM      8  N   UNL     1       1.768   7.827  20.178  0.00  0.00    +0.000 N 
ATOM      9  C   UNL     1       1.034   8.876  20.738  0.00  0.00    +0.000 C 
ATOM     10  O   UNL     1       0.531   8.745  21.863  0.00  0.00    +0.000 OA
ATOM     11  C   UNL     1       2.661   7.803  19.001  0.00  0.00    +0.000 C 
ATOM     12  C   UNL     1       2.245   6.660  18.056  0.00  0.00    +0.000 C 
BRANCH   3  13
ATOM     13  O   UNL     1       3.108   3.253  19.049  0.00  0.00    +0.000 OA
BRANCH  13  15
ATOM     14  C   UNL     1       0.997   2.110  18.680  0.00  0.00    +0.000 C 
ATOM     15  C   UNL     1       2.501   2.083  18.477  0.00  0.00    +0.000 C 
ENDBRANCH  13  15
ENDBRANCH   3  13
ENDBRANCH   1   9
BRANCH   2  16
ATOM     16  C   UNL     1       1.341  12.698  19.874  0.00  0.00    +0.000 A 
ATOM     17  C   UNL     1       0.453  13.611  20.454  0.00  0.00    +0.000 A 
ATOM     18  C   UNL     1       0.356  14.916  19.948  0.00  0.00    +0.000 A 
ATOM     19  C   UNL     1       1.151  15.297  18.870  0.00  0.00    +0.000 A 
ATOM     20 CL   UNL     1       1.028  16.888  18.228  0.00  0.00    +0.000 Cl
ATOM     21  C   UNL     1       2.054  14.398  18.303  0.00  0.00    +0.000 A 
ATOM     22  C   UNL     1       2.145  13.099  18.807  0.00  0.00    +0.000 A 
ENDBRANCH   2  16
BRANCH   1  23
ATOM     23  N   UNL     1      -0.090  10.283  19.000  0.00  0.00    +0.000 N 
ATOM     24  C   UNL     1      -1.403  10.758  19.174  0.00  0.00    +0.000 C 
ATOM     25  O   UNL     1      -1.879  11.136  20.239  0.00  0.00    +0.000 OA
ATOM     26  H   UNL     1       0.300  10.684  18.151  0.00  0.00    +0.000 HD
BRANCH  24  27
ATOM     27  C   UNL     1      -2.253  10.785  17.931  0.00  0.00    +0.000 A 
ATOM     28  C   UNL     1      -1.912   9.997  16.820  0.00  0.00    +0.000 A 
ATOM     29  C   UNL     1      -2.729   9.952  15.691  0.00  0.00    +0.000 A 
ATOM     30  C   UNL     1      -3.906  10.696  15.640  0.00  0.00    +0.000 A 
ATOM     31  C   UNL     1      -4.266  11.488  16.728  0.00  0.00    +0.000 A 
ATOM     32  C   UNL     1      -3.447  11.529  17.874  0.00  0.00    +0.000 A 
ENDBRANCH  24  27
ENDBRANCH   1  23
TORSDOF 6
ENDMDL
MODEL 4
REMARK VINA RESULT:      -6.9      2.377      3.052
REMARK  Name = 
REMARK  7 active torsions:
REMARK  status: ('A' for Active; 'I' for Inactive)
REMARK    1  A    between atoms: C_1  and  C_2
REMARK    2  A    between atoms: C_2  and  O_3
REMARK    3  A    between atoms: O_3  and  C_4
REMARK    4  A    between atoms: C_10  and  C_12
REMARK    5  A    between atoms: C_12  and  N_21
REMARK    6  A    between atoms: C_13  and  C_14
REMARK    7  A    between atoms: C_22  and  C_24
REMARK                            x       y       z     vdW  Elec       q    Type
REMARK                         _______ _______ _______ _____ _____    ______ ____
ROOT
ATOM      1  C   UNL     1       0.602  10.276  20.381  0.00  0.00    +0.000 C 
ATOM      2  C   UNL     1       1.565  11.213  20.455  0.00  0.00    +0.000 C 
ENDROOT
BRANCH   1   9
ATOM      3  C   UNL     1       3.117   4.526  18.457  0.00  0.00    +0.000 C 
ATOM      4  O   UNL     1       3.874   4.689  17.518  0.00  0.00    +0.000 OA
ATOM      5  N   UNL     1       2.273   5.511  18.938  0.00  0.00    +0.000 N 
ATOM      6  C   UNL     1       1.385   5.359  20.095  0.00  0.00    +0.000 C 
ATOM      7  C   UNL     1       1.535   6.532  21.094  0.00  0.00    +0.000 C 
ATOM      8  N   UNL     1       1.541   7.858  20.432  0.00  0.00    +0.000 N 
ATOM      9  C   UNL     1       0.747   8.869  20.979  0.00  0.00    +0.000 C 
ATOM     10  O   UNL     1       0.131   8.666  22.034  0.00  0.00    +0.000 OA
ATOM     11  C   UNL     1       2.551   7.909  19.355  0.00  0.00    +0.000 C 
ATOM     12  C   UNL     1       2.243   6.828  18.302  0.00  0.00    +0.000 C 
BRANCH   3  13
ATOM     13  O   UNL     1       3.019   3.364  19.160  0.00  0.00    +0.000 OA
BRANCH  13  15
ATOM     14  C   UNL     1       0.964   2.165  18.672  0.00  0.00    +0.000 C 
ATOM     15  C   UNL     1       2.465   2.238  18.459  0.00  0.00    +0.000 C 
ENDBRANCH  13  15
ENDBRANCH   3  13
ENDBRANCH   1   9
BRANCH   2  16
ATOM     16  C   UNL     1       1.481  12.599  19.982  0.00  0.00    +0.000 A 
ATOM     17  C   UNL     1       0.774  13.585  20.680  0.00  0.00    +0.000 A 
ATOM     18  C   UNL     1       0.774  14.910  20.220  0.00  0.00    +0.000 A 
ATOM     19  C   UNL     1       1.486  15.238  19.068  0.00  0.00    +0.000 A 
ATOM     20 CL   UNL     1       1.478  16.856  18.482  0.00  0.00    +0.000 Cl
ATOM     21  C   UNL     1       2.210  14.264  18.380  0.00  0.00    +0.000 A 
ATOM     22  C   UNL     1       2.204  12.946  18.840  0.00  0.00    +0.000 A 
ENDBRANCH   2  16
BRANCH   1  23
ATOM     23  N   UNL     1      -0.579  10.528  19.654  0.00  0.00    +0.000 N 
ATOM     24  C   UNL     1      -0.693  10.183  18.294  0.00  0.00    +0.000 C 
ATOM     25  O   UNL     1       0.198   9.680  17.618  0.00  0.00    +0.000 OA
ATOM     26  H   UNL     1      -1.421  10.240  20.143  0.00  0.00    +0.000 HD
BRANCH  24  27
ATOM     27  C   UNL     1      -2.029  10.469  17.662  0.00  0.00    +0.000 A 
ATOM     28  C   UNL     1      -2.990  11.232  18.347  0.00  0.00    +0.000 A 
ATOM     29  C   UNL     1      -4.202  11.571  17.747  0.00  0.00    +0.000 A 
ATOM     30  C   UNL     1      -4.489  11.154  16.448  0.00  0.00    +0.000 A 
ATOM     31  C   UNL     1      -3.554  10.394  15.748  0.00  0.00    +0.000 A 
ATOM     32  C   UNL     1      -2.325  10.057  16.349  0.00  0.00    +0.000 A 
ENDBRANCH  24  27
ENDBRANCH   1  23
TORSDOF 6
ENDMDL
MODEL 5
REMARK VINA RESULT:      -6.9      4.114      8.548
REMARK  Name = 
REMARK  7 active torsions:
REMARK  status: ('A' for Active; 'I' for Inactive)
REMARK    1  A    between atoms: C_1  and  C_2
REMARK    2  A    between atoms: C_2  and  O_3
REMARK    3  A    between atoms: O_3  and  C_4
REMARK    4  A    between atoms: C_10  and  C_12
REMARK    5  A    between atoms: C_12  and  N_21
REMARK    6  A    between atoms: C_13  and  C_14
REMARK    7  A    between atoms: C_22  and  C_24
REMARK                            x       y       z     vdW  Elec       q    Type
REMARK                         _______ _______ _______ _____ _____    ______ ____
ROOT
ATOM      1  C   UNL     1       0.256  11.017  20.807  0.00  0.00    +0.000 C 
ATOM      2  C   UNL     1       1.244  10.124  20.995  0.00  0.00    +0.000 C 
ENDROOT
BRANCH   1   9
ATOM      3  C   UNL     1      -4.591  14.198  23.886  0.00  0.00    +0.000 C 
ATOM      4  O   UNL     1      -5.540  13.454  24.063  0.00  0.00    +0.000 OA
ATOM      5  N   UNL     1      -3.515  13.883  23.076  0.00  0.00    +0.000 N 
ATOM      6  C   UNL     1      -2.339  14.738  22.880  0.00  0.00    +0.000 C 
ATOM      7  C   UNL     1      -1.019  13.955  23.076  0.00  0.00    +0.000 C 
ATOM      8  N   UNL     1      -1.013  12.647  22.377  0.00  0.00    +0.000 N 
ATOM      9  C   UNL     1       0.117  12.307  21.631  0.00  0.00    +0.000 C 
ATOM     10  O   UNL     1       1.107  13.051  21.635  0.00  0.00    +0.000 OA
ATOM     11  C   UNL     1      -2.198  11.845  22.744  0.00  0.00    +0.000 C 
ATOM     12  C   UNL     1      -3.480  12.607  22.361  0.00  0.00    +0.000 C 
BRANCH   3  13
ATOM     13  O   UNL     1      -4.466  15.419  24.473  0.00  0.00    +0.000 OA
BRANCH  13  15
ATOM     14  C   UNL     1      -5.290  17.640  25.008  0.00  0.00    +0.000 C 
ATOM     15  C   UNL     1      -5.532  16.354  24.238  0.00  0.00    +0.000 C 
ENDBRANCH  13  15
ENDBRANCH   3  13
ENDBRANCH   1   9
BRANCH   2  16
ATOM     16  C   UNL     1       1.495   8.912  20.207  0.00  0.00    +0.000 A 
ATOM     17  C   UNL     1       1.783   8.957  18.838  0.00  0.00    +0.000 A 
ATOM     18  C   UNL     1       2.076   7.776  18.141  0.00  0.00    +0.000 A 
ATOM     19  C   UNL     1       2.084   6.560  18.821  0.00  0.00    +0.000 A 
ATOM     20 CL   UNL     1       2.423   5.102  17.973  0.00  0.00    +0.000 Cl
ATOM     21  C   UNL     1       1.820   6.511  20.189  0.00  0.00    +0.000 A 
ATOM     22  C   UNL     1       1.525   7.689  20.878  0.00  0.00    +0.000 A 
ENDBRANCH   2  16
BRANCH   1  23
ATOM     23  N   UNL     1      -0.772  10.755  19.879  0.00  0.00    +0.000 N 
ATOM     24  C   UNL     1      -0.908  11.508  18.699  0.00  0.00    +0.000 C 
ATOM     25  O   UNL     1      -0.197  12.457  18.384  0.00  0.00    +0.000 OA
ATOM     26  H   UNL     1      -0.871   9.768  19.659  0.00  0.00    +0.000 HD
BRANCH  24  27
ATOM     27  C   UNL     1      -2.023  11.082  17.782  0.00  0.00    +0.000 A 
ATOM     28  C   UNL     1      -3.266  11.734  17.825  0.00  0.00    +0.000 A 
ATOM     29  C   UNL     1      -4.284  11.404  16.932  0.00  0.00    +0.000 A 
ATOM     30  C   UNL     1      -4.089  10.412  15.973  0.00  0.00    +0.000 A 
ATOM     31  C   UNL     1      -2.866   9.749  15.910  0.00  0.00    +0.000 A 
ATOM     32  C   UNL     1      -1.832  10.085  16.806  0.00  0.00    +0.000 A 
ENDBRANCH  24  27
ENDBRANCH   1  23
TORSDOF 6
ENDMDL
MODEL 6
REMARK VINA RESULT:      -6.7      2.339      2.948
REMARK  Name = 
REMARK  7 active torsions:
REMARK  status: ('A' for Active; 'I' for Inactive)
REMARK    1  A    between atoms: C_1  and  C_2
REMARK    2  A    between atoms: C_2  and  O_3
REMARK    3  A    between atoms: O_3  and  C_4
REMARK    4  A    between atoms: C_10  and  C_12
REMARK    5  A    between atoms: C_12  and  N_21
REMARK    6  A    between atoms: C_13  and  C_14
REMARK    7  A    between atoms: C_22  and  C_24
REMARK                            x       y       z     vdW  Elec       q    Type
REMARK                         _______ _______ _______ _____ _____    ______ ____
ROOT
ATOM      1  C   UNL     1       0.813  10.196  19.989  0.00  0.00    +0.000 C 
ATOM      2  C   UNL     1       1.470  11.318  20.336  0.00  0.00    +0.000 C 
ENDROOT
BRANCH   1   9
ATOM      3  C   UNL     1       3.278   4.438  18.023  0.00  0.00    +0.000 C 
ATOM      4  O   UNL     1       3.901   4.577  16.986  0.00  0.00    +0.000 OA
ATOM      5  N   UNL     1       2.467   5.419  18.563  0.00  0.00    +0.000 N 
ATOM      6  C   UNL     1       1.741   5.298  19.833  0.00  0.00    +0.000 C 
ATOM      7  C   UNL     1       1.974   6.525  20.748  0.00  0.00    +0.000 C 
ATOM      8  N   UNL     1       1.843   7.815  20.030  0.00  0.00    +0.000 N 
ATOM      9  C   UNL     1       1.088   8.826  20.628  0.00  0.00    +0.000 C 
ATOM     10  O   UNL     1       0.622   8.659  21.763  0.00  0.00    +0.000 OA
ATOM     11  C   UNL     1       2.704   7.843  18.828  0.00  0.00    +0.000 C 
ATOM     12  C   UNL     1       2.304   6.701  17.876  0.00  0.00    +0.000 C 
BRANCH   3  13
ATOM     13  O   UNL     1       3.317   3.311  18.786  0.00  0.00    +0.000 OA
BRANCH  13  15
ATOM     14  C   UNL     1       1.338   1.903  18.775  0.00  0.00    +0.000 C 
ATOM     15  C   UNL     1       2.730   2.131  18.213  0.00  0.00    +0.000 C 
ENDBRANCH  13  15
ENDBRANCH   3  13
ENDBRANCH   1   9
BRANCH   2  16
ATOM     16  C   UNL     1       1.219  12.674  19.835  0.00  0.00    +0.000 A 
ATOM     17  C   UNL     1       1.801  13.155  18.657  0.00  0.00    +0.000 A 
ATOM     18  C   UNL     1       1.482  14.437  18.187  0.00  0.00    +0.000 A 
ATOM     19  C   UNL     1       0.579  15.225  18.896  0.00  0.00    +0.000 A 
ATOM     20 CL   UNL     1       0.193  16.807  18.341  0.00  0.00    +0.000 Cl
ATOM     21  C   UNL     1      -0.022  14.742  20.059  0.00  0.00    +0.000 A 
ATOM     22  C   UNL     1       0.301  13.467  20.525  0.00  0.00    +0.000 A 
ENDBRANCH   2  16
BRANCH   1  23
ATOM     23  N   UNL     1      -0.119  10.217  18.932  0.00  0.00    +0.000 N 
ATOM     24  C   UNL     1      -1.450  10.629  19.133  0.00  0.00    +0.000 C 
ATOM     25  O   UNL     1      -1.927  10.965  20.212  0.00  0.00    +0.000 OA
ATOM     26  H   UNL     1       0.241  10.651  18.087  0.00  0.00    +0.000 HD
BRANCH  24  27
ATOM     27  C   UNL     1      -2.317  10.644  17.903  0.00  0.00    +0.000 A 
ATOM     28  C   UNL     1      -3.486  11.423  17.867  0.00  0.00    +0.000 A 
ATOM     29  C   UNL     1      -4.259  11.508  16.711  0.00  0.00    +0.000 A 
ATOM     30  C   UNL     1      -3.889  10.815  15.560  0.00  0.00    +0.000 A 
ATOM     31  C   UNL     1      -2.736  10.034  15.569  0.00  0.00    +0.000 A 
ATOM     32  C   UNL     1      -1.947   9.952  16.734  0.00  0.00    +0.000 A 
ENDBRANCH  24  27
ENDBRANCH   1  23
TORSDOF 6
ENDMDL
MODEL 7
REMARK VINA RESULT:      -6.7      3.100      5.101
REMARK  Name = 
REMARK  7 active torsions:
REMARK  status: ('A' for Active; 'I' for Inactive)
REMARK    1  A    between atoms: C_1  and  C_2
REMARK    2  A    between atoms: C_2  and  O_3
REMARK    3  A    between atoms: O_3  and  C_4
REMARK    4  A    between atoms: C_10  and  C_12
REMARK    5  A    between atoms: C_12  and  N_21
REMARK    6  A    between atoms: C_13  and  C_14
REMARK    7  A    between atoms: C_22  and  C_24
REMARK                            x       y       z     vdW  Elec       q    Type
REMARK                         _______ _______ _______ _____ _____    ______ ____
ROOT
ATOM      1  C   UNL     1      -1.247  11.686  22.472  0.00  0.00    +0.000 C 
ATOM      2  C   UNL     1      -2.294  11.857  23.299  0.00  0.00    +0.000 C 
ENDROOT
BRANCH   1   9
ATOM      3  C   UNL     1       2.428   8.079  18.401  0.00  0.00    +0.000 C 
ATOM      4  O   UNL     1       2.535   8.635  17.322  0.00  0.00    +0.000 OA
ATOM      5  N   UNL     1       1.542   8.482  19.384  0.00  0.00    +0.000 N 
ATOM      6  C   UNL     1       1.424   7.861  20.708  0.00  0.00    +0.000 C 
ATOM      7  C   UNL     1       1.458   8.914  21.842  0.00  0.00    +0.000 C 
ATOM      8  N   UNL     1       0.583  10.081  21.575  0.00  0.00    +0.000 N 
ATOM      9  C   UNL     1      -0.246  10.529  22.606  0.00  0.00    +0.000 C 
ATOM     10  O   UNL     1      -0.174  10.007  23.727  0.00  0.00    +0.000 OA
ATOM     11  C   UNL     1       0.877  10.673  20.254  0.00  0.00    +0.000 C 
ATOM     12  C   UNL     1       0.654   9.621  19.151  0.00  0.00    +0.000 C 
BRANCH   3  13
ATOM     13  O   UNL     1       3.177   7.006  18.778  0.00  0.00    +0.000 OA
BRANCH  13  15
ATOM     14  C   UNL     1       2.181   4.919  18.037  0.00  0.00    +0.000 C 
ATOM     15  C   UNL     1       3.287   5.937  17.825  0.00  0.00    +0.000 C 
ENDBRANCH  13  15
ENDBRANCH   3  13
ENDBRANCH   1   9
BRANCH   2  16
ATOM     16  C   UNL     1      -3.337  12.884  23.197  0.00  0.00    +0.000 A 
ATOM     17  C   UNL     1      -4.457  12.732  22.371  0.00  0.00    +0.000 A 
ATOM     18  C   UNL     1      -5.457  13.714  22.355  0.00  0.00    +0.000 A 
ATOM     19  C   UNL     1      -5.332  14.838  23.169  0.00  0.00    +0.000 A 
ATOM     20 CL   UNL     1      -6.543  16.060  23.143  0.00  0.00    +0.000 Cl
ATOM     21  C   UNL     1      -4.229  14.984  24.010  0.00  0.00    +0.000 A 
ATOM     22  C   UNL     1      -3.234  14.006  24.021  0.00  0.00    +0.000 A 
ENDBRANCH   2  16
BRANCH   1  23
ATOM     23  N   UNL     1      -0.969  12.640  21.472  0.00  0.00    +0.000 N 
ATOM     24  C   UNL     1      -0.175  13.771  21.736  0.00  0.00    +0.000 C 
ATOM     25  O   UNL     1       0.310  14.053  22.827  0.00  0.00    +0.000 OA
ATOM     26  H   UNL     1      -0.679  12.226  20.591  0.00  0.00    +0.000 HD
BRANCH  24  27
ATOM     27  C   UNL     1       0.075  14.678  20.560  0.00  0.00    +0.000 A 
ATOM     28  C   UNL     1      -0.913  15.585  20.140  0.00  0.00    +0.000 A 
ATOM     29  C   UNL     1      -0.671  16.483  19.102  0.00  0.00    +0.000 A 
ATOM     30  C   UNL     1       0.563  16.498  18.453  0.00  0.00    +0.000 A 
ATOM     31  C   UNL     1       1.558  15.608  18.848  0.00  0.00    +0.000 A 
ATOM     32  C   UNL     1       1.320  14.704  19.902  0.00  0.00    +0.000 A 
ENDBRANCH  24  27
ENDBRANCH   1  23
TORSDOF 6
ENDMDL
MODEL 8
REMARK VINA RESULT:      -6.7      4.389      9.101
REMARK  Name = 
REMARK  7 active torsions:
REMARK  status: ('A' for Active; 'I' for Inactive)
REMARK    1  A    between atoms: C_1  and  C_2
REMARK    2  A    between atoms: C_2  and  O_3
REMARK    3  A    between atoms: O_3  and  C_4
REMARK    4  A    between atoms: C_10  and  C_12
REMARK    5  A    between atoms: C_12  and  N_21
REMARK    6  A    between atoms: C_13  and  C_14
REMARK    7  A    between atoms: C_22  and  C_24
REMARK                            x       y       z     vdW  Elec       q    Type
REMARK                         _______ _______ _______ _____ _____    ______ ____
ROOT
ATOM      1  C   UNL     1       0.087  12.516  21.489  0.00  0.00    +0.000 C 
ATOM      2  C   UNL     1       0.634  13.731  21.303  0.00  0.00    +0.000 C 
ENDROOT
BRANCH   1   9
ATOM      3  C   UNL     1      -6.095  14.725  21.536  0.00  0.00    +0.000 C 
ATOM      4  O   UNL     1      -6.369  15.238  20.466  0.00  0.00    +0.000 OA
ATOM      5  N   UNL     1      -4.811  14.367  21.905  0.00  0.00    +0.000 N 
ATOM      6  C   UNL     1      -4.457  13.706  23.166  0.00  0.00    +0.000 C 
ATOM      7  C   UNL     1      -3.561  12.465  22.935  0.00  0.00    +0.000 C 
ATOM      8  N   UNL     1      -2.452  12.722  21.986  0.00  0.00    +0.000 N 
ATOM      9  C   UNL     1      -1.173  12.280  22.335  0.00  0.00    +0.000 C 
ATOM     10  O   UNL     1      -1.010  11.620  23.371  0.00  0.00    +0.000 OA
ATOM     11  C   UNL     1      -2.957  13.291  20.719  0.00  0.00    +0.000 C 
ATOM     12  C   UNL     1      -3.688  14.616  21.000  0.00  0.00    +0.000 C 
BRANCH   3  13
ATOM     13  O   UNL     1      -7.017  14.425  22.492  0.00  0.00    +0.000 OA
BRANCH  13  15
ATOM     14  C   UNL     1      -7.916  12.356  23.393  0.00  0.00    +0.000 C 
ATOM     15  C   UNL     1      -7.886  13.313  22.215  0.00  0.00    +0.000 C 
ENDBRANCH  13  15
ENDBRANCH   3  13
ENDBRANCH   1   9
BRANCH   2  16
ATOM     16  C   UNL     1       1.785  14.055  20.452  0.00  0.00    +0.000 A 
ATOM     17  C   UNL     1       3.058  14.302  20.980  0.00  0.00    +0.000 A 
ATOM     18  C   UNL     1       4.139  14.548  20.122  0.00  0.00    +0.000 A 
ATOM     19  C   UNL     1       3.940  14.540  18.744  0.00  0.00    +0.000 A 
ATOM     20 CL   UNL     1       5.255  14.859  17.681  0.00  0.00    +0.000 Cl
ATOM     21  C   UNL     1       2.678  14.273  18.212  0.00  0.00    +0.000 A 
ATOM     22  C   UNL     1       1.604  14.032  19.069  0.00  0.00    +0.000 A 
ENDBRANCH   2  16
BRANCH   1  23
ATOM     23  N   UNL     1       0.718  11.366  20.973  0.00  0.00    +0.000 N 
ATOM     24  C   UNL     1       0.218  10.700  19.839  0.00  0.00    +0.000 C 
ATOM     25  O   UNL     1      -0.797  11.016  19.227  0.00  0.00    +0.000 OA
ATOM     26  H   UNL     1       1.725  11.466  20.885  0.00  0.00    +0.000 HD
BRANCH  24  27
ATOM     27  C   UNL     1       1.023   9.515  19.375  0.00  0.00    +0.000 A 
ATOM     28  C   UNL     1       1.538   9.473  18.068  0.00  0.00    +0.000 A 
ATOM     29  C   UNL     1       2.349   8.421  17.647  0.00  0.00    +0.000 A 
ATOM     30  C   UNL     1       2.665   7.380  18.518  0.00  0.00    +0.000 A 
ATOM     31  C   UNL     1       2.166   7.396  19.818  0.00  0.00    +0.000 A 
ATOM     32  C   UNL     1       1.353   8.462  20.250  0.00  0.00    +0.000 A 
ENDBRANCH  24  27
ENDBRANCH   1  23
TORSDOF 6
ENDMDL
MODEL 9
REMARK VINA RESULT:      -6.7      2.361      3.169
REMARK  Name = 
REMARK  7 active torsions:
REMARK  status: ('A' for Active; 'I' for Inactive)
REMARK    1  A    between atoms: C_1  and  C_2
REMARK    2  A    between atoms: C_2  and  O_3
REMARK    3  A    between atoms: O_3  and  C_4
REMARK    4  A    between atoms: C_10  and  C_12
REMARK    5  A    between atoms: C_12  and  N_21
REMARK    6  A    between atoms: C_13  and  C_14
REMARK    7  A    between atoms: C_22  and  C_24
REMARK                            x       y       z     vdW  Elec       q    Type
REMARK                         _______ _______ _______ _____ _____    ______ ____
ROOT
ATOM      1  C   UNL     1       0.592  10.301  20.424  0.00  0.00    +0.000 C 
ATOM      2  C   UNL     1       1.584  11.203  20.527  0.00  0.00    +0.000 C 
ENDROOT
BRANCH   1   9
ATOM      3  C   UNL     1       3.097   4.514  18.600  0.00  0.00    +0.000 C 
ATOM      4  O   UNL     1       3.911   4.668  17.707  0.00  0.00    +0.000 OA
ATOM      5  N   UNL     1       2.247   5.513  19.039  0.00  0.00    +0.000 N 
ATOM      6  C   UNL     1       1.290   5.370  20.141  0.00  0.00    +0.000 C 
ATOM      7  C   UNL     1       1.405   6.532  21.158  0.00  0.00    +0.000 C 
ATOM      8  N   UNL     1       1.477   7.863  20.509  0.00  0.00    +0.000 N 
ATOM      9  C   UNL     1       0.673   8.886  21.017  0.00  0.00    +0.000 C 
ATOM     10  O   UNL     1      -0.008   8.689  22.033  0.00  0.00    +0.000 OA
ATOM     11  C   UNL     1       2.549   7.901  19.493  0.00  0.00    +0.000 C 
ATOM     12  C   UNL     1       2.281   6.836  18.414  0.00  0.00    +0.000 C 
BRANCH   3  13
ATOM     13  O   UNL     1       2.935   3.349  19.285  0.00  0.00    +0.000 OA
BRANCH  13  15
ATOM     14  C   UNL     1       3.704   1.287  18.258  0.00  0.00    +0.000 C 
ATOM     15  C   UNL     1       2.524   2.207  18.516  0.00  0.00    +0.000 C 
ENDBRANCH  13  15
ENDBRANCH   3  13
ENDBRANCH   1   9
BRANCH   2  16
ATOM     16  C   UNL     1       1.560  12.594  20.061  0.00  0.00    +0.000 A 
ATOM     17  C   UNL     1       1.001  13.628  20.821  0.00  0.00    +0.000 A 
ATOM     18  C   UNL     1       1.057  14.951  20.359  0.00  0.00    +0.000 A 
ATOM     19  C   UNL     1       1.677  15.229  19.143  0.00  0.00    +0.000 A 
ATOM     20 CL   UNL     1       1.735  16.845  18.556  0.00  0.00    +0.000 Cl
ATOM     21  C   UNL     1       2.255  14.206  18.392  0.00  0.00    +0.000 A 
ATOM     22  C   UNL     1       2.194  12.891  18.853  0.00  0.00    +0.000 A 
ENDBRANCH   2  16
BRANCH   1  23
ATOM     23  N   UNL     1      -0.561  10.597  19.670  0.00  0.00    +0.000 N 
ATOM     24  C   UNL     1      -0.665  10.237  18.313  0.00  0.00    +0.000 C 
ATOM     25  O   UNL     1       0.214   9.682  17.663  0.00  0.00    +0.000 OA
ATOM     26  H   UNL     1      -1.426  10.357  20.146  0.00  0.00    +0.000 HD
BRANCH  24  27
ATOM     27  C   UNL     1      -1.973  10.576  17.650  0.00  0.00    +0.000 A 
ATOM     28  C   UNL     1      -2.277  10.068  16.376  0.00  0.00    +0.000 A 
ATOM     29  C   UNL     1      -3.514  10.310  15.780  0.00  0.00    +0.000 A 
ATOM     30  C   UNL     1      -4.480  11.068  16.439  0.00  0.00    +0.000 A 
ATOM     31  C   UNL     1      -4.203  11.586  17.702  0.00  0.00    +0.000 A 
ATOM     32  C   UNL     1      -2.957  11.337  18.311  0.00  0.00    +0.000 A 
ENDBRANCH  24  27
ENDBRANCH   1  23
TORSDOF 6
ENDMDL
