MODEL 1
REMARK VINA RESULT:      -8.7      0.000      0.000
REMARK  Name = 
REMARK  12 active torsions:
REMARK  status: ('A' for Active; 'I' for Inactive)
REMARK    1  A    between atoms: C_1  and  O_2
REMARK    2  A    between atoms: O_2  and  C_3
REMARK    3  A    between atoms: C_6  and  N_7
REMARK    4  A    between atoms: N_10  and  C_11
REMARK    5  A    between atoms: C_11  and  C_12
REMARK    6  A    between atoms: C_12  and  C_13
REMARK    7  A    between atoms: C_13  and  C_14
REMARK    8  A    between atoms: C_14  and  N_15
REMARK    9  A    between atoms: C_16  and  C_18
REMARK   10  A    between atoms: C_21  and  C_22
REMARK   11  A    between atoms: C_32  and  O_33
REMARK   12  A    between atoms: O_33  and  C_34
REMARK                            x       y       z     vdW  Elec       q    Type
REMARK                         _______ _______ _______ _____ _____    ______ ____
ROOT
ATOM      1  C   UNL     1       2.103   2.971  21.310  0.00  0.00    +0.000 C 
ENDROOT
BRANCH   1   2
ATOM      2  C   UNL     1       1.592   2.807  19.871  0.00  0.00    +0.000 C 
BRANCH   2   6
ATOM      3  N   UNL     1       4.128   4.011  17.679  0.00  0.00    +0.000 N 
ATOM      4  C   UNL     1       2.760   3.745  17.215  0.00  0.00    +0.000 C 
ATOM      5  C   UNL     1       2.333   2.309  17.582  0.00  0.00    +0.000 C 
ATOM      6  N   UNL     1       2.475   1.983  19.025  0.00  0.00    +0.000 NA
ATOM      7  C   UNL     1       3.899   2.214  19.381  0.00  0.00    +0.000 C 
ATOM      8  C   UNL     1       4.436   3.633  19.067  0.00  0.00    +0.000 C 
BRANCH   3  12
ATOM      9  C   UNL     1       7.163   5.102  14.950  0.00  0.00    +0.000 A 
ATOM     10  C   UNL     1       6.042   4.397  14.532  0.00  0.00    +0.000 A 
ATOM     11  C   UNL     1       5.059   4.035  15.450  0.00  0.00    +0.000 A 
ATOM     12  C   UNL     1       5.146   4.374  16.812  0.00  0.00    +0.000 A 
ATOM     13  C   UNL     1       6.300   5.088  17.228  0.00  0.00    +0.000 A 
ATOM     14  C   UNL     1       7.294   5.435  16.298  0.00  0.00    +0.000 A 
BRANCH   9  16
ATOM     15  C   UNL     1       7.643   5.119  12.628  0.00  0.00    +0.000 C 
ATOM     16  O   UNL     1       8.049   5.415  13.957  0.00  0.00    +0.000 OA
ENDBRANCH   9  16
BRANCH  13  17
ATOM     17  O   UNL     1       6.361   5.461  18.554  0.00  0.00    +0.000 OA
ATOM     18  C   UNL     1       7.638   5.756  19.104  0.00  0.00    +0.000 C 
ENDBRANCH  13  17
ENDBRANCH   3  12
ENDBRANCH   2   6
ENDBRANCH   1   2
BRANCH   1  19
ATOM     19  C   UNL     1       2.257   4.427  21.744  0.00  0.00    +0.000 C 
BRANCH  19  20
ATOM     20  C   UNL     1       1.956   5.379  20.595  0.00  0.00    +0.000 C 
BRANCH  20  21
ATOM     21  N   UNL     1       1.266   6.556  21.051  0.00  0.00    +0.000 N 
ATOM     22  C   UNL     1       1.497   7.794  20.497  0.00  0.00    +0.000 C 
ATOM     23  O   UNL     1       2.266   8.003  19.570  0.00  0.00    +0.000 OA
ATOM     24  H   UNL     1       0.458   6.415  21.642  0.00  0.00    +0.000 HD
BRANCH  22  25
ATOM     25  C   UNL     1       0.715   8.899  21.103  0.00  0.00    +0.000 A 
ATOM     26  C   UNL     1       0.012   9.801  20.300  0.00  0.00    +0.000 A 
ATOM     27  C   UNL     1      -0.699  10.845  20.886  0.00  0.00    +0.000 A 
ATOM     28  C   UNL     1      -0.761  11.001  22.282  0.00  0.00    +0.000 A 
ATOM     29  C   UNL     1      -0.064  10.065  23.071  0.00  0.00    +0.000 A 
ATOM     30  C   UNL     1       0.669   9.024  22.491  0.00  0.00    +0.000 A 
BRANCH  28  31
ATOM     31  C   UNL     1      -1.535  12.112  22.877  0.00  0.00    +0.000 A 
ATOM     32  C   UNL     1      -0.937  13.365  23.119  0.00  0.00    +0.000 A 
ATOM     33  C   UNL     1      -1.638  14.404  23.735  0.00  0.00    +0.000 A 
ATOM     34  C   UNL     1      -2.966  14.222  24.102  0.00  0.00    +0.000 A 
ATOM     35  C   UNL     1      -3.591  13.003  23.851  0.00  0.00    +0.000 A 
ATOM     36  C   UNL     1      -2.881  11.959  23.251  0.00  0.00    +0.000 A 
ENDBRANCH  28  31
ENDBRANCH  22  25
ENDBRANCH  20  21
ENDBRANCH  19  20
ENDBRANCH   1  19
TORSDOF 10
ENDMDL
MODEL 2
REMARK VINA RESULT:      -8.0      2.977      3.636
REMARK  Name = 
REMARK  12 active torsions:
REMARK  status: ('A' for Active; 'I' for Inactive)
REMARK    1  A    between atoms: C_1  and  O_2
REMARK    2  A    between atoms: O_2  and  C_3
REMARK    3  A    between atoms: C_6  and  N_7
REMARK    4  A    between atoms: N_10  and  C_11
REMARK    5  A    between atoms: C_11  and  C_12
REMARK    6  A    between atoms: C_12  and  C_13
REMARK    7  A    between atoms: C_13  and  C_14
REMARK    8  A    between atoms: C_14  and  N_15
REMARK    9  A    between atoms: C_16  and  C_18
REMARK   10  A    between atoms: C_21  and  C_22
REMARK   11  A    between atoms: C_32  and  O_33
REMARK   12  A    between atoms: O_33  and  C_34
REMARK                            x       y       z     vdW  Elec       q    Type
REMARK                         _______ _______ _______ _____ _____    ______ ____
ROOT
ATOM      1  C   UNL     1       1.400   5.891  20.543  0.00  0.00    +0.000 C 
ENDROOT
BRANCH   1   2
ATOM      2  C   UNL     1       2.473   4.818  20.777  0.00  0.00    +0.000 C 
BRANCH   2   6
ATOM      3  N   UNL     1       4.524   4.969  17.870  0.00  0.00    +0.000 N 
ATOM      4  C   UNL     1       3.142   5.467  17.874  0.00  0.00    +0.000 C 
ATOM      5  C   UNL     1       2.176   4.376  18.379  0.00  0.00    +0.000 C 
ATOM      6  N   UNL     1       2.538   3.809  19.704  0.00  0.00    +0.000 NA
ATOM      7  C   UNL     1       3.917   3.271  19.580  0.00  0.00    +0.000 C 
ATOM      8  C   UNL     1       4.980   4.286  19.090  0.00  0.00    +0.000 C 
BRANCH   3  12
ATOM      9  C   UNL     1       6.783   4.768  14.305  0.00  0.00    +0.000 A 
ATOM     10  C   UNL     1       5.761   3.862  14.559  0.00  0.00    +0.000 A 
ATOM     11  C   UNL     1       5.037   3.937  15.747  0.00  0.00    +0.000 A 
ATOM     12  C   UNL     1       5.291   4.923  16.717  0.00  0.00    +0.000 A 
ATOM     13  C   UNL     1       6.342   5.838  16.448  0.00  0.00    +0.000 A 
ATOM     14  C   UNL     1       7.077   5.745  15.256  0.00  0.00    +0.000 A 
BRANCH   9  16
ATOM     15  C   UNL     1       6.777   3.743  12.167  0.00  0.00    +0.000 C 
ATOM     16  O   UNL     1       7.411   4.606  13.102  0.00  0.00    +0.000 OA
ENDBRANCH   9  16
BRANCH  13  17
ATOM     17  O   UNL     1       6.558   6.833  17.379  0.00  0.00    +0.000 OA
ATOM     18  C   UNL     1       7.731   6.754  18.178  0.00  0.00    +0.000 C 
ENDBRANCH  13  17
ENDBRANCH   3  12
ENDBRANCH   2   6
ENDBRANCH   1   2
BRANCH   1  19
ATOM     19  C   UNL     1       1.827   7.291  20.981  0.00  0.00    +0.000 C 
BRANCH  19  20
ATOM     20  C   UNL     1       1.878   8.247  19.797  0.00  0.00    +0.000 C 
BRANCH  20  21
ATOM     21  N   UNL     1       0.609   8.889  19.581  0.00  0.00    +0.000 N 
ATOM     22  C   UNL     1       0.514  10.143  19.022  0.00  0.00    +0.000 C 
ATOM     23  O   UNL     1       1.471  10.801  18.638  0.00  0.00    +0.000 OA
ATOM     24  H   UNL     1      -0.217   8.312  19.656  0.00  0.00    +0.000 HD
BRANCH  22  25
ATOM     25  C   UNL     1      -0.869  10.661  18.893  0.00  0.00    +0.000 A 
ATOM     26  C   UNL     1      -1.311  11.723  19.685  0.00  0.00    +0.000 A 
ATOM     27  C   UNL     1      -2.620  12.182  19.564  0.00  0.00    +0.000 A 
ATOM     28  C   UNL     1      -3.513  11.625  18.631  0.00  0.00    +0.000 A 
ATOM     29  C   UNL     1      -3.036  10.571  17.827  0.00  0.00    +0.000 A 
ATOM     30  C   UNL     1      -1.728  10.090  17.954  0.00  0.00    +0.000 A 
BRANCH  28  31
ATOM     31  C   UNL     1      -4.894  12.141  18.515  0.00  0.00    +0.000 A 
ATOM     32  C   UNL     1      -5.589  12.611  19.647  0.00  0.00    +0.000 A 
ATOM     33  C   UNL     1      -6.914  13.046  19.563  0.00  0.00    +0.000 A 
ATOM     34  C   UNL     1      -7.567  13.044  18.337  0.00  0.00    +0.000 A 
ATOM     35  C   UNL     1      -6.896  12.610  17.198  0.00  0.00    +0.000 A 
ATOM     36  C   UNL     1      -5.576  12.159  17.288  0.00  0.00    +0.000 A 
ENDBRANCH  28  31
ENDBRANCH  22  25
ENDBRANCH  20  21
ENDBRANCH  19  20
ENDBRANCH   1  19
TORSDOF 10
ENDMDL
MODEL 3
REMARK VINA RESULT:      -7.8      0.951      1.316
REMARK  Name = 
REMARK  12 active torsions:
REMARK  status: ('A' for Active; 'I' for Inactive)
REMARK    1  A    between atoms: C_1  and  O_2
REMARK    2  A    between atoms: O_2  and  C_3
REMARK    3  A    between atoms: C_6  and  N_7
REMARK    4  A    between atoms: N_10  and  C_11
REMARK    5  A    between atoms: C_11  and  C_12
REMARK    6  A    between atoms: C_12  and  C_13
REMARK    7  A    between atoms: C_13  and  C_14
REMARK    8  A    between atoms: C_14  and  N_15
REMARK    9  A    between atoms: C_16  and  C_18
REMARK   10  A    between atoms: C_21  and  C_22
REMARK   11  A    between atoms: C_32  and  O_33
REMARK   12  A    between atoms: O_33  and  C_34
REMARK                            x       y       z     vdW  Elec       q    Type
REMARK                         _______ _______ _______ _____ _____    ______ ____
ROOT
ATOM      1  C   UNL     1       0.963   4.293  20.116  0.00  0.00    +0.000 C 
ENDROOT
BRANCH   1   2
ATOM      2  C   UNL     1       1.541   2.981  19.566  0.00  0.00    +0.000 C 
BRANCH   2   6
ATOM      3  N   UNL     1       4.089   3.949  17.274  0.00  0.00    +0.000 N 
ATOM      4  C   UNL     1       3.009   4.864  17.667  0.00  0.00    +0.000 C 
ATOM      5  C   UNL     1       1.633   4.205  17.437  0.00  0.00    +0.000 C 
ATOM      6  N   UNL     1       1.474   2.882  18.096  0.00  0.00    +0.000 NA
ATOM      7  C   UNL     1       2.564   2.012  17.584  0.00  0.00    +0.000 C 
ATOM      8  C   UNL     1       3.998   2.569  17.773  0.00  0.00    +0.000 C 
BRANCH   3  12
ATOM      9  C   UNL     1       6.854   4.925  14.232  0.00  0.00    +0.000 A 
ATOM     10  C   UNL     1       5.767   4.101  13.975  0.00  0.00    +0.000 A 
ATOM     11  C   UNL     1       4.874   3.780  14.995  0.00  0.00    +0.000 A 
ATOM     12  C   UNL     1       5.021   4.279  16.302  0.00  0.00    +0.000 A 
ATOM     13  C   UNL     1       6.140   5.115  16.553  0.00  0.00    +0.000 A 
ATOM     14  C   UNL     1       7.044   5.419  15.523  0.00  0.00    +0.000 A 
BRANCH   9  16
ATOM     15  C   UNL     1       8.886   5.833  13.414  0.00  0.00    +0.000 C 
ATOM     16  O   UNL     1       7.651   5.182  13.151  0.00  0.00    +0.000 OA
ENDBRANCH   9  16
BRANCH  13  17
ATOM     17  O   UNL     1       6.255   5.641  17.822  0.00  0.00    +0.000 OA
ATOM     18  C   UNL     1       7.555   5.722  18.394  0.00  0.00    +0.000 C 
ENDBRANCH  13  17
ENDBRANCH   3  12
ENDBRANCH   2   6
ENDBRANCH   1   2
BRANCH   1  19
ATOM     19  C   UNL     1       1.861   4.974  21.148  0.00  0.00    +0.000 C 
BRANCH  19  20
ATOM     20  C   UNL     1       2.356   6.322  20.643  0.00  0.00    +0.000 C 
BRANCH  20  21
ATOM     21  N   UNL     1       1.523   7.399  21.106  0.00  0.00    +0.000 N 
ATOM     22  C   UNL     1       1.278   8.512  20.336  0.00  0.00    +0.000 C 
ATOM     23  O   UNL     1       1.707   8.675  19.203  0.00  0.00    +0.000 OA
ATOM     24  H   UNL     1       0.955   7.221  21.923  0.00  0.00    +0.000 HD
BRANCH  22  25
ATOM     25  C   UNL     1       0.415   9.533  20.979  0.00  0.00    +0.000 A 
ATOM     26  C   UNL     1      -0.259  10.484  20.211  0.00  0.00    +0.000 A 
ATOM     27  C   UNL     1      -1.047  11.448  20.834  0.00  0.00    +0.000 A 
ATOM     28  C   UNL     1      -1.216  11.471  22.230  0.00  0.00    +0.000 A 
ATOM     29  C   UNL     1      -0.545  10.486  22.981  0.00  0.00    +0.000 A 
ATOM     30  C   UNL     1       0.265   9.526  22.366  0.00  0.00    +0.000 A 
BRANCH  28  31
ATOM     31  C   UNL     1      -2.070  12.499  22.864  0.00  0.00    +0.000 A 
ATOM     32  C   UNL     1      -3.470  12.479  22.702  0.00  0.00    +0.000 A 
ATOM     33  C   UNL     1      -4.283  13.476  23.245  0.00  0.00    +0.000 A 
ATOM     34  C   UNL     1      -3.716  14.506  23.986  0.00  0.00    +0.000 A 
ATOM     35  C   UNL     1      -2.339  14.537  24.184  0.00  0.00    +0.000 A 
ATOM     36  C   UNL     1      -1.526  13.547  23.625  0.00  0.00    +0.000 A 
ENDBRANCH  28  31
ENDBRANCH  22  25
ENDBRANCH  20  21
ENDBRANCH  19  20
ENDBRANCH   1  19
TORSDOF 10
ENDMDL
MODEL 4
REMARK VINA RESULT:      -7.6      6.942     10.390
REMARK  Name = 
REMARK  12 active torsions:
REMARK  status: ('A' for Active; 'I' for Inactive)
REMARK    1  A    between atoms: C_1  and  O_2
REMARK    2  A    between atoms: O_2  and  C_3
REMARK    3  A    between atoms: C_6  and  N_7
REMARK    4  A    between atoms: N_10  and  C_11
REMARK    5  A    between atoms: C_11  and  C_12
REMARK    6  A    between atoms: C_12  and  C_13
REMARK    7  A    between atoms: C_13  and  C_14
REMARK    8  A    between atoms: C_14  and  N_15
REMARK    9  A    between atoms: C_16  and  C_18
REMARK   10  A    between atoms: C_21  and  C_22
REMARK   11  A    between atoms: C_32  and  O_33
REMARK   12  A    between atoms: O_33  and  C_34
REMARK                            x       y       z     vdW  Elec       q    Type
REMARK                         _______ _______ _______ _____ _____    ______ ____
ROOT
ATOM      1  C   UNL     1       2.358  13.986  20.820  0.00  0.00    +0.000 C 
ENDROOT
BRANCH   1   2
ATOM      2  C   UNL     1       3.166  14.095  19.519  0.00  0.00    +0.000 C 
BRANCH   2   6
ATOM      3  N   UNL     1       6.531  15.075  18.884  0.00  0.00    +0.000 N 
ATOM      4  C   UNL     1       5.949  15.121  20.232  0.00  0.00    +0.000 C 
ATOM      5  C   UNL     1       4.637  15.932  20.227  0.00  0.00    +0.000 C 
ATOM      6  N   UNL     1       3.636  15.464  19.233  0.00  0.00    +0.000 NA
ATOM      7  C   UNL     1       4.292  15.520  17.902  0.00  0.00    +0.000 C 
ATOM      8  C   UNL     1       5.618  14.727  17.785  0.00  0.00    +0.000 C 
BRANCH   3  12
ATOM      9  C   UNL     1      10.370  16.646  18.079  0.00  0.00    +0.000 A 
ATOM     10  C   UNL     1       9.261  17.476  18.175  0.00  0.00    +0.000 A 
ATOM     11  C   UNL     1       8.001  16.937  18.428  0.00  0.00    +0.000 A 
ATOM     12  C   UNL     1       7.801  15.557  18.610  0.00  0.00    +0.000 A 
ATOM     13  C   UNL     1       8.942  14.719  18.503  0.00  0.00    +0.000 A 
ATOM     14  C   UNL     1      10.205  15.269  18.232  0.00  0.00    +0.000 A 
BRANCH   9  16
ATOM     15  C   UNL     1      11.464  18.631  17.384  0.00  0.00    +0.000 C 
ATOM     16  O   UNL     1      11.553  17.290  17.845  0.00  0.00    +0.000 OA
ENDBRANCH   9  16
BRANCH  13  17
ATOM     17  O   UNL     1       8.751  13.372  18.729  0.00  0.00    +0.000 OA
ATOM     18  C   UNL     1       9.400  12.453  17.860  0.00  0.00    +0.000 C 
ENDBRANCH  13  17
ENDBRANCH   3  12
ENDBRANCH   2   6
ENDBRANCH   1   2
BRANCH   1  19
ATOM     19  C   UNL     1       0.846  14.034  20.609  0.00  0.00    +0.000 C 
BRANCH  19  20
ATOM     20  C   UNL     1       0.163  12.829  21.241  0.00  0.00    +0.000 C 
BRANCH  20  21
ATOM     21  N   UNL     1       0.765  11.595  20.813  0.00  0.00    +0.000 N 
ATOM     22  C   UNL     1       0.396  10.973  19.644  0.00  0.00    +0.000 C 
ATOM     23  O   UNL     1      -0.435  11.412  18.861  0.00  0.00    +0.000 OA
ATOM     24  H   UNL     1       1.611  11.308  21.286  0.00  0.00    +0.000 HD
BRANCH  22  25
ATOM     25  C   UNL     1       1.103   9.699  19.368  0.00  0.00    +0.000 A 
ATOM     26  C   UNL     1       1.275   8.746  20.374  0.00  0.00    +0.000 A 
ATOM     27  C   UNL     1       1.961   7.565  20.102  0.00  0.00    +0.000 A 
ATOM     28  C   UNL     1       2.461   7.283  18.818  0.00  0.00    +0.000 A 
ATOM     29  C   UNL     1       2.254   8.250  17.814  0.00  0.00    +0.000 A 
ATOM     30  C   UNL     1       1.583   9.448  18.083  0.00  0.00    +0.000 A 
BRANCH  28  31
ATOM     31  C   UNL     1       3.174   6.014  18.554  0.00  0.00    +0.000 A 
ATOM     32  C   UNL     1       3.121   4.948  19.474  0.00  0.00    +0.000 A 
ATOM     33  C   UNL     1       3.837   3.767  19.267  0.00  0.00    +0.000 A 
ATOM     34  C   UNL     1       4.605   3.614  18.119  0.00  0.00    +0.000 A 
ATOM     35  C   UNL     1       4.655   4.641  17.180  0.00  0.00    +0.000 A 
ATOM     36  C   UNL     1       3.952   5.829  17.399  0.00  0.00    +0.000 A 
ENDBRANCH  28  31
ENDBRANCH  22  25
ENDBRANCH  20  21
ENDBRANCH  19  20
ENDBRANCH   1  19
TORSDOF 10
ENDMDL
MODEL 5
REMARK VINA RESULT:      -7.6      3.521     11.614
REMARK  Name = 
REMARK  12 active torsions:
REMARK  status: ('A' for Active; 'I' for Inactive)
REMARK    1  A    between atoms: C_1  and  O_2
REMARK    2  A    between atoms: O_2  and  C_3
REMARK    3  A    between atoms: C_6  and  N_7
REMARK    4  A    between atoms: N_10  and  C_11
REMARK    5  A    between atoms: C_11  and  C_12
REMARK    6  A    between atoms: C_12  and  C_13
REMARK    7  A    between atoms: C_13  and  C_14
REMARK    8  A    between atoms: C_14  and  N_15
REMARK    9  A    between atoms: C_16  and  C_18
REMARK   10  A    between atoms: C_21  and  C_22
REMARK   11  A    between atoms: C_32  and  O_33
REMARK   12  A    between atoms: O_33  and  C_34
REMARK                            x       y       z     vdW  Elec       q    Type
REMARK                         _______ _______ _______ _____ _____    ______ ____
ROOT
ATOM      1  C   UNL     1       1.921   8.221  19.960  0.00  0.00    +0.000 C 
ENDROOT
BRANCH   1   2
ATOM      2  C   UNL     1       1.111   9.358  19.321  0.00  0.00    +0.000 C 
BRANCH   2   6
ATOM      3  N   UNL     1       0.114  12.776  19.398  0.00  0.00    +0.000 N 
ATOM      4  C   UNL     1       1.193  12.260  20.253  0.00  0.00    +0.000 C 
ATOM      5  C   UNL     1       0.704  11.042  21.063  0.00  0.00    +0.000 C 
ATOM      6  N   UNL     1       0.119   9.956  20.235  0.00  0.00    +0.000 NA
ATOM      7  C   UNL     1      -1.000  10.555  19.465  0.00  0.00    +0.000 C 
ATOM      8  C   UNL     1      -0.623  11.785  18.600  0.00  0.00    +0.000 C 
BRANCH   3  12
ATOM      9  C   UNL     1      -1.265  16.764  19.608  0.00  0.00    +0.000 A 
ATOM     10  C   UNL     1      -0.268  16.396  18.715  0.00  0.00    +0.000 A 
ATOM     11  C   UNL     1       0.183  15.078  18.670  0.00  0.00    +0.000 A 
ATOM     12  C   UNL     1      -0.352  14.077  19.500  0.00  0.00    +0.000 A 
ATOM     13  C   UNL     1      -1.366  14.467  20.413  0.00  0.00    +0.000 A 
ATOM     14  C   UNL     1      -1.803  15.801  20.462  0.00  0.00    +0.000 A 
BRANCH   9  16
ATOM     15  C   UNL     1      -2.917  18.351  18.998  0.00  0.00    +0.000 C 
ATOM     16  O   UNL     1      -1.635  18.079  19.548  0.00  0.00    +0.000 OA
ENDBRANCH   9  16
BRANCH  13  17
ATOM     17  O   UNL     1      -1.922  13.475  21.192  0.00  0.00    +0.000 OA
ATOM     18  C   UNL     1      -1.839  13.612  22.605  0.00  0.00    +0.000 C 
ENDBRANCH  13  17
ENDBRANCH   3  12
ENDBRANCH   2   6
ENDBRANCH   1   2
BRANCH   1  19
ATOM     19  C   UNL     1       1.106   7.342  20.907  0.00  0.00    +0.000 C 
BRANCH  19  20
ATOM     20  C   UNL     1       1.441   5.869  20.718  0.00  0.00    +0.000 C 
BRANCH  20  21
ATOM     21  N   UNL     1       2.224   5.653  19.531  0.00  0.00    +0.000 N 
ATOM     22  C   UNL     1       3.214   4.700  19.475  0.00  0.00    +0.000 C 
ATOM     23  O   UNL     1       3.496   3.944  20.394  0.00  0.00    +0.000 OA
ATOM     24  H   UNL     1       1.887   6.074  18.675  0.00  0.00    +0.000 HD
BRANCH  22  25
ATOM     25  C   UNL     1       3.934   4.629  18.181  0.00  0.00    +0.000 A 
ATOM     26  C   UNL     1       4.147   3.402  17.548  0.00  0.00    +0.000 A 
ATOM     27  C   UNL     1       4.844   3.353  16.344  0.00  0.00    +0.000 A 
ATOM     28  C   UNL     1       5.317   4.520  15.719  0.00  0.00    +0.000 A 
ATOM     29  C   UNL     1       5.069   5.747  16.365  0.00  0.00    +0.000 A 
ATOM     30  C   UNL     1       4.386   5.805  17.584  0.00  0.00    +0.000 A 
BRANCH  28  31
ATOM     31  C   UNL     1       6.043   4.439  14.433  0.00  0.00    +0.000 A 
ATOM     32  C   UNL     1       7.203   5.207  14.205  0.00  0.00    +0.000 A 
ATOM     33  C   UNL     1       7.864   5.186  12.975  0.00  0.00    +0.000 A 
ATOM     34  C   UNL     1       7.395   4.374  11.950  0.00  0.00    +0.000 A 
ATOM     35  C   UNL     1       6.267   3.584  12.155  0.00  0.00    +0.000 A 
ATOM     36  C   UNL     1       5.597   3.621  13.381  0.00  0.00    +0.000 A 
ENDBRANCH  28  31
ENDBRANCH  22  25
ENDBRANCH  20  21
ENDBRANCH  19  20
ENDBRANCH   1  19
TORSDOF 10
ENDMDL
MODEL 6
REMARK VINA RESULT:      -7.6      3.727     12.445
REMARK  Name = 
REMARK  12 active torsions:
REMARK  status: ('A' for Active; 'I' for Inactive)
REMARK    1  A    between atoms: C_1  and  O_2
REMARK    2  A    between atoms: O_2  and  C_3
REMARK    3  A    between atoms: C_6  and  N_7
REMARK    4  A    between atoms: N_10  and  C_11
REMARK    5  A    between atoms: C_11  and  C_12
REMARK    6  A    between atoms: C_12  and  C_13
REMARK    7  A    between atoms: C_13  and  C_14
REMARK    8  A    between atoms: C_14  and  N_15
REMARK    9  A    between atoms: C_16  and  C_18
REMARK   10  A    between atoms: C_21  and  C_22
REMARK   11  A    between atoms: C_32  and  O_33
REMARK   12  A    between atoms: O_33  and  C_34
REMARK                            x       y       z     vdW  Elec       q    Type
REMARK                         _______ _______ _______ _____ _____    ______ ____
ROOT
ATOM      1  C   UNL     1       0.944   9.104  22.022  0.00  0.00    +0.000 C 
ENDROOT
BRANCH   1   2
ATOM      2  C   UNL     1      -0.334   9.954  22.053  0.00  0.00    +0.000 C 
BRANCH   2   6
ATOM      3  N   UNL     1      -2.646  12.520  21.182  0.00  0.00    +0.000 N 
ATOM      4  C   UNL     1      -1.706  11.955  20.204  0.00  0.00    +0.000 C 
ATOM      5  C   UNL     1      -0.261  12.029  20.738  0.00  0.00    +0.000 C 
ATOM      6  N   UNL     1      -0.074  11.406  22.074  0.00  0.00    +0.000 NA
ATOM      7  C   UNL     1      -1.010  12.088  23.003  0.00  0.00    +0.000 C 
ATOM      8  C   UNL     1      -2.500  12.066  22.573  0.00  0.00    +0.000 C 
BRANCH   3  12
ATOM      9  C   UNL     1      -5.250  15.719  20.269  0.00  0.00    +0.000 A 
ATOM     10  C   UNL     1      -5.658  14.400  20.129  0.00  0.00    +0.000 A 
ATOM     11  C   UNL     1      -4.780  13.359  20.422  0.00  0.00    +0.000 A 
ATOM     12  C   UNL     1      -3.471  13.592  20.880  0.00  0.00    +0.000 A 
ATOM     13  C   UNL     1      -3.064  14.945  21.014  0.00  0.00    +0.000 A 
ATOM     14  C   UNL     1      -3.951  15.987  20.700  0.00  0.00    +0.000 A 
BRANCH   9  16
ATOM     15  C   UNL     1      -5.794  17.731  19.139  0.00  0.00    +0.000 C 
ATOM     16  O   UNL     1      -6.203  16.652  19.968  0.00  0.00    +0.000 OA
ENDBRANCH   9  16
BRANCH  13  17
ATOM     17  O   UNL     1      -1.797  15.171  21.509  0.00  0.00    +0.000 OA
ATOM     18  C   UNL     1      -1.650  16.132  22.546  0.00  0.00    +0.000 C 
ENDBRANCH  13  17
ENDBRANCH   3  12
ENDBRANCH   2   6
ENDBRANCH   1   2
BRANCH   1  19
ATOM     19  C   UNL     1       1.294   8.574  20.633  0.00  0.00    +0.000 C 
BRANCH  19  20
ATOM     20  C   UNL     1       1.700   7.107  20.690  0.00  0.00    +0.000 C 
BRANCH  20  21
ATOM     21  N   UNL     1       2.424   6.713  19.512  0.00  0.00    +0.000 N 
ATOM     22  C   UNL     1       3.171   5.559  19.469  0.00  0.00    +0.000 C 
ATOM     23  O   UNL     1       3.265   4.763  20.393  0.00  0.00    +0.000 OA
ATOM     24  H   UNL     1       2.200   7.196  18.652  0.00  0.00    +0.000 HD
BRANCH  22  25
ATOM     25  C   UNL     1       3.868   5.319  18.183  0.00  0.00    +0.000 A 
ATOM     26  C   UNL     1       4.548   6.352  17.534  0.00  0.00    +0.000 A 
ATOM     27  C   UNL     1       5.179   6.112  16.316  0.00  0.00    +0.000 A 
ATOM     28  C   UNL     1       5.183   4.834  15.728  0.00  0.00    +0.000 A 
ATOM     29  C   UNL     1       4.510   3.803  16.413  0.00  0.00    +0.000 A 
ATOM     30  C   UNL     1       3.857   4.039  17.628  0.00  0.00    +0.000 A 
BRANCH  28  31
ATOM     31  C   UNL     1       5.872   4.605  14.440  0.00  0.00    +0.000 A 
ATOM     32  C   UNL     1       5.353   3.704  13.489  0.00  0.00    +0.000 A 
ATOM     33  C   UNL     1       6.023   3.433  12.295  0.00  0.00    +0.000 A 
ATOM     34  C   UNL     1       7.221   4.078  12.011  0.00  0.00    +0.000 A 
ATOM     35  C   UNL     1       7.744   4.994  12.920  0.00  0.00    +0.000 A 
ATOM     36  C   UNL     1       7.079   5.249  14.122  0.00  0.00    +0.000 A 
ENDBRANCH  28  31
ENDBRANCH  22  25
ENDBRANCH  20  21
ENDBRANCH  19  20
ENDBRANCH   1  19
TORSDOF 10
ENDMDL
MODEL 7
REMARK VINA RESULT:      -7.6      1.437      1.880
REMARK  Name = 
REMARK  12 active torsions:
REMARK  status: ('A' for Active; 'I' for Inactive)
REMARK    1  A    between atoms: C_1  and  O_2
REMARK    2  A    between atoms: O_2  and  C_3
REMARK    3  A    between atoms: C_6  and  N_7
REMARK    4  A    between atoms: N_10  and  C_11
REMARK    5  A    between atoms: C_11  and  C_12
REMARK    6  A    between atoms: C_12  and  C_13
REMARK    7  A    between atoms: C_13  and  C_14
REMARK    8  A    between atoms: C_14  and  N_15
REMARK    9  A    between atoms: C_16  and  C_18
REMARK   10  A    between atoms: C_21  and  C_22
REMARK   11  A    between atoms: C_32  and  O_33
REMARK   12  A    between atoms: O_33  and  C_34
REMARK                            x       y       z     vdW  Elec       q    Type
REMARK                         _______ _______ _______ _____ _____    ______ ____
ROOT
ATOM      1  C   UNL     1       1.200   5.040  20.086  0.00  0.00    +0.000 C 
ENDROOT
BRANCH   1   2
ATOM      2  C   UNL     1       1.802   3.682  20.474  0.00  0.00    +0.000 C 
BRANCH   2   6
ATOM      3  N   UNL     1       4.246   4.479  18.010  0.00  0.00    +0.000 N 
ATOM      4  C   UNL     1       2.826   4.811  17.833  0.00  0.00    +0.000 C 
ATOM      5  C   UNL     1       1.950   3.556  18.025  0.00  0.00    +0.000 C 
ATOM      6  N   UNL     1       2.173   2.851  19.314  0.00  0.00    +0.000 NA
ATOM      7  C   UNL     1       3.614   2.496  19.367  0.00  0.00    +0.000 C 
ATOM      8  C   UNL     1       4.593   3.686  19.198  0.00  0.00    +0.000 C 
BRANCH   3  12
ATOM      9  C   UNL     1       7.026   5.093  14.888  0.00  0.00    +0.000 A 
ATOM     10  C   UNL     1       5.831   4.425  14.662  0.00  0.00    +0.000 A 
ATOM     11  C   UNL     1       4.933   4.220  15.708  0.00  0.00    +0.000 A 
ATOM     12  C   UNL     1       5.184   4.687  17.011  0.00  0.00    +0.000 A 
ATOM     13  C   UNL     1       6.413   5.363  17.230  0.00  0.00    +0.000 A 
ATOM     14  C   UNL     1       7.319   5.549  16.173  0.00  0.00    +0.000 A 
BRANCH   9  16
ATOM     15  C   UNL     1       7.348   4.656  12.580  0.00  0.00    +0.000 C 
ATOM     16  O   UNL     1       7.818   5.247  13.784  0.00  0.00    +0.000 OA
ENDBRANCH   9  16
BRANCH  13  17
ATOM     17  O   UNL     1       6.635   5.860  18.496  0.00  0.00    +0.000 OA
ATOM     18  C   UNL     1       7.878   6.503  18.750  0.00  0.00    +0.000 C 
ENDBRANCH  13  17
ENDBRANCH   3  12
ENDBRANCH   2   6
ENDBRANCH   1   2
BRANCH   1  19
ATOM     19  C   UNL     1       1.372   6.115  21.157  0.00  0.00    +0.000 C 
BRANCH  19  20
ATOM     20  C   UNL     1       1.825   7.434  20.545  0.00  0.00    +0.000 C 
BRANCH  20  21
ATOM     21  N   UNL     1       0.853   8.474  20.751  0.00  0.00    +0.000 N 
ATOM     22  C   UNL     1       0.936   9.349  21.808  0.00  0.00    +0.000 C 
ATOM     23  O   UNL     1       1.837   9.348  22.635  0.00  0.00    +0.000 OA
ATOM     24  H   UNL     1       0.226   8.675  19.983  0.00  0.00    +0.000 HD
BRANCH  22  25
ATOM     25  C   UNL     1      -0.162  10.343  21.879  0.00  0.00    +0.000 A 
ATOM     26  C   UNL     1      -0.558  11.053  20.743  0.00  0.00    +0.000 A 
ATOM     27  C   UNL     1      -1.577  11.997  20.834  0.00  0.00    +0.000 A 
ATOM     28  C   UNL     1      -2.253  12.237  22.044  0.00  0.00    +0.000 A 
ATOM     29  C   UNL     1      -1.851  11.492  23.170  0.00  0.00    +0.000 A 
ATOM     30  C   UNL     1      -0.816  10.554  23.093  0.00  0.00    +0.000 A 
BRANCH  28  31
ATOM     31  C   UNL     1      -3.341  13.237  22.108  0.00  0.00    +0.000 A 
ATOM     32  C   UNL     1      -3.984  13.532  23.327  0.00  0.00    +0.000 A 
ATOM     33  C   UNL     1      -5.051  14.430  23.392  0.00  0.00    +0.000 A 
ATOM     34  C   UNL     1      -5.486  15.074  22.241  0.00  0.00    +0.000 A 
ATOM     35  C   UNL     1      -4.852  14.823  21.027  0.00  0.00    +0.000 A 
ATOM     36  C   UNL     1      -3.795  13.910  20.962  0.00  0.00    +0.000 A 
ENDBRANCH  28  31
ENDBRANCH  22  25
ENDBRANCH  20  21
ENDBRANCH  19  20
ENDBRANCH   1  19
TORSDOF 10
ENDMDL
MODEL 8
REMARK VINA RESULT:      -7.4      1.420      2.157
REMARK  Name = 
REMARK  12 active torsions:
REMARK  status: ('A' for Active; 'I' for Inactive)
REMARK    1  A    between atoms: C_1  and  O_2
REMARK    2  A    between atoms: O_2  and  C_3
REMARK    3  A    between atoms: C_6  and  N_7
REMARK    4  A    between atoms: N_10  and  C_11
REMARK    5  A    between atoms: C_11  and  C_12
REMARK    6  A    between atoms: C_12  and  C_13
REMARK    7  A    between atoms: C_13  and  C_14
REMARK    8  A    between atoms: C_14  and  N_15
REMARK    9  A    between atoms: C_16  and  C_18
REMARK   10  A    between atoms: C_21  and  C_22
REMARK   11  A    between atoms: C_32  and  O_33
REMARK   12  A    between atoms: O_33  and  C_34
REMARK                            x       y       z     vdW  Elec       q    Type
REMARK                         _______ _______ _______ _____ _____    ______ ____
ROOT
ATOM      1  C   UNL     1       1.265   5.447  20.774  0.00  0.00    +0.000 C 
ENDROOT
BRANCH   1   2
ATOM      2  C   UNL     1       2.307   4.350  20.513  0.00  0.00    +0.000 C 
BRANCH   2   6
ATOM      3  N   UNL     1       4.534   4.723  17.759  0.00  0.00    +0.000 N 
ATOM      4  C   UNL     1       3.349   5.576  17.922  0.00  0.00    +0.000 C 
ATOM      5  C   UNL     1       2.081   4.714  18.093  0.00  0.00    +0.000 C 
ATOM      6  N   UNL     1       2.170   3.714  19.189  0.00  0.00    +0.000 NA
ATOM      7  C   UNL     1       3.349   2.859  18.899  0.00  0.00    +0.000 C 
ATOM      8  C   UNL     1       4.688   3.620  18.719  0.00  0.00    +0.000 C 
BRANCH   3  12
ATOM      9  C   UNL     1       6.917   4.882  14.274  0.00  0.00    +0.000 A 
ATOM     10  C   UNL     1       5.769   4.103  14.323  0.00  0.00    +0.000 A 
ATOM     11  C   UNL     1       5.004   4.053  15.486  0.00  0.00    +0.000 A 
ATOM     12  C   UNL     1       5.343   4.789  16.636  0.00  0.00    +0.000 A 
ATOM     13  C   UNL     1       6.522   5.577  16.575  0.00  0.00    +0.000 A 
ATOM     14  C   UNL     1       7.295   5.608  15.403  0.00  0.00    +0.000 A 
BRANCH   9  16
ATOM     15  C   UNL     1       7.020   4.039  12.060  0.00  0.00    +0.000 C 
ATOM     16  O   UNL     1       7.575   4.864  13.075  0.00  0.00    +0.000 OA
ENDBRANCH   9  16
BRANCH  13  17
ATOM     17  O   UNL     1       6.825   6.334  17.686  0.00  0.00    +0.000 OA
ATOM     18  C   UNL     1       7.760   5.804  18.618  0.00  0.00    +0.000 C 
ENDBRANCH  13  17
ENDBRANCH   3  12
ENDBRANCH   2   6
ENDBRANCH   1   2
BRANCH   1  19
ATOM     19  C   UNL     1       1.874   6.785  21.187  0.00  0.00    +0.000 C 
BRANCH  19  20
ATOM     20  C   UNL     1       1.622   7.854  20.133  0.00  0.00    +0.000 C 
BRANCH  20  21
ATOM     21  N   UNL     1       0.720   8.867  20.613  0.00  0.00    +0.000 N 
ATOM     22  C   UNL     1       0.641  10.108  20.025  0.00  0.00    +0.000 C 
ATOM     23  O   UNL     1       1.289  10.451  19.046  0.00  0.00    +0.000 OA
ATOM     24  H   UNL     1      -0.001   8.572  21.257  0.00  0.00    +0.000 HD
BRANCH  22  25
ATOM     25  C   UNL     1      -0.325  11.035  20.661  0.00  0.00    +0.000 A 
ATOM     26  C   UNL     1      -0.271  11.293  22.033  0.00  0.00    +0.000 A 
ATOM     27  C   UNL     1      -1.201  12.150  22.616  0.00  0.00    +0.000 A 
ATOM     28  C   UNL     1      -2.184  12.802  21.850  0.00  0.00    +0.000 A 
ATOM     29  C   UNL     1      -2.203  12.544  20.465  0.00  0.00    +0.000 A 
ATOM     30  C   UNL     1      -1.285  11.669  19.873  0.00  0.00    +0.000 A 
BRANCH  28  31
ATOM     31  C   UNL     1      -3.151  13.718  22.494  0.00  0.00    +0.000 A 
ATOM     32  C   UNL     1      -3.033  14.053  23.857  0.00  0.00    +0.000 A 
ATOM     33  C   UNL     1      -3.972  14.868  24.493  0.00  0.00    +0.000 A 
ATOM     34  C   UNL     1      -5.039  15.389  23.772  0.00  0.00    +0.000 A 
ATOM     35  C   UNL     1      -5.165  15.096  22.417  0.00  0.00    +0.000 A 
ATOM     36  C   UNL     1      -4.234  14.265  21.788  0.00  0.00    +0.000 A 
ENDBRANCH  28  31
ENDBRANCH  22  25
ENDBRANCH  20  21
ENDBRANCH  19  20
ENDBRANCH   1  19
TORSDOF 10
ENDMDL
MODEL 9
REMARK VINA RESULT:      -7.4      4.776      9.746
REMARK  Name = 
REMARK  12 active torsions:
REMARK  status: ('A' for Active; 'I' for Inactive)
REMARK    1  A    between atoms: C_1  and  O_2
REMARK    2  A    between atoms: O_2  and  C_3
REMARK    3  A    between atoms: C_6  and  N_7
REMARK    4  A    between atoms: N_10  and  C_11
REMARK    5  A    between atoms: C_11  and  C_12
REMARK    6  A    between atoms: C_12  and  C_13
REMARK    7  A    between atoms: C_13  and  C_14
REMARK    8  A    between atoms: C_14  and  N_15
REMARK    9  A    between atoms: C_16  and  C_18
REMARK   10  A    between atoms: C_21  and  C_22
REMARK   11  A    between atoms: C_32  and  O_33
REMARK   12  A    between atoms: O_33  and  C_34
REMARK                            x       y       z     vdW  Elec       q    Type
REMARK                         _______ _______ _______ _____ _____    ______ ____
ROOT
ATOM      1  C   UNL     1      -1.248  11.860  20.522  0.00  0.00    +0.000 C 
ENDROOT
BRANCH   1   2
ATOM      2  C   UNL     1      -1.195  13.182  19.742  0.00  0.00    +0.000 C 
BRANCH   2   6
ATOM      3  N   UNL     1       2.227  14.162  19.640  0.00  0.00    +0.000 N 
ATOM      4  C   UNL     1       1.142  15.089  19.291  0.00  0.00    +0.000 C 
ATOM      5  C   UNL     1       0.230  14.471  18.211  0.00  0.00    +0.000 C 
ATOM      6  N   UNL     1      -0.309  13.132  18.564  0.00  0.00    +0.000 NA
ATOM      7  C   UNL     1       0.858  12.253  18.828  0.00  0.00    +0.000 C 
ATOM      8  C   UNL     1       1.842  12.769  19.910  0.00  0.00    +0.000 C 
BRANCH   3  12
ATOM      9  C   UNL     1       6.282  15.220  19.098  0.00  0.00    +0.000 A 
ATOM     10  C   UNL     1       5.466  14.930  18.014  0.00  0.00    +0.000 A 
ATOM     11  C   UNL     1       4.135  14.569  18.214  0.00  0.00    +0.000 A 
ATOM     12  C   UNL     1       3.564  14.502  19.497  0.00  0.00    +0.000 A 
ATOM     13  C   UNL     1       4.410  14.795  20.598  0.00  0.00    +0.000 A 
ATOM     14  C   UNL     1       5.754  15.141  20.388  0.00  0.00    +0.000 A 
BRANCH   9  16
ATOM     15  C   UNL     1       8.574  14.616  19.049  0.00  0.00    +0.000 C 
ATOM     16  O   UNL     1       7.562  15.576  18.777  0.00  0.00    +0.000 OA
ENDBRANCH   9  16
BRANCH  13  17
ATOM     17  O   UNL     1       3.836  14.774  21.851  0.00  0.00    +0.000 OA
ATOM     18  C   UNL     1       3.282  15.985  22.350  0.00  0.00    +0.000 C 
ENDBRANCH  13  17
ENDBRANCH   3  12
ENDBRANCH   2   6
ENDBRANCH   1   2
BRANCH   1  19
ATOM     19  C   UNL     1      -1.223  12.042  22.039  0.00  0.00    +0.000 C 
BRANCH  19  20
ATOM     20  C   UNL     1      -0.511  10.881  22.720  0.00  0.00    +0.000 C 
BRANCH  20  21
ATOM     21  N   UNL     1       0.265  10.114  21.784  0.00  0.00    +0.000 N 
ATOM     22  C   UNL     1       0.071   8.763  21.613  0.00  0.00    +0.000 C 
ATOM     23  O   UNL     1      -0.777   8.108  22.201  0.00  0.00    +0.000 OA
ATOM     24  H   UNL     1       0.810  10.630  21.107  0.00  0.00    +0.000 HD
BRANCH  22  25
ATOM     25  C   UNL     1       0.974   8.127  20.623  0.00  0.00    +0.000 A 
ATOM     26  C   UNL     1       1.451   6.830  20.820  0.00  0.00    +0.000 A 
ATOM     27  C   UNL     1       2.315   6.258  19.891  0.00  0.00    +0.000 A 
ATOM     28  C   UNL     1       2.699   6.943  18.723  0.00  0.00    +0.000 A 
ATOM     29  C   UNL     1       2.186   8.241  18.535  0.00  0.00    +0.000 A 
ATOM     30  C   UNL     1       1.332   8.831  19.473  0.00  0.00    +0.000 A 
BRANCH  28  31
ATOM     31  C   UNL     1       3.608   6.305  17.746  0.00  0.00    +0.000 A 
ATOM     32  C   UNL     1       3.612   4.908  17.564  0.00  0.00    +0.000 A 
ATOM     33  C   UNL     1       4.505   4.286  16.689  0.00  0.00    +0.000 A 
ATOM     34  C   UNL     1       5.401   5.053  15.954  0.00  0.00    +0.000 A 
ATOM     35  C   UNL     1       5.402   6.438  16.093  0.00  0.00    +0.000 A 
ATOM     36  C   UNL     1       4.518   7.055  16.984  0.00  0.00    +0.000 A 
ENDBRANCH  28  31
ENDBRANCH  22  25
ENDBRANCH  20  21
ENDBRANCH  19  20
ENDBRANCH   1  19
TORSDOF 10
ENDMDL
