MODEL 1
REMARK VINA RESULT:      -7.8      0.000      0.000
REMARK  Name = 
REMARK  3 active torsions:
REMARK  status: ('A' for Active; 'I' for Inactive)
REMARK    1  A    between atoms: C_3  and  C_4
REMARK    2  A    between atoms: N_13  and  C_14
REMARK    3  A    between atoms: C_17  and  C_18
REMARK                            x       y       z     vdW  Elec       q    Type
REMARK                         _______ _______ _______ _____ _____    ______ ____
ROOT
ATOM      1  O   UNL     1       1.799   7.408  21.188  0.00  0.00    +0.000 OA
ATOM      2  C   UNL     1       1.798   7.969  20.101  0.00  0.00    +0.000 C 
ATOM      3  C   UNL     1       2.686   7.551  18.939  0.00  0.00    +0.000 C 
ATOM      4  C   UNL     1       2.065   8.267  17.745  0.00  0.00    +0.000 C 
ATOM      5  C   UNL     1       1.404   9.485  18.351  0.00  0.00    +0.000 C 
ATOM      6  N   UNL     1       1.049   9.087  19.694  0.00  0.00    +0.000 N 
ENDROOT
BRANCH   3   7
ATOM      7  C   UNL     1       2.794   6.057  18.705  0.00  0.00    +0.000 A 
ATOM      8  C   UNL     1       1.856   5.357  17.927  0.00  0.00    +0.000 A 
ATOM      9  C   UNL     1       1.994   3.985  17.710  0.00  0.00    +0.000 A 
ATOM     10  C   UNL     1       3.079   3.306  18.257  0.00  0.00    +0.000 A 
ATOM     11 CL   UNL     1       3.254   1.617  17.984  0.00  0.00    +0.000 Cl
ATOM     12  C   UNL     1       4.023   3.985  19.021  0.00  0.00    +0.000 A 
ATOM     13  C   UNL     1       3.882   5.357  19.244  0.00  0.00    +0.000 A 
ENDBRANCH   3   7
BRANCH   6  14
ATOM     14  C   UNL     1       0.219   9.884  20.532  0.00  0.00    +0.000 A 
ATOM     15  C   UNL     1       0.177   9.693  21.916  0.00  0.00    +0.000 A 
ATOM     16  C   UNL     1      -0.581  10.523  22.749  0.00  0.00    +0.000 A 
ATOM     17  C   UNL     1      -1.341  11.564  22.217  0.00  0.00    +0.000 A 
ATOM     18  C   UNL     1      -1.344  11.741  20.831  0.00  0.00    +0.000 A 
ATOM     19  C   UNL     1      -0.571  10.916  20.001  0.00  0.00    +0.000 A 
BRANCH  17  20
ATOM     20  C   UNL     1      -2.077  12.468  23.083  0.00  0.00    +0.000 A 
ATOM     21  C   UNL     1      -3.338  12.328  23.707  0.00  0.00    +0.000 A 
ATOM     22  N   UNL     1      -3.693  13.408  24.408  0.00  0.00    +0.000 NA
ATOM     23  N   UNL     1      -2.661  14.249  24.230  0.00  0.00    +0.000 N 
ATOM     24  C   UNL     1      -1.666  13.732  23.453  0.00  0.00    +0.000 A 
ATOM     25  H   UNL     1      -2.705  15.164  24.665  0.00  0.00    +0.000 HD
ENDBRANCH  17  20
ENDBRANCH   6  14
TORSDOF 3
ENDMDL
MODEL 2
REMARK VINA RESULT:      -7.8      4.314      8.921
REMARK  Name = 
REMARK  3 active torsions:
REMARK  status: ('A' for Active; 'I' for Inactive)
REMARK    1  A    between atoms: C_3  and  C_4
REMARK    2  A    between atoms: N_13  and  C_14
REMARK    3  A    between atoms: C_17  and  C_18
REMARK                            x       y       z     vdW  Elec       q    Type
REMARK                         _______ _______ _______ _____ _____    ______ ____
ROOT
ATOM      1  O   UNL     1      -0.998   9.668  17.312  0.00  0.00    +0.000 OA
ATOM      2  C   UNL     1      -0.605  10.352  18.248  0.00  0.00    +0.000 C 
ATOM      3  C   UNL     1      -1.186  11.714  18.595  0.00  0.00    +0.000 C 
ATOM      4  C   UNL     1      -0.660  11.974  20.001  0.00  0.00    +0.000 C 
ATOM      5  C   UNL     1       0.630  11.187  20.062  0.00  0.00    +0.000 C 
ATOM      6  N   UNL     1       0.435  10.080  19.154  0.00  0.00    +0.000 N 
ENDROOT
BRANCH   3   7
ATOM      7  C   UNL     1      -2.697  11.815  18.531  0.00  0.00    +0.000 A 
ATOM      8  C   UNL     1      -3.419  11.439  17.385  0.00  0.00    +0.000 A 
ATOM      9  C   UNL     1      -4.812  11.522  17.363  0.00  0.00    +0.000 A 
ATOM     10  C   UNL     1      -5.495  11.966  18.492  0.00  0.00    +0.000 A 
ATOM     11 CL   UNL     1      -7.212  12.061  18.468  0.00  0.00    +0.000 Cl
ATOM     12  C   UNL     1      -4.797  12.332  19.639  0.00  0.00    +0.000 A 
ATOM     13  C   UNL     1      -3.402  12.256  19.659  0.00  0.00    +0.000 A 
ENDBRANCH   3   7
BRANCH   6  14
ATOM     14  C   UNL     1       1.342   8.986  19.078  0.00  0.00    +0.000 A 
ATOM     15  C   UNL     1       1.459   8.058  20.118  0.00  0.00    +0.000 A 
ATOM     16  C   UNL     1       2.295   6.942  20.015  0.00  0.00    +0.000 A 
ATOM     17  C   UNL     1       3.059   6.726  18.869  0.00  0.00    +0.000 A 
ATOM     18  C   UNL     1       2.986   7.667  17.838  0.00  0.00    +0.000 A 
ATOM     19  C   UNL     1       2.135   8.778  17.940  0.00  0.00    +0.000 A 
BRANCH  17  20
ATOM     20  C   UNL     1       3.877   5.535  18.731  0.00  0.00    +0.000 A 
ATOM     21  C   UNL     1       5.115   5.189  19.323  0.00  0.00    +0.000 A 
ATOM     22  N   UNL     1       5.573   4.004  18.913  0.00  0.00    +0.000 NA
ATOM     23  N   UNL     1       4.631   3.587  18.051  0.00  0.00    +0.000 N 
ATOM     24  C   UNL     1       3.595   4.462  17.912  0.00  0.00    +0.000 A 
ATOM     25  H   UNL     1       4.765   2.695  17.586  0.00  0.00    +0.000 HD
ENDBRANCH  17  20
ENDBRANCH   6  14
TORSDOF 3
ENDMDL
MODEL 3
REMARK VINA RESULT:      -7.7      4.384      8.865
REMARK  Name = 
REMARK  3 active torsions:
REMARK  status: ('A' for Active; 'I' for Inactive)
REMARK    1  A    between atoms: C_3  and  C_4
REMARK    2  A    between atoms: N_13  and  C_14
REMARK    3  A    between atoms: C_17  and  C_18
REMARK                            x       y       z     vdW  Elec       q    Type
REMARK                         _______ _______ _______ _____ _____    ______ ____
ROOT
ATOM      1  O   UNL     1      -1.064   9.376  17.336  0.00  0.00    +0.000 OA
ATOM      2  C   UNL     1      -0.602  10.192  18.122  0.00  0.00    +0.000 C 
ATOM      3  C   UNL     1      -1.139  11.606  18.278  0.00  0.00    +0.000 C 
ATOM      4  C   UNL     1      -0.520  12.077  19.588  0.00  0.00    +0.000 C 
ATOM      5  C   UNL     1       0.760  11.278  19.697  0.00  0.00    +0.000 C 
ATOM      6  N   UNL     1       0.490  10.044  18.995  0.00  0.00    +0.000 N 
ENDROOT
BRANCH   3   7
ATOM      7  C   UNL     1      -2.649  11.733  18.291  0.00  0.00    +0.000 A 
ATOM      8  C   UNL     1      -3.350  12.137  19.440  0.00  0.00    +0.000 A 
ATOM      9  C   UNL     1      -4.740  12.267  19.417  0.00  0.00    +0.000 A 
ATOM     10  C   UNL     1      -5.438  12.008  18.240  0.00  0.00    +0.000 A 
ATOM     11 CL   UNL     1      -7.149  12.175  18.208  0.00  0.00    +0.000 Cl
ATOM     12  C   UNL     1      -4.758  11.617  17.090  0.00  0.00    +0.000 A 
ATOM     13  C   UNL     1      -3.369  11.480  17.115  0.00  0.00    +0.000 A 
ENDBRANCH   3   7
BRANCH   6  14
ATOM     14  C   UNL     1       1.374   8.929  19.044  0.00  0.00    +0.000 A 
ATOM     15  C   UNL     1       1.438   8.093  20.163  0.00  0.00    +0.000 A 
ATOM     16  C   UNL     1       2.251   6.956  20.183  0.00  0.00    +0.000 A 
ATOM     17  C   UNL     1       3.045   6.627  19.085  0.00  0.00    +0.000 A 
ATOM     18  C   UNL     1       3.025   7.475  17.975  0.00  0.00    +0.000 A 
ATOM     19  C   UNL     1       2.197   8.608  17.953  0.00  0.00    +0.000 A 
BRANCH  17  20
ATOM     20  C   UNL     1       3.840   5.412  19.077  0.00  0.00    +0.000 A 
ATOM     21  C   UNL     1       3.479   4.068  19.331  0.00  0.00    +0.000 A 
ATOM     22  N   UNL     1       4.516   3.230  19.260  0.00  0.00    +0.000 NA
ATOM     23  N   UNL     1       5.549   4.036  18.965  0.00  0.00    +0.000 N 
ATOM     24  C   UNL     1       5.197   5.347  18.839  0.00  0.00    +0.000 A 
ATOM     25  H   UNL     1       6.471   3.622  18.871  0.00  0.00    +0.000 HD
ENDBRANCH  17  20
ENDBRANCH   6  14
TORSDOF 3
ENDMDL
MODEL 4
REMARK VINA RESULT:      -7.7      4.300      9.298
REMARK  Name = 
REMARK  3 active torsions:
REMARK  status: ('A' for Active; 'I' for Inactive)
REMARK    1  A    between atoms: C_3  and  C_4
REMARK    2  A    between atoms: N_13  and  C_14
REMARK    3  A    between atoms: C_17  and  C_18
REMARK                            x       y       z     vdW  Elec       q    Type
REMARK                         _______ _______ _______ _____ _____    ______ ____
ROOT
ATOM      1  O   UNL     1       1.187   9.864  17.687  0.00  0.00    +0.000 OA
ATOM      2  C   UNL     1       1.010   9.456  18.827  0.00  0.00    +0.000 C 
ATOM      3  C   UNL     1       0.097  10.141  19.832  0.00  0.00    +0.000 C 
ATOM      4  C   UNL     1      -0.085   9.089  20.918  0.00  0.00    +0.000 C 
ATOM      5  C   UNL     1       1.176   8.258  20.839  0.00  0.00    +0.000 C 
ATOM      6  N   UNL     1       1.594   8.344  19.459  0.00  0.00    +0.000 N 
ENDROOT
BRANCH   3   7
ATOM      7  C   UNL     1      -1.233  10.622  19.285  0.00  0.00    +0.000 A 
ATOM      8  C   UNL     1      -1.864  11.777  19.777  0.00  0.00    +0.000 A 
ATOM      9  C   UNL     1      -3.077  12.208  19.239  0.00  0.00    +0.000 A 
ATOM     10  C   UNL     1      -3.661  11.497  18.195  0.00  0.00    +0.000 A 
ATOM     11 CL   UNL     1      -5.153  12.031  17.526  0.00  0.00    +0.000 Cl
ATOM     12  C   UNL     1      -3.044  10.356  17.688  0.00  0.00    +0.000 A 
ATOM     13  C   UNL     1      -1.834   9.920  18.231  0.00  0.00    +0.000 A 
ENDBRANCH   3   7
BRANCH   6  14
ATOM     14  C   UNL     1       2.631   7.530  18.922  0.00  0.00    +0.000 A 
ATOM     15  C   UNL     1       3.292   7.871  17.738  0.00  0.00    +0.000 A 
ATOM     16  C   UNL     1       4.359   7.112  17.249  0.00  0.00    +0.000 A 
ATOM     17  C   UNL     1       4.791   5.970  17.923  0.00  0.00    +0.000 A 
ATOM     18  C   UNL     1       4.114   5.592  19.085  0.00  0.00    +0.000 A 
ATOM     19  C   UNL     1       3.052   6.364  19.581  0.00  0.00    +0.000 A 
BRANCH  17  20
ATOM     20  C   UNL     1       5.941   5.217  17.455  0.00  0.00    +0.000 A 
ATOM     21  C   UNL     1       7.209   5.005  18.043  0.00  0.00    +0.000 A 
ATOM     22  N   UNL     1       8.021   4.274  17.275  0.00  0.00    +0.000 NA
ATOM     23  N   UNL     1       7.276   4.019  16.187  0.00  0.00    +0.000 N 
ATOM     24  C   UNL     1       6.023   4.555  16.248  0.00  0.00    +0.000 A 
ATOM     25  H   UNL     1       7.690   3.478  15.436  0.00  0.00    +0.000 HD
ENDBRANCH  17  20
ENDBRANCH   6  14
TORSDOF 3
ENDMDL
MODEL 5
REMARK VINA RESULT:      -7.7      4.317      9.010
REMARK  Name = 
REMARK  3 active torsions:
REMARK  status: ('A' for Active; 'I' for Inactive)
REMARK    1  A    between atoms: C_3  and  C_4
REMARK    2  A    between atoms: N_13  and  C_14
REMARK    3  A    between atoms: C_17  and  C_18
REMARK                            x       y       z     vdW  Elec       q    Type
REMARK                         _______ _______ _______ _____ _____    ______ ____
ROOT
ATOM      1  O   UNL     1      -1.026   9.599  17.490  0.00  0.00    +0.000 OA
ATOM      2  C   UNL     1      -0.478  10.305  18.325  0.00  0.00    +0.000 C 
ATOM      3  C   UNL     1      -0.928  11.721  18.652  0.00  0.00    +0.000 C 
ATOM      4  C   UNL     1      -0.214  12.024  19.964  0.00  0.00    +0.000 C 
ATOM      5  C   UNL     1       1.024  11.156  19.917  0.00  0.00    +0.000 C 
ATOM      6  N   UNL     1       0.649  10.015  19.113  0.00  0.00    +0.000 N 
ENDROOT
BRANCH   3   7
ATOM      7  C   UNL     1      -2.426  11.920  18.767  0.00  0.00    +0.000 A 
ATOM      8  C   UNL     1      -3.308  11.530  17.744  0.00  0.00    +0.000 A 
ATOM      9  C   UNL     1      -4.685  11.705  17.887  0.00  0.00    +0.000 A 
ATOM     10  C   UNL     1      -5.192  12.258  19.059  0.00  0.00    +0.000 A 
ATOM     11 CL   UNL     1      -6.890  12.468  19.240  0.00  0.00    +0.000 Cl
ATOM     12  C   UNL     1      -4.334  12.641  20.086  0.00  0.00    +0.000 A 
ATOM     13  C   UNL     1      -2.956  12.472  19.941  0.00  0.00    +0.000 A 
ENDBRANCH   3   7
BRANCH   6  14
ATOM     14  C   UNL     1       1.472   8.859  18.997  0.00  0.00    +0.000 A 
ATOM     15  C   UNL     1       2.279   8.644  17.876  0.00  0.00    +0.000 A 
ATOM     16  C   UNL     1       3.143   7.547  17.793  0.00  0.00    +0.000 A 
ATOM     17  C   UNL     1       3.214   6.616  18.829  0.00  0.00    +0.000 A 
ATOM     18  C   UNL     1       2.383   6.794  19.938  0.00  0.00    +0.000 A 
ATOM     19  C   UNL     1       1.528   7.903  20.023  0.00  0.00    +0.000 A 
BRANCH  17  20
ATOM     20  C   UNL     1       4.157   5.513  18.776  0.00  0.00    +0.000 A 
ATOM     21  C   UNL     1       5.509   5.432  19.182  0.00  0.00    +0.000 A 
ATOM     22  N   UNL     1       6.055   4.239  18.933  0.00  0.00    +0.000 NA
ATOM     23  N   UNL     1       5.054   3.551  18.360  0.00  0.00    +0.000 N 
ATOM     24  C   UNL     1       3.898   4.265  18.250  0.00  0.00    +0.000 A 
ATOM     25  H   UNL     1       5.234   2.599  18.062  0.00  0.00    +0.000 HD
ENDBRANCH  17  20
ENDBRANCH   6  14
TORSDOF 3
ENDMDL
MODEL 6
REMARK VINA RESULT:      -7.7      4.292      8.984
REMARK  Name = 
REMARK  3 active torsions:
REMARK  status: ('A' for Active; 'I' for Inactive)
REMARK    1  A    between atoms: C_3  and  C_4
REMARK    2  A    between atoms: N_13  and  C_14
REMARK    3  A    between atoms: C_17  and  C_18
REMARK                            x       y       z     vdW  Elec       q    Type
REMARK                         _______ _______ _______ _____ _____    ______ ____
ROOT
ATOM      1  O   UNL     1      -0.866   9.557  17.385  0.00  0.00    +0.000 OA
ATOM      2  C   UNL     1      -0.459  10.204  18.341  0.00  0.00    +0.000 C 
ATOM      3  C   UNL     1      -0.988  11.582  18.709  0.00  0.00    +0.000 C 
ATOM      4  C   UNL     1      -0.473  11.790  20.128  0.00  0.00    +0.000 C 
ATOM      5  C   UNL     1       0.782  10.947  20.190  0.00  0.00    +0.000 C 
ATOM      6  N   UNL     1       0.554   9.869  19.256  0.00  0.00    +0.000 N 
ENDROOT
BRANCH   3   7
ATOM      7  C   UNL     1      -2.492  11.748  18.625  0.00  0.00    +0.000 A 
ATOM      8  C   UNL     1      -3.239  12.289  19.686  0.00  0.00    +0.000 A 
ATOM      9  C   UNL     1      -4.620  12.452  19.572  0.00  0.00    +0.000 A 
ATOM     10  C   UNL     1      -5.264  12.087  18.393  0.00  0.00    +0.000 A 
ATOM     11 CL   UNL     1      -6.965  12.294  18.249  0.00  0.00    +0.000 Cl
ATOM     12  C   UNL     1      -4.538  11.558  17.329  0.00  0.00    +0.000 A 
ATOM     13  C   UNL     1      -3.156  11.390  17.444  0.00  0.00    +0.000 A 
ENDBRANCH   3   7
BRANCH   6  14
ATOM     14  C   UNL     1       1.415   8.739  19.170  0.00  0.00    +0.000 A 
ATOM     15  C   UNL     1       2.208   8.507  18.042  0.00  0.00    +0.000 A 
ATOM     16  C   UNL     1       3.109   7.438  17.985  0.00  0.00    +0.000 A 
ATOM     17  C   UNL     1       3.233   6.553  19.055  0.00  0.00    +0.000 A 
ATOM     18  C   UNL     1       2.418   6.746  20.173  0.00  0.00    +0.000 A 
ATOM     19  C   UNL     1       1.525   7.827  20.231  0.00  0.00    +0.000 A 
BRANCH  17  20
ATOM     20  C   UNL     1       4.214   5.482  19.027  0.00  0.00    +0.000 A 
ATOM     21  C   UNL     1       5.603   5.507  18.765  0.00  0.00    +0.000 A 
ATOM     22  N   UNL     1       6.159   4.294  18.798  0.00  0.00    +0.000 NA
ATOM     23  N   UNL     1       5.125   3.484  19.077  0.00  0.00    +0.000 N 
ATOM     24  C   UNL     1       3.942   4.145  19.229  0.00  0.00    +0.000 A 
ATOM     25  H   UNL     1       5.298   2.486  19.141  0.00  0.00    +0.000 HD
ENDBRANCH  17  20
ENDBRANCH   6  14
TORSDOF 3
ENDMDL
MODEL 7
REMARK VINA RESULT:      -7.7      4.313      9.285
REMARK  Name = 
REMARK  3 active torsions:
REMARK  status: ('A' for Active; 'I' for Inactive)
REMARK    1  A    between atoms: C_3  and  C_4
REMARK    2  A    between atoms: N_13  and  C_14
REMARK    3  A    between atoms: C_17  and  C_18
REMARK                            x       y       z     vdW  Elec       q    Type
REMARK                         _______ _______ _______ _____ _____    ______ ____
ROOT
ATOM      1  O   UNL     1       1.194   9.939  17.652  0.00  0.00    +0.000 OA
ATOM      2  C   UNL     1       1.012   9.501  18.780  0.00  0.00    +0.000 C 
ATOM      3  C   UNL     1       0.077  10.147  19.791  0.00  0.00    +0.000 C 
ATOM      4  C   UNL     1      -0.099   9.066  20.850  0.00  0.00    +0.000 C 
ATOM      5  C   UNL     1       1.176   8.257  20.764  0.00  0.00    +0.000 C 
ATOM      6  N   UNL     1       1.607   8.383  19.391  0.00  0.00    +0.000 N 
ENDROOT
BRANCH   3   7
ATOM      7  C   UNL     1      -1.254  10.620  19.241  0.00  0.00    +0.000 A 
ATOM      8  C   UNL     1      -1.905   9.947  18.193  0.00  0.00    +0.000 A 
ATOM      9  C   UNL     1      -3.142  10.392  17.722  0.00  0.00    +0.000 A 
ATOM     10  C   UNL     1      -3.743  11.504  18.305  0.00  0.00    +0.000 A 
ATOM     11 CL   UNL     1      -5.269  12.049  17.731  0.00  0.00    +0.000 Cl
ATOM     12  C   UNL     1      -3.116  12.176  19.351  0.00  0.00    +0.000 A 
ATOM     13  C   UNL     1      -1.876  11.735  19.818  0.00  0.00    +0.000 A 
ENDBRANCH   3   7
BRANCH   6  14
ATOM     14  C   UNL     1       2.662   7.598  18.847  0.00  0.00    +0.000 A 
ATOM     15  C   UNL     1       3.371   8.009  17.713  0.00  0.00    +0.000 A 
ATOM     16  C   UNL     1       4.455   7.276  17.220  0.00  0.00    +0.000 A 
ATOM     17  C   UNL     1       4.856   6.093  17.839  0.00  0.00    +0.000 A 
ATOM     18  C   UNL     1       4.132   5.647  18.947  0.00  0.00    +0.000 A 
ATOM     19  C   UNL     1       3.053   6.392  19.447  0.00  0.00    +0.000 A 
BRANCH  17  20
ATOM     20  C   UNL     1       6.021   5.364  17.371  0.00  0.00    +0.000 A 
ATOM     21  C   UNL     1       6.333   4.840  16.095  0.00  0.00    +0.000 A 
ATOM     22  N   UNL     1       7.502   4.195  16.070  0.00  0.00    +0.000 NA
ATOM     23  N   UNL     1       7.942   4.297  17.335  0.00  0.00    +0.000 N 
ATOM     24  C   UNL     1       7.097   4.993  18.149  0.00  0.00    +0.000 A 
ATOM     25  H   UNL     1       8.826   3.862  17.574  0.00  0.00    +0.000 HD
ENDBRANCH  17  20
ENDBRANCH   6  14
TORSDOF 3
ENDMDL
MODEL 8
REMARK VINA RESULT:      -7.6      4.037      9.080
REMARK  Name = 
REMARK  3 active torsions:
REMARK  status: ('A' for Active; 'I' for Inactive)
REMARK    1  A    between atoms: C_3  and  C_4
REMARK    2  A    between atoms: N_13  and  C_14
REMARK    3  A    between atoms: C_17  and  C_18
REMARK                            x       y       z     vdW  Elec       q    Type
REMARK                         _______ _______ _______ _____ _____    ______ ____
ROOT
ATOM      1  O   UNL     1      -1.648  10.106  19.496  0.00  0.00    +0.000 OA
ATOM      2  C   UNL     1      -0.771  10.875  19.863  0.00  0.00    +0.000 C 
ATOM      3  C   UNL     1      -1.038  12.305  20.307  0.00  0.00    +0.000 C 
ATOM      4  C   UNL     1       0.256  12.705  21.006  0.00  0.00    +0.000 C 
ATOM      5  C   UNL     1       1.312  11.850  20.342  0.00  0.00    +0.000 C 
ATOM      6  N   UNL     1       0.616  10.652  19.929  0.00  0.00    +0.000 N 
ENDROOT
BRANCH   3   7
ATOM      7  C   UNL     1      -2.245  12.495  21.205  0.00  0.00    +0.000 A 
ATOM      8  C   UNL     1      -3.481  12.934  20.702  0.00  0.00    +0.000 A 
ATOM      9  C   UNL     1      -4.582  13.079  21.549  0.00  0.00    +0.000 A 
ATOM     10  C   UNL     1      -4.458  12.772  22.901  0.00  0.00    +0.000 A 
ATOM     11 CL   UNL     1      -5.815  12.942  23.943  0.00  0.00    +0.000 Cl
ATOM     12  C   UNL     1      -3.243  12.326  23.413  0.00  0.00    +0.000 A 
ATOM     13  C   UNL     1      -2.140  12.187  22.568  0.00  0.00    +0.000 A 
ENDBRANCH   3   7
BRANCH   6  14
ATOM     14  C   UNL     1       1.299   9.501  19.447  0.00  0.00    +0.000 A 
ATOM     15  C   UNL     1       1.556   8.402  20.273  0.00  0.00    +0.000 A 
ATOM     16  C   UNL     1       2.161   7.241  19.782  0.00  0.00    +0.000 A 
ATOM     17  C   UNL     1       2.547   7.147  18.445  0.00  0.00    +0.000 A 
ATOM     18  C   UNL     1       2.336   8.252  17.617  0.00  0.00    +0.000 A 
ATOM     19  C   UNL     1       1.716   9.411  18.110  0.00  0.00    +0.000 A 
BRANCH  17  20
ATOM     20  C   UNL     1       3.115   5.920  17.917  0.00  0.00    +0.000 A 
ATOM     21  C   UNL     1       4.332   5.681  17.238  0.00  0.00    +0.000 A 
ATOM     22  N   UNL     1       4.483   4.405  16.875  0.00  0.00    +0.000 NA
ATOM     23  N   UNL     1       3.358   3.820  17.318  0.00  0.00    +0.000 N 
ATOM     24  C   UNL     1       2.511   4.680  17.953  0.00  0.00    +0.000 A 
ATOM     25  H   UNL     1       3.230   2.829  17.145  0.00  0.00    +0.000 HD
ENDBRANCH  17  20
ENDBRANCH   6  14
TORSDOF 3
ENDMDL
MODEL 9
REMARK VINA RESULT:      -7.5      4.077      9.156
REMARK  Name = 
REMARK  3 active torsions:
REMARK  status: ('A' for Active; 'I' for Inactive)
REMARK    1  A    between atoms: C_3  and  C_4
REMARK    2  A    between atoms: N_13  and  C_14
REMARK    3  A    between atoms: C_17  and  C_18
REMARK                            x       y       z     vdW  Elec       q    Type
REMARK                         _______ _______ _______ _____ _____    ______ ____
ROOT
ATOM      1  O   UNL     1      -1.587  10.131  19.218  0.00  0.00    +0.000 OA
ATOM      2  C   UNL     1      -0.731  10.873  19.680  0.00  0.00    +0.000 C 
ATOM      3  C   UNL     1      -1.014  12.290  20.153  0.00  0.00    +0.000 C 
ATOM      4  C   UNL     1       0.226  12.646  20.964  0.00  0.00    +0.000 C 
ATOM      5  C   UNL     1       1.319  11.798  20.353  0.00  0.00    +0.000 C 
ATOM      6  N   UNL     1       0.644  10.627  19.845  0.00  0.00    +0.000 N 
ENDROOT
BRANCH   3   7
ATOM      7  C   UNL     1      -2.285  12.467  20.960  0.00  0.00    +0.000 A 
ATOM      8  C   UNL     1      -2.306  12.305  22.356  0.00  0.00    +0.000 A 
ATOM      9  C   UNL     1      -3.486  12.497  23.077  0.00  0.00    +0.000 A 
ATOM     10  C   UNL     1      -4.651  12.865  22.409  0.00  0.00    +0.000 A 
ATOM     11 CL   UNL     1      -6.103  13.108  23.296  0.00  0.00    +0.000 Cl
ATOM     12  C   UNL     1      -4.645  13.039  21.028  0.00  0.00    +0.000 A 
ATOM     13  C   UNL     1      -3.466  12.841  20.306  0.00  0.00    +0.000 A 
ENDBRANCH   3   7
BRANCH   6  14
ATOM     14  C   UNL     1       1.348   9.482  19.376  0.00  0.00    +0.000 A 
ATOM     15  C   UNL     1       1.563   8.369  20.194  0.00  0.00    +0.000 A 
ATOM     16  C   UNL     1       2.190   7.215  19.713  0.00  0.00    +0.000 A 
ATOM     17  C   UNL     1       2.640   7.144  18.395  0.00  0.00    +0.000 A 
ATOM     18  C   UNL     1       2.470   8.264  17.577  0.00  0.00    +0.000 A 
ATOM     19  C   UNL     1       1.829   9.415  18.059  0.00  0.00    +0.000 A 
BRANCH  17  20
ATOM     20  C   UNL     1       3.231   5.925  17.873  0.00  0.00    +0.000 A 
ATOM     21  C   UNL     1       4.448   5.708  17.186  0.00  0.00    +0.000 A 
ATOM     22  N   UNL     1       4.625   4.432  16.834  0.00  0.00    +0.000 NA
ATOM     23  N   UNL     1       3.517   3.826  17.291  0.00  0.00    +0.000 N 
ATOM     24  C   UNL     1       2.656   4.673  17.925  0.00  0.00    +0.000 A 
ATOM     25  H   UNL     1       3.410   2.831  17.128  0.00  0.00    +0.000 HD
ENDBRANCH  17  20
ENDBRANCH   6  14
TORSDOF 3
ENDMDL
