MODEL 1
REMARK VINA RESULT:      -8.3      0.000      0.000
REMARK  Name = 
REMARK  9 active torsions:
REMARK  status: ('A' for Active; 'I' for Inactive)
REMARK    1  A    between atoms: C_1  and  C_2
REMARK    2  A    between atoms: C_2  and  O_3
REMARK    3  A    between atoms: O_3  and  C_4
REMARK    4  A    between atoms: C_4  and  C_6
REMARK    5  A    between atoms: C_8  and  C_9
REMARK    6  A    between atoms: N_12  and  C_13
REMARK    7  A    between atoms: C_13  and  C_14
REMARK    8  A    between atoms: C_18  and  C_19
REMARK    9  A    between atoms: C_23  and  C_24
REMARK                            x       y       z     vdW  Elec       q    Type
REMARK                         _______ _______ _______ _____ _____    ______ ____
ROOT
ATOM      1  C   UNL     1       6.637   4.986  17.064  0.00  0.00    +0.000 C 
ATOM      2  C   UNL     1       5.751   3.875  17.641  0.00  0.00    +0.000 C 
ATOM      3  C   UNL     1       4.258   4.212  17.666  0.00  0.00    +0.000 C 
ATOM      4  N   UNL     1       4.002   5.520  18.301  0.00  0.00    +0.000 NA
ATOM      5  C   UNL     1       4.647   6.560  17.477  0.00  0.00    +0.000 C 
ATOM      6  C   UNL     1       6.168   6.381  17.499  0.00  0.00    +0.000 C 
ENDROOT
BRANCH   1   9
ATOM      7  C   UNL     1       6.454   4.081  13.505  0.00  0.00    +0.000 A 
ATOM      8  N   UNL     1       6.061   3.980  14.820  0.00  0.00    +0.000 N 
ATOM      9  C   UNL     1       6.789   4.877  15.571  0.00  0.00    +0.000 A 
ATOM     10  N   UNL     1       7.608   5.556  14.797  0.00  0.00    +0.000 NA
ATOM     11  C   UNL     1       7.422   5.070  13.522  0.00  0.00    +0.000 A 
ATOM     12  C   UNL     1       8.207   5.613  12.388  0.00  0.00    +0.000 C 
ATOM     13  H   UNL     1       5.365   3.336  15.171  0.00  0.00    +0.000 HD
BRANCH   7  14
ATOM     14  C   UNL     1       5.950   3.317  12.393  0.00  0.00    +0.000 C 
ATOM     15  O   UNL     1       6.580   2.475  11.766  0.00  0.00    +0.000 OA
BRANCH  14  16
ATOM     16  O   UNL     1       4.665   3.688  12.119  0.00  0.00    +0.000 OA
BRANCH  16  18
ATOM     17  C   UNL     1       3.230   3.830  10.159  0.00  0.00    +0.000 C 
ATOM     18  C   UNL     1       4.014   2.919  11.090  0.00  0.00    +0.000 C 
ENDBRANCH  16  18
ENDBRANCH  14  16
ENDBRANCH   7  14
ENDBRANCH   1   9
BRANCH   4  19
ATOM     19  C   UNL     1       2.534   5.727  18.394  0.00  0.00    +0.000 C 
BRANCH  19  20
ATOM     20  C   UNL     1       1.774   4.467  18.704  0.00  0.00    +0.000 A 
ATOM     21  N   UNL     1       1.162   3.806  17.709  0.00  0.00    +0.000 NA
ATOM     22  O   UNL     1       0.559   2.711  18.295  0.00  0.00    +0.000 OA
ATOM     23  C   UNL     1       0.818   2.711  19.622  0.00  0.00    +0.000 A 
ATOM     24  C   UNL     1       1.600   3.794  19.948  0.00  0.00    +0.000 A 
ATOM     25  C   UNL     1       2.123   4.162  21.280  0.00  0.00    +0.000 C 
ENDBRANCH  19  20
ENDBRANCH   4  19
TORSDOF 6
ENDMDL
MODEL 2
REMARK VINA RESULT:      -8.1      1.155      1.389
REMARK  Name = 
REMARK  9 active torsions:
REMARK  status: ('A' for Active; 'I' for Inactive)
REMARK    1  A    between atoms: C_1  and  C_2
REMARK    2  A    between atoms: C_2  and  O_3
REMARK    3  A    between atoms: O_3  and  C_4
REMARK    4  A    between atoms: C_4  and  C_6
REMARK    5  A    between atoms: C_8  and  C_9
REMARK    6  A    between atoms: N_12  and  C_13
REMARK    7  A    between atoms: C_13  and  C_14
REMARK    8  A    between atoms: C_18  and  C_19
REMARK    9  A    between atoms: C_23  and  C_24
REMARK                            x       y       z     vdW  Elec       q    Type
REMARK                         _______ _______ _______ _____ _____    ______ ____
ROOT
ATOM      1  C   UNL     1       6.619   5.063  16.930  0.00  0.00    +0.000 C 
ATOM      2  C   UNL     1       5.996   3.845  17.624  0.00  0.00    +0.000 C 
ATOM      3  C   UNL     1       4.470   3.894  17.732  0.00  0.00    +0.000 C 
ATOM      4  N   UNL     1       4.003   5.168  18.312  0.00  0.00    +0.000 NA
ATOM      5  C   UNL     1       4.389   6.255  17.392  0.00  0.00    +0.000 C 
ATOM      6  C   UNL     1       5.915   6.369  17.322  0.00  0.00    +0.000 C 
ENDROOT
BRANCH   1   9
ATOM      7  C   UNL     1       6.258   4.020  13.423  0.00  0.00    +0.000 A 
ATOM      8  N   UNL     1       5.916   3.987  14.756  0.00  0.00    +0.000 N 
ATOM      9  C   UNL     1       6.705   4.887  15.439  0.00  0.00    +0.000 A 
ATOM     10  N   UNL     1       7.515   5.503  14.606  0.00  0.00    +0.000 NA
ATOM     11  C   UNL     1       7.261   4.973  13.361  0.00  0.00    +0.000 A 
ATOM     12  C   UNL     1       8.017   5.440  12.174  0.00  0.00    +0.000 C 
ATOM     13  H   UNL     1       5.213   3.384  15.161  0.00  0.00    +0.000 HD
BRANCH   7  14
ATOM     14  C   UNL     1       5.682   3.231  12.365  0.00  0.00    +0.000 C 
ATOM     15  O   UNL     1       6.198   2.246  11.853  0.00  0.00    +0.000 OA
BRANCH  14  16
ATOM     16  O   UNL     1       4.479   3.757  11.995  0.00  0.00    +0.000 OA
BRANCH  16  18
ATOM     17  C   UNL     1       3.126   3.957   9.982  0.00  0.00    +0.000 C 
ATOM     18  C   UNL     1       3.772   3.014  10.984  0.00  0.00    +0.000 C 
ENDBRANCH  16  18
ENDBRANCH  14  16
ENDBRANCH   7  14
ENDBRANCH   1   9
BRANCH   4  19
ATOM     19  C   UNL     1       2.530   5.100  18.492  0.00  0.00    +0.000 C 
BRANCH  19  20
ATOM     20  C   UNL     1       2.115   4.294  19.690  0.00  0.00    +0.000 A 
ATOM     21  N   UNL     1       2.454   4.716  20.918  0.00  0.00    +0.000 NA
ATOM     22  O   UNL     1       1.942   3.784  21.797  0.00  0.00    +0.000 OA
ATOM     23  C   UNL     1       1.292   2.822  21.104  0.00  0.00    +0.000 A 
ATOM     24  C   UNL     1       1.350   3.093  19.758  0.00  0.00    +0.000 A 
ATOM     25  C   UNL     1       0.760   2.310  18.653  0.00  0.00    +0.000 C 
ENDBRANCH  19  20
ENDBRANCH   4  19
TORSDOF 6
ENDMDL
MODEL 3
REMARK VINA RESULT:      -7.7      1.448      1.939
REMARK  Name = 
REMARK  9 active torsions:
REMARK  status: ('A' for Active; 'I' for Inactive)
REMARK    1  A    between atoms: C_1  and  C_2
REMARK    2  A    between atoms: C_2  and  O_3
REMARK    3  A    between atoms: O_3  and  C_4
REMARK    4  A    between atoms: C_4  and  C_6
REMARK    5  A    between atoms: C_8  and  C_9
REMARK    6  A    between atoms: N_12  and  C_13
REMARK    7  A    between atoms: C_13  and  C_14
REMARK    8  A    between atoms: C_18  and  C_19
REMARK    9  A    between atoms: C_23  and  C_24
REMARK                            x       y       z     vdW  Elec       q    Type
REMARK                         _______ _______ _______ _____ _____    ______ ____
ROOT
ATOM      1  C   UNL     1       6.605   5.182  17.061  0.00  0.00    +0.000 C 
ATOM      2  C   UNL     1       6.040   3.952  17.783  0.00  0.00    +0.000 C 
ATOM      3  C   UNL     1       4.515   3.940  17.904  0.00  0.00    +0.000 C 
ATOM      4  N   UNL     1       3.999   5.204  18.465  0.00  0.00    +0.000 NA
ATOM      5  C   UNL     1       4.331   6.289  17.522  0.00  0.00    +0.000 C 
ATOM      6  C   UNL     1       5.850   6.465  17.434  0.00  0.00    +0.000 C 
ENDROOT
BRANCH   1   9
ATOM      7  C   UNL     1       6.195   4.115  13.566  0.00  0.00    +0.000 A 
ATOM      8  N   UNL     1       5.847   4.121  14.898  0.00  0.00    +0.000 N 
ATOM      9  C   UNL     1       6.685   4.982  15.572  0.00  0.00    +0.000 A 
ATOM     10  N   UNL     1       7.532   5.538  14.734  0.00  0.00    +0.000 NA
ATOM     11  C   UNL     1       7.251   5.007  13.495  0.00  0.00    +0.000 A 
ATOM     12  C   UNL     1       8.037   5.413  12.305  0.00  0.00    +0.000 C 
ATOM     13  H   UNL     1       5.109   3.565  15.308  0.00  0.00    +0.000 HD
BRANCH   7  14
ATOM     14  C   UNL     1       5.577   3.347  12.516  0.00  0.00    +0.000 C 
ATOM     15  O   UNL     1       4.454   3.535  12.066  0.00  0.00    +0.000 OA
BRANCH  14  16
ATOM     16  O   UNL     1       6.421   2.356  12.107  0.00  0.00    +0.000 OA
BRANCH  16  18
ATOM     17  C   UNL     1       6.300   0.027  11.412  0.00  0.00    +0.000 C 
ATOM     18  C   UNL     1       5.876   1.458  11.122  0.00  0.00    +0.000 C 
ENDBRANCH  16  18
ENDBRANCH  14  16
ENDBRANCH   7  14
ENDBRANCH   1   9
BRANCH   4  19
ATOM     19  C   UNL     1       2.532   5.078  18.660  0.00  0.00    +0.000 C 
BRANCH  19  20
ATOM     20  C   UNL     1       2.162   4.225  19.842  0.00  0.00    +0.000 A 
ATOM     21  N   UNL     1       2.585   4.576  21.066  0.00  0.00    +0.000 NA
ATOM     22  O   UNL     1       2.095   3.617  21.929  0.00  0.00    +0.000 OA
ATOM     23  C   UNL     1       1.376   2.710  21.230  0.00  0.00    +0.000 A 
ATOM     24  C   UNL     1       1.364   3.045  19.897  0.00  0.00    +0.000 A 
ATOM     25  C   UNL     1       0.686   2.335  18.793  0.00  0.00    +0.000 C 
ENDBRANCH  19  20
ENDBRANCH   4  19
TORSDOF 6
ENDMDL
MODEL 4
REMARK VINA RESULT:      -7.2      1.619      2.056
REMARK  Name = 
REMARK  9 active torsions:
REMARK  status: ('A' for Active; 'I' for Inactive)
REMARK    1  A    between atoms: C_1  and  C_2
REMARK    2  A    between atoms: C_2  and  O_3
REMARK    3  A    between atoms: O_3  and  C_4
REMARK    4  A    between atoms: C_4  and  C_6
REMARK    5  A    between atoms: C_8  and  C_9
REMARK    6  A    between atoms: N_12  and  C_13
REMARK    7  A    between atoms: C_13  and  C_14
REMARK    8  A    between atoms: C_18  and  C_19
REMARK    9  A    between atoms: C_23  and  C_24
REMARK                            x       y       z     vdW  Elec       q    Type
REMARK                         _______ _______ _______ _____ _____    ______ ____
ROOT
ATOM      1  C   UNL     1       5.496   5.860  16.905  0.00  0.00    +0.000 C 
ATOM      2  C   UNL     1       6.325   5.267  18.052  0.00  0.00    +0.000 C 
ATOM      3  C   UNL     1       5.843   3.896  18.533  0.00  0.00    +0.000 C 
ATOM      4  N   UNL     1       4.398   3.898  18.831  0.00  0.00    +0.000 NA
ATOM      5  C   UNL     1       3.675   4.174  17.575  0.00  0.00    +0.000 C 
ATOM      6  C   UNL     1       3.996   5.587  17.082  0.00  0.00    +0.000 C 
ENDROOT
BRANCH   1   9
ATOM      7  C   UNL     1       6.070   4.264  13.644  0.00  0.00    +0.000 A 
ATOM      8  N   UNL     1       5.347   4.482  14.794  0.00  0.00    +0.000 N 
ATOM      9  C   UNL     1       5.999   5.427  15.555  0.00  0.00    +0.000 A 
ATOM     10  N   UNL     1       7.086   5.835  14.938  0.00  0.00    +0.000 NA
ATOM     11  C   UNL     1       7.151   5.121  13.763  0.00  0.00    +0.000 A 
ATOM     12  C   UNL     1       8.275   5.325  12.818  0.00  0.00    +0.000 C 
ATOM     13  H   UNL     1       4.489   4.007  15.040  0.00  0.00    +0.000 HD
BRANCH   7  14
ATOM     14  C   UNL     1       5.744   3.349  12.580  0.00  0.00    +0.000 C 
ATOM     15  O   UNL     1       6.490   2.488  12.132  0.00  0.00    +0.000 OA
BRANCH  14  16
ATOM     16  O   UNL     1       4.483   3.597  12.123  0.00  0.00    +0.000 OA
BRANCH  16  18
ATOM     17  C   UNL     1       3.160   4.004  10.122  0.00  0.00    +0.000 C 
ATOM     18  C   UNL     1       4.216   3.136  10.785  0.00  0.00    +0.000 C 
ENDBRANCH  16  18
ENDBRANCH  14  16
ENDBRANCH   7  14
ENDBRANCH   1   9
BRANCH   4  19
ATOM     19  C   UNL     1       4.025   2.577  19.398  0.00  0.00    +0.000 C 
BRANCH  19  20
ATOM     20  C   UNL     1       2.904   2.654  20.397  0.00  0.00    +0.000 A 
ATOM     21  N   UNL     1       3.191   2.791  21.701  0.00  0.00    +0.000 NA
ATOM     22  O   UNL     1       1.978   2.831  22.357  0.00  0.00    +0.000 OA
ATOM     23  C   UNL     1       0.976   2.732  21.454  0.00  0.00    +0.000 A 
ATOM     24  C   UNL     1       1.495   2.632  20.185  0.00  0.00    +0.000 A 
ATOM     25  C   UNL     1       0.753   2.521  18.912  0.00  0.00    +0.000 C 
ENDBRANCH  19  20
ENDBRANCH   4  19
TORSDOF 6
ENDMDL
MODEL 5
REMARK VINA RESULT:      -7.1      4.178      8.549
REMARK  Name = 
REMARK  9 active torsions:
REMARK  status: ('A' for Active; 'I' for Inactive)
REMARK    1  A    between atoms: C_1  and  C_2
REMARK    2  A    between atoms: C_2  and  O_3
REMARK    3  A    between atoms: O_3  and  C_4
REMARK    4  A    between atoms: C_4  and  C_6
REMARK    5  A    between atoms: C_8  and  C_9
REMARK    6  A    between atoms: N_12  and  C_13
REMARK    7  A    between atoms: C_13  and  C_14
REMARK    8  A    between atoms: C_18  and  C_19
REMARK    9  A    between atoms: C_23  and  C_24
REMARK                            x       y       z     vdW  Elec       q    Type
REMARK                         _______ _______ _______ _____ _____    ______ ____
ROOT
ATOM      1  C   UNL     1       2.393   5.088  19.282  0.00  0.00    +0.000 C 
ATOM      2  C   UNL     1       3.636   4.586  20.028  0.00  0.00    +0.000 C 
ATOM      3  C   UNL     1       4.952   4.809  19.279  0.00  0.00    +0.000 C 
ATOM      4  N   UNL     1       4.887   4.302  17.895  0.00  0.00    +0.000 NA
ATOM      5  C   UNL     1       3.862   5.079  17.172  0.00  0.00    +0.000 C 
ATOM      6  C   UNL     1       2.479   4.815  17.774  0.00  0.00    +0.000 C 
ENDROOT
BRANCH   1   9
ATOM      7  C   UNL     1       1.538   8.323  20.806  0.00  0.00    +0.000 A 
ATOM      8  N   UNL     1       1.822   6.977  20.858  0.00  0.00    +0.000 N 
ATOM      9  C   UNL     1       2.092   6.531  19.583  0.00  0.00    +0.000 A 
ATOM     10  N   UNL     1       2.014   7.528  18.728  0.00  0.00    +0.000 NA
ATOM     11  C   UNL     1       1.663   8.637  19.463  0.00  0.00    +0.000 A 
ATOM     12  C   UNL     1       1.475   9.951  18.802  0.00  0.00    +0.000 C 
ATOM     13  H   UNL     1       1.813   6.413  21.697  0.00  0.00    +0.000 HD
BRANCH   7  14
ATOM     14  C   UNL     1       1.196   9.176  21.915  0.00  0.00    +0.000 C 
ATOM     15  O   UNL     1       1.958   9.515  22.811  0.00  0.00    +0.000 OA
BRANCH  14  16
ATOM     16  O   UNL     1      -0.117   9.537  21.835  0.00  0.00    +0.000 OA
BRANCH  16  18
ATOM     17  C   UNL     1      -1.476  11.138  23.066  0.00  0.00    +0.000 C 
ATOM     18  C   UNL     1      -0.378  10.940  22.034  0.00  0.00    +0.000 C 
ENDBRANCH  16  18
ENDBRANCH  14  16
ENDBRANCH   7  14
ENDBRANCH   1   9
BRANCH   4  19
ATOM     19  C   UNL     1       6.226   4.447  17.269  0.00  0.00    +0.000 C 
BRANCH  19  20
ATOM     20  C   UNL     1       6.800   5.829  17.408  0.00  0.00    +0.000 A 
ATOM     21  N   UNL     1       6.477   6.771  16.508  0.00  0.00    +0.000 NA
ATOM     22  O   UNL     1       7.148   7.913  16.893  0.00  0.00    +0.000 OA
ATOM     23  C   UNL     1       7.853   7.662  18.019  0.00  0.00    +0.000 A 
ATOM     24  C   UNL     1       7.665   6.358  18.410  0.00  0.00    +0.000 A 
ATOM     25  C   UNL     1       8.238   5.677  19.590  0.00  0.00    +0.000 C 
ENDBRANCH  19  20
ENDBRANCH   4  19
TORSDOF 6
ENDMDL
MODEL 6
REMARK VINA RESULT:      -6.9      2.015      7.453
REMARK  Name = 
REMARK  9 active torsions:
REMARK  status: ('A' for Active; 'I' for Inactive)
REMARK    1  A    between atoms: C_1  and  C_2
REMARK    2  A    between atoms: C_2  and  O_3
REMARK    3  A    between atoms: O_3  and  C_4
REMARK    4  A    between atoms: C_4  and  C_6
REMARK    5  A    between atoms: C_8  and  C_9
REMARK    6  A    between atoms: N_12  and  C_13
REMARK    7  A    between atoms: C_13  and  C_14
REMARK    8  A    between atoms: C_18  and  C_19
REMARK    9  A    between atoms: C_23  and  C_24
REMARK                            x       y       z     vdW  Elec       q    Type
REMARK                         _______ _______ _______ _____ _____    ______ ____
ROOT
ATOM      1  C   UNL     1       5.169   6.424  18.540  0.00  0.00    +0.000 C 
ATOM      2  C   UNL     1       4.821   6.723  17.076  0.00  0.00    +0.000 C 
ATOM      3  C   UNL     1       5.073   5.555  16.120  0.00  0.00    +0.000 C 
ATOM      4  N   UNL     1       6.435   5.008  16.270  0.00  0.00    +0.000 NA
ATOM      5  C   UNL     1       6.556   4.459  17.634  0.00  0.00    +0.000 C 
ATOM      6  C   UNL     1       6.447   5.584  18.667  0.00  0.00    +0.000 C 
ENDROOT
BRANCH   1   9
ATOM      7  C   UNL     1       2.811   4.236  20.321  0.00  0.00    +0.000 A 
ATOM      8  N   UNL     1       4.018   4.509  19.718  0.00  0.00    +0.000 N 
ATOM      9  C   UNL     1       4.013   5.818  19.289  0.00  0.00    +0.000 A 
ATOM     10  N   UNL     1       2.874   6.395  19.606  0.00  0.00    +0.000 NA
ATOM     11  C   UNL     1       2.118   5.431  20.234  0.00  0.00    +0.000 A 
ATOM     12  C   UNL     1       0.752   5.742  20.719  0.00  0.00    +0.000 C 
ATOM     13  H   UNL     1       4.771   3.845  19.598  0.00  0.00    +0.000 HD
BRANCH   7  14
ATOM     14  C   UNL     1       2.401   2.983  20.902  0.00  0.00    +0.000 C 
ATOM     15  O   UNL     1       2.589   2.644  22.063  0.00  0.00    +0.000 OA
BRANCH  14  16
ATOM     16  O   UNL     1       1.787   2.213  19.958  0.00  0.00    +0.000 OA
BRANCH  16  18
ATOM     17  C   UNL     1       2.361   2.197  17.593  0.00  0.00    +0.000 C 
ATOM     18  C   UNL     1       2.667   1.638  18.972  0.00  0.00    +0.000 C 
ENDBRANCH  16  18
ENDBRANCH  14  16
ENDBRANCH   7  14
ENDBRANCH   1   9
BRANCH   4  19
ATOM     19  C   UNL     1       6.647   3.961  15.238  0.00  0.00    +0.000 C 
BRANCH  19  20
ATOM     20  C   UNL     1       7.085   4.515  13.911  0.00  0.00    +0.000 A 
ATOM     21  N   UNL     1       7.990   5.506  13.877  0.00  0.00    +0.000 NA
ATOM     22  O   UNL     1       8.186   5.798  12.543  0.00  0.00    +0.000 OA
ATOM     23  C   UNL     1       7.417   4.982  11.787  0.00  0.00    +0.000 A 
ATOM     24  C   UNL     1       6.701   4.130  12.594  0.00  0.00    +0.000 A 
ATOM     25  C   UNL     1       5.756   3.074  12.177  0.00  0.00    +0.000 C 
ENDBRANCH  19  20
ENDBRANCH   4  19
TORSDOF 6
ENDMDL
MODEL 7
REMARK VINA RESULT:      -6.9      0.920      1.320
REMARK  Name = 
REMARK  9 active torsions:
REMARK  status: ('A' for Active; 'I' for Inactive)
REMARK    1  A    between atoms: C_1  and  C_2
REMARK    2  A    between atoms: C_2  and  O_3
REMARK    3  A    between atoms: O_3  and  C_4
REMARK    4  A    between atoms: C_4  and  C_6
REMARK    5  A    between atoms: C_8  and  C_9
REMARK    6  A    between atoms: N_12  and  C_13
REMARK    7  A    between atoms: C_13  and  C_14
REMARK    8  A    between atoms: C_18  and  C_19
REMARK    9  A    between atoms: C_23  and  C_24
REMARK                            x       y       z     vdW  Elec       q    Type
REMARK                         _______ _______ _______ _____ _____    ______ ____
ROOT
ATOM      1  C   UNL     1       6.550   5.242  17.282  0.00  0.00    +0.000 C 
ATOM      2  C   UNL     1       5.762   4.131  17.988  0.00  0.00    +0.000 C 
ATOM      3  C   UNL     1       4.252   4.376  18.054  0.00  0.00    +0.000 C 
ATOM      4  N   UNL     1       3.937   5.714  18.590  0.00  0.00    +0.000 NA
ATOM      5  C   UNL     1       4.479   6.718  17.655  0.00  0.00    +0.000 C 
ATOM      6  C   UNL     1       6.008   6.636  17.622  0.00  0.00    +0.000 C 
ENDROOT
BRANCH   1   9
ATOM      7  C   UNL     1       6.141   4.158  13.793  0.00  0.00    +0.000 A 
ATOM      8  N   UNL     1       5.766   4.206  15.116  0.00  0.00    +0.000 N 
ATOM      9  C   UNL     1       6.648   5.016  15.798  0.00  0.00    +0.000 A 
ATOM     10  N   UNL     1       7.550   5.500  14.972  0.00  0.00    +0.000 NA
ATOM     11  C   UNL     1       7.259   4.973  13.734  0.00  0.00    +0.000 A 
ATOM     12  C   UNL     1       8.097   5.306  12.557  0.00  0.00    +0.000 C 
ATOM     13  H   UNL     1       4.982   3.709  15.516  0.00  0.00    +0.000 HD
BRANCH   7  14
ATOM     14  C   UNL     1       5.494   3.420  12.738  0.00  0.00    +0.000 C 
ATOM     15  O   UNL     1       4.524   3.804  12.097  0.00  0.00    +0.000 OA
BRANCH  14  16
ATOM     16  O   UNL     1       6.107   2.213  12.572  0.00  0.00    +0.000 OA
BRANCH  16  18
ATOM     17  C   UNL     1       7.528   1.734  10.655  0.00  0.00    +0.000 C 
ATOM     18  C   UNL     1       6.117   1.714  11.220  0.00  0.00    +0.000 C 
ENDBRANCH  16  18
ENDBRANCH  14  16
ENDBRANCH   7  14
ENDBRANCH   1   9
BRANCH   4  19
ATOM     19  C   UNL     1       2.463   5.837  18.732  0.00  0.00    +0.000 C 
BRANCH  19  20
ATOM     20  C   UNL     1       1.768   4.512  18.878  0.00  0.00    +0.000 A 
ATOM     21  N   UNL     1       1.186   3.951  17.806  0.00  0.00    +0.000 NA
ATOM     22  O   UNL     1       0.640   2.763  18.247  0.00  0.00    +0.000 OA
ATOM     23  C   UNL     1       0.903   2.608  19.564  0.00  0.00    +0.000 A 
ATOM     24  C   UNL     1       1.631   3.678  20.026  0.00  0.00    +0.000 A 
ATOM     25  C   UNL     1       2.139   3.901  21.396  0.00  0.00    +0.000 C 
ENDBRANCH  19  20
ENDBRANCH   4  19
TORSDOF 6
ENDMDL
MODEL 8
REMARK VINA RESULT:      -6.9      1.804      2.425
REMARK  Name = 
REMARK  9 active torsions:
REMARK  status: ('A' for Active; 'I' for Inactive)
REMARK    1  A    between atoms: C_1  and  C_2
REMARK    2  A    between atoms: C_2  and  O_3
REMARK    3  A    between atoms: O_3  and  C_4
REMARK    4  A    between atoms: C_4  and  C_6
REMARK    5  A    between atoms: C_8  and  C_9
REMARK    6  A    between atoms: N_12  and  C_13
REMARK    7  A    between atoms: C_13  and  C_14
REMARK    8  A    between atoms: C_18  and  C_19
REMARK    9  A    between atoms: C_23  and  C_24
REMARK                            x       y       z     vdW  Elec       q    Type
REMARK                         _______ _______ _______ _____ _____    ______ ____
ROOT
ATOM      1  C   UNL     1       5.598   5.745  16.826  0.00  0.00    +0.000 C 
ATOM      2  C   UNL     1       6.433   5.085  17.931  0.00  0.00    +0.000 C 
ATOM      3  C   UNL     1       5.895   3.731  18.401  0.00  0.00    +0.000 C 
ATOM      4  N   UNL     1       4.463   3.802  18.749  0.00  0.00    +0.000 NA
ATOM      5  C   UNL     1       3.714   4.142  17.524  0.00  0.00    +0.000 C 
ATOM      6  C   UNL     1       4.093   5.547  17.048  0.00  0.00    +0.000 C 
ENDROOT
BRANCH   1   9
ATOM      7  C   UNL     1       5.977   4.194  13.514  0.00  0.00    +0.000 A 
ATOM      8  N   UNL     1       5.304   4.425  14.693  0.00  0.00    +0.000 N 
ATOM      9  C   UNL     1       6.032   5.316  15.450  0.00  0.00    +0.000 A 
ATOM     10  N   UNL     1       7.120   5.678  14.806  0.00  0.00    +0.000 NA
ATOM     11  C   UNL     1       7.107   4.987  13.615  0.00  0.00    +0.000 A 
ATOM     12  C   UNL     1       8.209   5.151  12.637  0.00  0.00    +0.000 C 
ATOM     13  H   UNL     1       4.430   3.993  14.958  0.00  0.00    +0.000 HD
BRANCH   7  14
ATOM     14  C   UNL     1       5.566   3.322  12.444  0.00  0.00    +0.000 C 
ATOM     15  O   UNL     1       4.541   3.441  11.786  0.00  0.00    +0.000 OA
BRANCH  14  16
ATOM     16  O   UNL     1       6.481   2.323  12.282  0.00  0.00    +0.000 OA
BRANCH  16  18
ATOM     17  C   UNL     1       6.198   0.117  11.293  0.00  0.00    +0.000 C 
ATOM     18  C   UNL     1       6.387   1.603  11.037  0.00  0.00    +0.000 C 
ENDBRANCH  16  18
ENDBRANCH  14  16
ENDBRANCH   7  14
ENDBRANCH   1   9
BRANCH   4  19
ATOM     19  C   UNL     1       4.040   2.490  19.303  0.00  0.00    +0.000 C 
BRANCH  19  20
ATOM     20  C   UNL     1       2.926   2.600  20.306  0.00  0.00    +0.000 A 
ATOM     21  N   UNL     1       3.222   2.731  21.608  0.00  0.00    +0.000 NA
ATOM     22  O   UNL     1       2.013   2.806  22.269  0.00  0.00    +0.000 OA
ATOM     23  C   UNL     1       1.005   2.733  21.371  0.00  0.00    +0.000 A 
ATOM     24  C   UNL     1       1.515   2.616  20.100  0.00  0.00    +0.000 A 
ATOM     25  C   UNL     1       0.765   2.524  18.830  0.00  0.00    +0.000 C 
ENDBRANCH  19  20
ENDBRANCH   4  19
TORSDOF 6
ENDMDL
MODEL 9
REMARK VINA RESULT:      -6.8      2.140      2.701
REMARK  Name = 
REMARK  9 active torsions:
REMARK  status: ('A' for Active; 'I' for Inactive)
REMARK    1  A    between atoms: C_1  and  C_2
REMARK    2  A    between atoms: C_2  and  O_3
REMARK    3  A    between atoms: O_3  and  C_4
REMARK    4  A    between atoms: C_4  and  C_6
REMARK    5  A    between atoms: C_8  and  C_9
REMARK    6  A    between atoms: N_12  and  C_13
REMARK    7  A    between atoms: C_13  and  C_14
REMARK    8  A    between atoms: C_18  and  C_19
REMARK    9  A    between atoms: C_23  and  C_24
REMARK                            x       y       z     vdW  Elec       q    Type
REMARK                         _______ _______ _______ _____ _____    ______ ____
ROOT
ATOM      1  C   UNL     1       6.210   4.726  17.150  0.00  0.00    +0.000 C 
ATOM      2  C   UNL     1       5.049   3.781  17.486  0.00  0.00    +0.000 C 
ATOM      3  C   UNL     1       3.663   4.417  17.360  0.00  0.00    +0.000 C 
ATOM      4  N   UNL     1       3.577   5.693  18.098  0.00  0.00    +0.000 NA
ATOM      5  C   UNL     1       4.525   6.640  17.480  0.00  0.00    +0.000 C 
ATOM      6  C   UNL     1       5.962   6.147  17.673  0.00  0.00    +0.000 C 
ENDROOT
BRANCH   1   9
ATOM      7  C   UNL     1       6.485   4.050  13.547  0.00  0.00    +0.000 A 
ATOM      8  N   UNL     1       5.926   3.869  14.791  0.00  0.00    +0.000 N 
ATOM      9  C   UNL     1       6.552   4.710  15.685  0.00  0.00    +0.000 A 
ATOM     10  N   UNL     1       7.464   5.430  15.068  0.00  0.00    +0.000 NA
ATOM     11  C   UNL     1       7.444   5.028  13.751  0.00  0.00    +0.000 A 
ATOM     12  C   UNL     1       8.368   5.635  12.764  0.00  0.00    +0.000 C 
ATOM     13  H   UNL     1       5.191   3.210  15.008  0.00  0.00    +0.000 HD
BRANCH   7  14
ATOM     14  C   UNL     1       6.128   3.363  12.332  0.00  0.00    +0.000 C 
ATOM     15  O   UNL     1       6.739   2.421  11.844  0.00  0.00    +0.000 OA
BRANCH  14  16
ATOM     16  O   UNL     1       5.015   3.933  11.786  0.00  0.00    +0.000 OA
BRANCH  16  18
ATOM     17  C   UNL     1       3.172   3.667  10.219  0.00  0.00    +0.000 C 
ATOM     18  C   UNL     1       4.042   3.003  11.273  0.00  0.00    +0.000 C 
ENDBRANCH  16  18
ENDBRANCH  14  16
ENDBRANCH   7  14
ENDBRANCH   1   9
BRANCH   4  19
ATOM     19  C   UNL     1       2.180   6.193  18.028  0.00  0.00    +0.000 C 
BRANCH  19  20
ATOM     20  C   UNL     1       2.066   7.672  18.271  0.00  0.00    +0.000 A 
ATOM     21  N   UNL     1       2.225   8.522  17.245  0.00  0.00    +0.000 NA
ATOM     22  O   UNL     1       2.067   9.788  17.771  0.00  0.00    +0.000 OA
ATOM     23  C   UNL     1       1.803   9.695  19.094  0.00  0.00    +0.000 A 
ATOM     24  C   UNL     1       1.773   8.375  19.475  0.00  0.00    +0.000 A 
ATOM     25  C   UNL     1       1.505   7.830  20.822  0.00  0.00    +0.000 C 
ENDBRANCH  19  20
ENDBRANCH   4  19
TORSDOF 6
ENDMDL
