MODEL 1
REMARK VINA RESULT:      -7.6      0.000      0.000
REMARK  Name = 
REMARK  10 active torsions:
REMARK  status: ('A' for Active; 'I' for Inactive)
REMARK    1  A    between atoms: C_1  and  N_2
REMARK    2  A    between atoms: N_2  and  C_3
REMARK    3  A    between atoms: N_2  and  C_4
REMARK    4  A    between atoms: C_4  and  C_5
REMARK    5  A    between atoms: C_5  and  N_6
REMARK    6  A    between atoms: C_7  and  C_9
REMARK    7  A    between atoms: C_14  and  N_15
REMARK    8  A    between atoms: N_15  and  C_16
REMARK    9  A    between atoms: C_16  and  C_17
REMARK   10  A    between atoms: C_17  and  O_19
REMARK                            x       y       z     vdW  Elec       q    Type
REMARK                         _______ _______ _______ _____ _____    ______ ____
ROOT
ATOM      1  C   UNL     1       1.306   8.253  20.079  0.00  0.00    +0.000 A 
ATOM      2  C   UNL     1       1.522   9.363  19.247  0.00  0.00    +0.000 A 
ATOM      3  C   UNL     1       2.305   9.235  18.112  0.00  0.00    +0.000 A 
ATOM      4  C   UNL     1       2.878   7.995  17.818  0.00  0.00    +0.000 A 
ATOM      5  C   UNL     1       2.710   6.863  18.660  0.00  0.00    +0.000 A 
ATOM      6  C   UNL     1       3.304   5.576  18.396  0.00  0.00    +0.000 A 
ATOM      7  C   UNL     1       3.209   4.548  19.402  0.00  0.00    +0.000 A 
ATOM      8  C   UNL     1       3.874   3.283  19.443  0.00  0.00    +0.000 A 
ATOM      9  C   UNL     1       3.677   2.352  20.466  0.00  0.00    +0.000 A 
ATOM     10  C   UNL     1       2.824   2.659  21.506  0.00  0.00    +0.000 A 
ATOM     11  C   UNL     1       2.195   3.898  21.513  0.00  0.00    +0.000 A 
ATOM     12  C   UNL     1       2.379   4.832  20.501  0.00  0.00    +0.000 A 
ATOM     13  N   UNL     1       1.742   5.990  20.666  0.00  0.00    +0.000 NA
ATOM     14  C   UNL     1       1.910   7.012  19.815  0.00  0.00    +0.000 A 
ENDROOT
BRANCH   1  16
ATOM     15  N   UNL     1       0.780   9.363  22.200  0.00  0.00    +0.000 N 
ATOM     16  C   UNL     1       0.378   8.470  21.235  0.00  0.00    +0.000 C 
ATOM     17  O   UNL     1      -0.662   7.823  21.322  0.00  0.00    +0.000 OA
ATOM     18  H   UNL     1       1.489  10.048  21.935  0.00  0.00    +0.000 HD
BRANCH  15  19
ATOM     19  C   UNL     1      -0.034   9.659  23.360  0.00  0.00    +0.000 C 
BRANCH  19  20
ATOM     20  C   UNL     1      -1.090  10.744  23.072  0.00  0.00    +0.000 C 
BRANCH  20  22
ATOM     21  C   UNL     1      -0.396  12.301  21.331  0.00  0.00    +0.000 C 
ATOM     22  N   UNL     1      -0.534  12.084  22.774  0.00  0.00    +0.000 NA
ATOM     23  C   UNL     1      -1.396  13.121  23.348  0.00  0.00    +0.000 C 
ENDBRANCH  20  22
ENDBRANCH  19  20
ENDBRANCH  15  19
ENDBRANCH   1  16
BRANCH   6  24
ATOM     24  N   UNL     1       4.067   5.465  17.187  0.00  0.00    +0.000 N 
ATOM     25  H   UNL     1       3.597   6.053  16.490  0.00  0.00    +0.000 HD
BRANCH  24  26
ATOM     26  C   UNL     1       5.517   5.784  17.200  0.00  0.00    +0.000 C 
BRANCH  26  27
ATOM     27  C   UNL     1       6.350   4.576  16.768  0.00  0.00    +0.000 C 
ATOM     28  O   UNL     1       7.571   4.541  16.762  0.00  0.00    +0.000 OA
BRANCH  27  29
ATOM     29  O   UNL     1       5.568   3.523  16.422  0.00  0.00    +0.000 OA
ATOM     30  H   UNL     1       6.166   2.811  16.102  0.00  0.00    +0.000 HD
ENDBRANCH  27  29
ENDBRANCH  26  27
ENDBRANCH  24  26
ENDBRANCH   6  24
TORSDOF 8
ENDMDL
MODEL 2
REMARK VINA RESULT:      -7.1      2.472      4.257
REMARK  Name = 
REMARK  10 active torsions:
REMARK  status: ('A' for Active; 'I' for Inactive)
REMARK    1  A    between atoms: C_1  and  N_2
REMARK    2  A    between atoms: N_2  and  C_3
REMARK    3  A    between atoms: N_2  and  C_4
REMARK    4  A    between atoms: C_4  and  C_5
REMARK    5  A    between atoms: C_5  and  N_6
REMARK    6  A    between atoms: C_7  and  C_9
REMARK    7  A    between atoms: C_14  and  N_15
REMARK    8  A    between atoms: N_15  and  C_16
REMARK    9  A    between atoms: C_16  and  C_17
REMARK   10  A    between atoms: C_17  and  O_19
REMARK                            x       y       z     vdW  Elec       q    Type
REMARK                         _______ _______ _______ _____ _____    ______ ____
ROOT
ATOM      1  C   UNL     1       2.365   7.207  19.047  0.00  0.00    +0.000 A 
ATOM      2  C   UNL     1       1.674   6.882  20.225  0.00  0.00    +0.000 A 
ATOM      3  C   UNL     1       1.986   5.721  20.914  0.00  0.00    +0.000 A 
ATOM      4  C   UNL     1       2.985   4.883  20.414  0.00  0.00    +0.000 A 
ATOM      5  C   UNL     1       3.677   5.164  19.205  0.00  0.00    +0.000 A 
ATOM      6  C   UNL     1       4.698   4.310  18.652  0.00  0.00    +0.000 A 
ATOM      7  C   UNL     1       5.210   4.602  17.337  0.00  0.00    +0.000 A 
ATOM      8  C   UNL     1       6.069   3.800  16.521  0.00  0.00    +0.000 A 
ATOM      9  C   UNL     1       6.525   4.209  15.266  0.00  0.00    +0.000 A 
ATOM     10  C   UNL     1       6.119   5.427  14.761  0.00  0.00    +0.000 A 
ATOM     11  C   UNL     1       5.252   6.209  15.515  0.00  0.00    +0.000 A 
ATOM     12  C   UNL     1       4.794   5.818  16.766  0.00  0.00    +0.000 A 
ATOM     13  N   UNL     1       3.937   6.652  17.351  0.00  0.00    +0.000 NA
ATOM     14  C   UNL     1       3.343   6.350  18.514  0.00  0.00    +0.000 A 
ENDROOT
BRANCH   1  16
ATOM     15  N   UNL     1       1.206   9.364  19.147  0.00  0.00    +0.000 N 
ATOM     16  C   UNL     1       2.014   8.521  18.421  0.00  0.00    +0.000 C 
ATOM     17  O   UNL     1       2.397   8.785  17.284  0.00  0.00    +0.000 OA
ATOM     18  H   UNL     1       1.161   9.212  20.156  0.00  0.00    +0.000 HD
BRANCH  15  19
ATOM     19  C   UNL     1       0.805  10.662  18.649  0.00  0.00    +0.000 C 
BRANCH  19  20
ATOM     20  C   UNL     1      -0.727  10.826  18.607  0.00  0.00    +0.000 C 
BRANCH  20  22
ATOM     21  C   UNL     1      -0.389  12.416  20.422  0.00  0.00    +0.000 C 
ATOM     22  N   UNL     1      -1.314  11.457  19.812  0.00  0.00    +0.000 NA
ATOM     23  C   UNL     1      -2.565  12.135  19.460  0.00  0.00    +0.000 C 
ENDBRANCH  20  22
ENDBRANCH  19  20
ENDBRANCH  15  19
ENDBRANCH   1  16
BRANCH   6  24
ATOM     24  N   UNL     1       5.031   3.142  19.416  0.00  0.00    +0.000 N 
ATOM     25  H   UNL     1       5.389   3.476  20.318  0.00  0.00    +0.000 HD
BRANCH  24  26
ATOM     26  C   UNL     1       4.002   2.099  19.653  0.00  0.00    +0.000 C 
BRANCH  26  27
ATOM     27  C   UNL     1       3.462   1.549  18.331  0.00  0.00    +0.000 C 
ATOM     28  O   UNL     1       2.479   1.983  17.749  0.00  0.00    +0.000 OA
BRANCH  27  29
ATOM     29  O   UNL     1       4.228   0.536  17.856  0.00  0.00    +0.000 OA
ATOM     30  H   UNL     1       5.122   0.639  18.252  0.00  0.00    +0.000 HD
ENDBRANCH  27  29
ENDBRANCH  26  27
ENDBRANCH  24  26
ENDBRANCH   6  24
TORSDOF 8
ENDMDL
MODEL 3
REMARK VINA RESULT:      -7.1      2.801      7.139
REMARK  Name = 
REMARK  10 active torsions:
REMARK  status: ('A' for Active; 'I' for Inactive)
REMARK    1  A    between atoms: C_1  and  N_2
REMARK    2  A    between atoms: N_2  and  C_3
REMARK    3  A    between atoms: N_2  and  C_4
REMARK    4  A    between atoms: C_4  and  C_5
REMARK    5  A    between atoms: C_5  and  N_6
REMARK    6  A    between atoms: C_7  and  C_9
REMARK    7  A    between atoms: C_14  and  N_15
REMARK    8  A    between atoms: N_15  and  C_16
REMARK    9  A    between atoms: C_16  and  C_17
REMARK   10  A    between atoms: C_17  and  O_19
REMARK                            x       y       z     vdW  Elec       q    Type
REMARK                         _______ _______ _______ _____ _____    ______ ____
ROOT
ATOM      1  C   UNL     1       2.527   6.945  19.219  0.00  0.00    +0.000 A 
ATOM      2  C   UNL     1       2.942   6.910  17.878  0.00  0.00    +0.000 A 
ATOM      3  C   UNL     1       2.708   7.998  17.053  0.00  0.00    +0.000 A 
ATOM      4  C   UNL     1       2.052   9.115  17.572  0.00  0.00    +0.000 A 
ATOM      5  C   UNL     1       1.586   9.168  18.913  0.00  0.00    +0.000 A 
ATOM      6  C   UNL     1       0.887  10.297  19.473  0.00  0.00    +0.000 A 
ATOM      7  C   UNL     1       0.311  10.175  20.788  0.00  0.00    +0.000 A 
ATOM      8  C   UNL     1      -0.575  11.077  21.456  0.00  0.00    +0.000 A 
ATOM      9  C   UNL     1      -1.046  10.861  22.754  0.00  0.00    +0.000 A 
ATOM     10  C   UNL     1      -0.671   9.717  23.428  0.00  0.00    +0.000 A 
ATOM     11  C   UNL     1       0.156   8.802  22.789  0.00  0.00    +0.000 A 
ATOM     12  C   UNL     1       0.636   9.007  21.501  0.00  0.00    +0.000 A 
ATOM     13  N   UNL     1       1.385   8.024  21.005  0.00  0.00    +0.000 NA
ATOM     14  C   UNL     1       1.830   8.048  19.740  0.00  0.00    +0.000 A 
ENDROOT
BRANCH   1  16
ATOM     15  N   UNL     1       1.881   5.128  20.732  0.00  0.00    +0.000 N 
ATOM     16  C   UNL     1       2.898   5.757  20.052  0.00  0.00    +0.000 C 
ATOM     17  O   UNL     1       4.073   5.416  20.152  0.00  0.00    +0.000 OA
ATOM     18  H   UNL     1       0.930   5.280  20.393  0.00  0.00    +0.000 HD
BRANCH  15  19
ATOM     19  C   UNL     1       2.117   3.967  21.563  0.00  0.00    +0.000 C 
BRANCH  19  20
ATOM     20  C   UNL     1       1.806   2.649  20.829  0.00  0.00    +0.000 C 
BRANCH  20  22
ATOM     21  C   UNL     1       3.093   1.898  18.900  0.00  0.00    +0.000 C 
ATOM     22  N   UNL     1       1.962   2.710  19.356  0.00  0.00    +0.000 NA
ATOM     23  C   UNL     1       0.732   2.250  18.705  0.00  0.00    +0.000 C 
ENDBRANCH  20  22
ENDBRANCH  19  20
ENDBRANCH  15  19
ENDBRANCH   1  16
BRANCH   6  24
ATOM     24  N   UNL     1       0.707  11.426  18.606  0.00  0.00    +0.000 N 
ATOM     25  H   UNL     1      -0.289  11.449  18.360  0.00  0.00    +0.000 HD
BRANCH  24  26
ATOM     26  C   UNL     1       1.134  12.775  19.055  0.00  0.00    +0.000 C 
BRANCH  26  27
ATOM     27  C   UNL     1       2.510  13.132  18.490  0.00  0.00    +0.000 C 
ATOM     28  O   UNL     1       3.317  13.866  19.041  0.00  0.00    +0.000 OA
BRANCH  27  29
ATOM     29  O   UNL     1       2.749  12.506  17.311  0.00  0.00    +0.000 OA
ATOM     30  H   UNL     1       3.721  12.523  17.165  0.00  0.00    +0.000 HD
ENDBRANCH  27  29
ENDBRANCH  26  27
ENDBRANCH  24  26
ENDBRANCH   6  24
TORSDOF 8
ENDMDL
MODEL 4
REMARK VINA RESULT:      -7.0      2.429      4.383
REMARK  Name = 
REMARK  10 active torsions:
REMARK  status: ('A' for Active; 'I' for Inactive)
REMARK    1  A    between atoms: C_1  and  N_2
REMARK    2  A    between atoms: N_2  and  C_3
REMARK    3  A    between atoms: N_2  and  C_4
REMARK    4  A    between atoms: C_4  and  C_5
REMARK    5  A    between atoms: C_5  and  N_6
REMARK    6  A    between atoms: C_7  and  C_9
REMARK    7  A    between atoms: C_14  and  N_15
REMARK    8  A    between atoms: N_15  and  C_16
REMARK    9  A    between atoms: C_16  and  C_17
REMARK   10  A    between atoms: C_17  and  O_19
REMARK                            x       y       z     vdW  Elec       q    Type
REMARK                         _______ _______ _______ _____ _____    ______ ____
ROOT
ATOM      1  C   UNL     1       2.218   6.595  19.884  0.00  0.00    +0.000 A 
ATOM      2  C   UNL     1       1.540   5.971  20.944  0.00  0.00    +0.000 A 
ATOM      3  C   UNL     1       1.820   4.653  21.264  0.00  0.00    +0.000 A 
ATOM      4  C   UNL     1       2.773   3.960  20.515  0.00  0.00    +0.000 A 
ATOM      5  C   UNL     1       3.449   4.550  19.413  0.00  0.00    +0.000 A 
ATOM      6  C   UNL     1       4.422   3.856  18.608  0.00  0.00    +0.000 A 
ATOM      7  C   UNL     1       4.917   4.492  17.414  0.00  0.00    +0.000 A 
ATOM      8  C   UNL     1       5.724   3.929  16.377  0.00  0.00    +0.000 A 
ATOM      9  C   UNL     1       6.169   4.662  15.274  0.00  0.00    +0.000 A 
ATOM     10  C   UNL     1       5.803   5.986  15.149  0.00  0.00    +0.000 A 
ATOM     11  C   UNL     1       4.985   6.550  16.122  0.00  0.00    +0.000 A 
ATOM     12  C   UNL     1       4.539   5.834  17.225  0.00  0.00    +0.000 A 
ATOM     13  N   UNL     1       3.729   6.495  18.050  0.00  0.00    +0.000 NA
ATOM     14  C   UNL     1       3.149   5.894  19.099  0.00  0.00    +0.000 A 
ENDROOT
BRANCH   1  16
ATOM     15  N   UNL     1       1.802   8.474  18.366  0.00  0.00    +0.000 N 
ATOM     16  C   UNL     1       1.908   8.044  19.668  0.00  0.00    +0.000 C 
ATOM     17  O   UNL     1       1.814   8.805  20.628  0.00  0.00    +0.000 OA
ATOM     18  H   UNL     1       1.615   7.765  17.655  0.00  0.00    +0.000 HD
BRANCH  15  19
ATOM     19  C   UNL     1       1.499   9.849  18.034  0.00  0.00    +0.000 C 
BRANCH  19  20
ATOM     20  C   UNL     1       0.003  10.177  18.205  0.00  0.00    +0.000 C 
BRANCH  20  22
ATOM     21  C   UNL     1      -1.182  12.307  18.234  0.00  0.00    +0.000 C 
ATOM     22  N   UNL     1      -0.275  11.418  18.966  0.00  0.00    +0.000 NA
ATOM     23  C   UNL     1      -0.856  11.084  20.269  0.00  0.00    +0.000 C 
ENDBRANCH  20  22
ENDBRANCH  19  20
ENDBRANCH  15  19
ENDBRANCH   1  16
BRANCH   6  24
ATOM     24  N   UNL     1       4.724   2.508  18.999  0.00  0.00    +0.000 N 
ATOM     25  H   UNL     1       4.577   2.458  20.012  0.00  0.00    +0.000 HD
BRANCH  24  26
ATOM     26  C   UNL     1       4.021   1.377  18.343  0.00  0.00    +0.000 C 
BRANCH  26  27
ATOM     27  C   UNL     1       2.592   1.766  17.959  0.00  0.00    +0.000 C 
ATOM     28  O   UNL     1       2.288   2.378  16.946  0.00  0.00    +0.000 OA
BRANCH  27  29
ATOM     29  O   UNL     1       1.687   1.317  18.864  0.00  0.00    +0.000 OA
ATOM     30  H   UNL     1       0.814   1.689  18.609  0.00  0.00    +0.000 HD
ENDBRANCH  27  29
ENDBRANCH  26  27
ENDBRANCH  24  26
ENDBRANCH   6  24
TORSDOF 8
ENDMDL
MODEL 5
REMARK VINA RESULT:      -7.0      2.793      4.424
REMARK  Name = 
REMARK  10 active torsions:
REMARK  status: ('A' for Active; 'I' for Inactive)
REMARK    1  A    between atoms: C_1  and  N_2
REMARK    2  A    between atoms: N_2  and  C_3
REMARK    3  A    between atoms: N_2  and  C_4
REMARK    4  A    between atoms: C_4  and  C_5
REMARK    5  A    between atoms: C_5  and  N_6
REMARK    6  A    between atoms: C_7  and  C_9
REMARK    7  A    between atoms: C_14  and  N_15
REMARK    8  A    between atoms: N_15  and  C_16
REMARK    9  A    between atoms: C_16  and  C_17
REMARK   10  A    between atoms: C_17  and  O_19
REMARK                            x       y       z     vdW  Elec       q    Type
REMARK                         _______ _______ _______ _____ _____    ______ ____
ROOT
ATOM      1  C   UNL     1       2.325   7.312  19.074  0.00  0.00    +0.000 A 
ATOM      2  C   UNL     1       1.598   7.014  20.237  0.00  0.00    +0.000 A 
ATOM      3  C   UNL     1       1.814   5.816  20.900  0.00  0.00    +0.000 A 
ATOM      4  C   UNL     1       2.752   4.917  20.389  0.00  0.00    +0.000 A 
ATOM      5  C   UNL     1       3.476   5.172  19.193  0.00  0.00    +0.000 A 
ATOM      6  C   UNL     1       4.435   4.256  18.629  0.00  0.00    +0.000 A 
ATOM      7  C   UNL     1       4.982   4.539  17.326  0.00  0.00    +0.000 A 
ATOM      8  C   UNL     1       5.786   3.694  16.498  0.00  0.00    +0.000 A 
ATOM      9  C   UNL     1       6.285   4.096  15.257  0.00  0.00    +0.000 A 
ATOM     10  C   UNL     1       5.979   5.353  14.779  0.00  0.00    +0.000 A 
ATOM     11  C   UNL     1       5.166   6.181  15.543  0.00  0.00    +0.000 A 
ATOM     12  C   UNL     1       4.666   5.797  16.781  0.00  0.00    +0.000 A 
ATOM     13  N   UNL     1       3.868   6.680  17.378  0.00  0.00    +0.000 NA
ATOM     14  C   UNL     1       3.241   6.397  18.529  0.00  0.00    +0.000 A 
ENDROOT
BRANCH   1  16
ATOM     15  N   UNL     1       1.240   9.508  19.162  0.00  0.00    +0.000 N 
ATOM     16  C   UNL     1       2.082   8.664  18.476  0.00  0.00    +0.000 C 
ATOM     17  O   UNL     1       2.578   8.958  17.393  0.00  0.00    +0.000 OA
ATOM     18  H   UNL     1       1.095   9.318  20.155  0.00  0.00    +0.000 HD
BRANCH  15  19
ATOM     19  C   UNL     1       0.934  10.840  18.686  0.00  0.00    +0.000 C 
BRANCH  19  20
ATOM     20  C   UNL     1       1.072  11.903  19.793  0.00  0.00    +0.000 C 
BRANCH  20  22
ATOM     21  C   UNL     1       2.589  12.998  18.232  0.00  0.00    +0.000 C 
ATOM     22  N   UNL     1       2.236  12.807  19.641  0.00  0.00    +0.000 NA
ATOM     23  C   UNL     1       1.944  14.105  20.256  0.00  0.00    +0.000 C 
ENDBRANCH  20  22
ENDBRANCH  19  20
ENDBRANCH  15  19
ENDBRANCH   1  16
BRANCH   6  24
ATOM     24  N   UNL     1       4.670   3.049  19.367  0.00  0.00    +0.000 N 
ATOM     25  H   UNL     1       4.331   3.219  20.320  0.00  0.00    +0.000 HD
BRANCH  24  26
ATOM     26  C   UNL     1       4.118   1.763  18.872  0.00  0.00    +0.000 C 
BRANCH  26  27
ATOM     27  C   UNL     1       2.597   1.840  18.720  0.00  0.00    +0.000 C 
ATOM     28  O   UNL     1       1.808   1.885  19.652  0.00  0.00    +0.000 OA
BRANCH  27  29
ATOM     29  O   UNL     1       2.223   1.887  17.418  0.00  0.00    +0.000 OA
ATOM     30  H   UNL     1       2.868   1.347  16.910  0.00  0.00    +0.000 HD
ENDBRANCH  27  29
ENDBRANCH  26  27
ENDBRANCH  24  26
ENDBRANCH   6  24
TORSDOF 8
ENDMDL
MODEL 6
REMARK VINA RESULT:      -7.0      2.685      7.487
REMARK  Name = 
REMARK  10 active torsions:
REMARK  status: ('A' for Active; 'I' for Inactive)
REMARK    1  A    between atoms: C_1  and  N_2
REMARK    2  A    between atoms: N_2  and  C_3
REMARK    3  A    between atoms: N_2  and  C_4
REMARK    4  A    between atoms: C_4  and  C_5
REMARK    5  A    between atoms: C_5  and  N_6
REMARK    6  A    between atoms: C_7  and  C_9
REMARK    7  A    between atoms: C_14  and  N_15
REMARK    8  A    between atoms: N_15  and  C_16
REMARK    9  A    between atoms: C_16  and  C_17
REMARK   10  A    between atoms: C_17  and  O_19
REMARK                            x       y       z     vdW  Elec       q    Type
REMARK                         _______ _______ _______ _____ _____    ______ ____
ROOT
ATOM      1  C   UNL     1       2.596   6.823  19.201  0.00  0.00    +0.000 A 
ATOM      2  C   UNL     1       3.041   6.741  17.872  0.00  0.00    +0.000 A 
ATOM      3  C   UNL     1       2.847   7.809  17.010  0.00  0.00    +0.000 A 
ATOM      4  C   UNL     1       2.200   8.953  17.482  0.00  0.00    +0.000 A 
ATOM      5  C   UNL     1       1.705   9.052  18.810  0.00  0.00    +0.000 A 
ATOM      6  C   UNL     1       1.015  10.210  19.321  0.00  0.00    +0.000 A 
ATOM      7  C   UNL     1       0.406  10.137  20.625  0.00  0.00    +0.000 A 
ATOM      8  C   UNL     1      -0.477  11.074  21.246  0.00  0.00    +0.000 A 
ATOM      9  C   UNL     1      -0.982  10.904  22.537  0.00  0.00    +0.000 A 
ATOM     10  C   UNL     1      -0.645   9.774  23.253  0.00  0.00    +0.000 A 
ATOM     11  C   UNL     1       0.179   8.826  22.659  0.00  0.00    +0.000 A 
ATOM     12  C   UNL     1       0.692   8.984  21.378  0.00  0.00    +0.000 A 
ATOM     13  N   UNL     1       1.434   7.974  20.928  0.00  0.00    +0.000 NA
ATOM     14  C   UNL     1       1.908   7.953  19.674  0.00  0.00    +0.000 A 
ENDROOT
BRANCH   1  16
ATOM     15  N   UNL     1       1.874   5.032  20.711  0.00  0.00    +0.000 N 
ATOM     16  C   UNL     1       2.924   5.653  20.076  0.00  0.00    +0.000 C 
ATOM     17  O   UNL     1       4.094   5.319  20.248  0.00  0.00    +0.000 OA
ATOM     18  H   UNL     1       0.943   5.172  20.317  0.00  0.00    +0.000 HD
BRANCH  15  19
ATOM     19  C   UNL     1       2.067   3.888  21.576  0.00  0.00    +0.000 C 
BRANCH  19  20
ATOM     20  C   UNL     1       1.955   2.553  20.815  0.00  0.00    +0.000 C 
BRANCH  20  22
ATOM     21  C   UNL     1       3.102   1.863  18.778  0.00  0.00    +0.000 C 
ATOM     22  N   UNL     1       2.019   2.674  19.340  0.00  0.00    +0.000 NA
ATOM     23  C   UNL     1       0.741   2.265  18.750  0.00  0.00    +0.000 C 
ENDBRANCH  20  22
ENDBRANCH  19  20
ENDBRANCH  15  19
ENDBRANCH   1  16
BRANCH   6  24
ATOM     24  N   UNL     1       0.877  11.316  18.417  0.00  0.00    +0.000 N 
ATOM     25  H   UNL     1      -0.052  11.230  17.990  0.00  0.00    +0.000 HD
BRANCH  24  26
ATOM     26  C   UNL     1       1.061  12.702  18.917  0.00  0.00    +0.000 C 
BRANCH  26  27
ATOM     27  C   UNL     1      -0.136  13.582  18.552  0.00  0.00    +0.000 C 
ATOM     28  O   UNL     1      -0.374  14.672  19.050  0.00  0.00    +0.000 OA
BRANCH  27  29
ATOM     29  O   UNL     1      -0.893  13.023  17.576  0.00  0.00    +0.000 OA
ATOM     30  H   UNL     1      -1.673  12.614  18.012  0.00  0.00    +0.000 HD
ENDBRANCH  27  29
ENDBRANCH  26  27
ENDBRANCH  24  26
ENDBRANCH   6  24
TORSDOF 8
ENDMDL
MODEL 7
REMARK VINA RESULT:      -6.9      2.785      4.492
REMARK  Name = 
REMARK  10 active torsions:
REMARK  status: ('A' for Active; 'I' for Inactive)
REMARK    1  A    between atoms: C_1  and  N_2
REMARK    2  A    between atoms: N_2  and  C_3
REMARK    3  A    between atoms: N_2  and  C_4
REMARK    4  A    between atoms: C_4  and  C_5
REMARK    5  A    between atoms: C_5  and  N_6
REMARK    6  A    between atoms: C_7  and  C_9
REMARK    7  A    between atoms: C_14  and  N_15
REMARK    8  A    between atoms: N_15  and  C_16
REMARK    9  A    between atoms: C_16  and  C_17
REMARK   10  A    between atoms: C_17  and  O_19
REMARK                            x       y       z     vdW  Elec       q    Type
REMARK                         _______ _______ _______ _____ _____    ______ ____
ROOT
ATOM      1  C   UNL     1       2.322   7.096  19.189  0.00  0.00    +0.000 A 
ATOM      2  C   UNL     1       1.612   6.739  20.346  0.00  0.00    +0.000 A 
ATOM      3  C   UNL     1       1.849   5.517  20.955  0.00  0.00    +0.000 A 
ATOM      4  C   UNL     1       2.793   4.653  20.396  0.00  0.00    +0.000 A 
ATOM      5  C   UNL     1       3.501   4.968  19.205  0.00  0.00    +0.000 A 
ATOM      6  C   UNL     1       4.465   4.090  18.592  0.00  0.00    +0.000 A 
ATOM      7  C   UNL     1       4.995   4.435  17.297  0.00  0.00    +0.000 A 
ATOM      8  C   UNL     1       5.801   3.637  16.426  0.00  0.00    +0.000 A 
ATOM      9  C   UNL     1       6.282   4.098  15.199  0.00  0.00    +0.000 A 
ATOM     10  C   UNL     1       5.954   5.370  14.778  0.00  0.00    +0.000 A 
ATOM     11  C   UNL     1       5.139   6.154  15.585  0.00  0.00    +0.000 A 
ATOM     12  C   UNL     1       4.657   5.710  16.810  0.00  0.00    +0.000 A 
ATOM     13  N   UNL     1       3.855   6.557  17.453  0.00  0.00    +0.000 NA
ATOM     14  C   UNL     1       3.244   6.217  18.597  0.00  0.00    +0.000 A 
ENDROOT
BRANCH   1  16
ATOM     15  N   UNL     1       1.449   9.365  19.502  0.00  0.00    +0.000 N 
ATOM     16  C   UNL     1       2.056   8.469  18.653  0.00  0.00    +0.000 C 
ATOM     17  O   UNL     1       2.324   8.738  17.485  0.00  0.00    +0.000 OA
ATOM     18  H   UNL     1       1.512   9.174  20.503  0.00  0.00    +0.000 HD
BRANCH  15  19
ATOM     19  C   UNL     1       1.147  10.722  19.099  0.00  0.00    +0.000 C 
BRANCH  19  20
ATOM     20  C   UNL     1      -0.351  11.053  19.236  0.00  0.00    +0.000 C 
BRANCH  20  22
ATOM     21  C   UNL     1      -2.096   9.809  18.075  0.00  0.00    +0.000 C 
ATOM     22  N   UNL     1      -1.133  10.910  17.985  0.00  0.00    +0.000 NA
ATOM     23  C   UNL     1      -1.840  12.160  17.693  0.00  0.00    +0.000 C 
ENDBRANCH  20  22
ENDBRANCH  19  20
ENDBRANCH  15  19
ENDBRANCH   1  16
BRANCH   6  24
ATOM     24  N   UNL     1       4.724   2.855  19.276  0.00  0.00    +0.000 N 
ATOM     25  H   UNL     1       4.434   2.994  20.250  0.00  0.00    +0.000 HD
BRANCH  24  26
ATOM     26  C   UNL     1       4.134   1.593  18.764  0.00  0.00    +0.000 C 
BRANCH  26  27
ATOM     27  C   UNL     1       2.618   1.719  18.605  0.00  0.00    +0.000 C 
ATOM     28  O   UNL     1       1.818   1.694  19.528  0.00  0.00    +0.000 OA
BRANCH  27  29
ATOM     29  O   UNL     1       2.260   1.899  17.309  0.00  0.00    +0.000 OA
ATOM     30  H   UNL     1       2.968   2.433  16.885  0.00  0.00    +0.000 HD
ENDBRANCH  27  29
ENDBRANCH  26  27
ENDBRANCH  24  26
ENDBRANCH   6  24
TORSDOF 8
ENDMDL
MODEL 8
REMARK VINA RESULT:      -6.9      2.732      4.364
REMARK  Name = 
REMARK  10 active torsions:
REMARK  status: ('A' for Active; 'I' for Inactive)
REMARK    1  A    between atoms: C_1  and  N_2
REMARK    2  A    between atoms: N_2  and  C_3
REMARK    3  A    between atoms: N_2  and  C_4
REMARK    4  A    between atoms: C_4  and  C_5
REMARK    5  A    between atoms: C_5  and  N_6
REMARK    6  A    between atoms: C_7  and  C_9
REMARK    7  A    between atoms: C_14  and  N_15
REMARK    8  A    between atoms: N_15  and  C_16
REMARK    9  A    between atoms: C_16  and  C_17
REMARK   10  A    between atoms: C_17  and  O_19
REMARK                            x       y       z     vdW  Elec       q    Type
REMARK                         _______ _______ _______ _____ _____    ______ ____
ROOT
ATOM      1  C   UNL     1       1.796   8.609  19.213  0.00  0.00    +0.000 A 
ATOM      2  C   UNL     1       0.923   8.540  20.310  0.00  0.00    +0.000 A 
ATOM      3  C   UNL     1       0.873   7.390  21.082  0.00  0.00    +0.000 A 
ATOM      4  C   UNL     1       1.691   6.310  20.746  0.00  0.00    +0.000 A 
ATOM      5  C   UNL     1       2.557   6.335  19.620  0.00  0.00    +0.000 A 
ATOM      6  C   UNL     1       3.399   5.231  19.234  0.00  0.00    +0.000 A 
ATOM      7  C   UNL     1       4.106   5.300  17.980  0.00  0.00    +0.000 A 
ATOM      8  C   UNL     1       4.832   4.266  17.312  0.00  0.00    +0.000 A 
ATOM      9  C   UNL     1       5.506   4.466  16.105  0.00  0.00    +0.000 A 
ATOM     10  C   UNL     1       5.460   5.706  15.501  0.00  0.00    +0.000 A 
ATOM     11  C   UNL     1       4.728   6.720  16.108  0.00  0.00    +0.000 A 
ATOM     12  C   UNL     1       4.057   6.536  17.310  0.00  0.00    +0.000 A 
ATOM     13  N   UNL     1       3.365   7.586  17.747  0.00  0.00    +0.000 NA
ATOM     14  C   UNL     1       2.594   7.514  18.842  0.00  0.00    +0.000 A 
ENDROOT
BRANCH   1  16
ATOM     15  N   UNL     1       1.398  11.028  19.178  0.00  0.00    +0.000 N 
ATOM     16  C   UNL     1       1.839   9.921  18.491  0.00  0.00    +0.000 C 
ATOM     17  O   UNL     1       2.203   9.969  17.319  0.00  0.00    +0.000 OA
ATOM     18  H   UNL     1       1.380  10.968  20.197  0.00  0.00    +0.000 HD
BRANCH  15  19
ATOM     19  C   UNL     1       1.398  12.349  18.587  0.00  0.00    +0.000 C 
BRANCH  19  20
ATOM     20  C   UNL     1      -0.024  12.924  18.440  0.00  0.00    +0.000 C 
BRANCH  20  22
ATOM     21  C   UNL     1      -1.936  12.612  19.919  0.00  0.00    +0.000 C 
ATOM     22  N   UNL     1      -1.109  12.010  18.869  0.00  0.00    +0.000 NA
ATOM     23  C   UNL     1      -1.949  11.658  17.721  0.00  0.00    +0.000 C 
ENDBRANCH  20  22
ENDBRANCH  19  20
ENDBRANCH  15  19
ENDBRANCH   1  16
BRANCH   6  24
ATOM     24  N   UNL     1       3.359   4.075  20.084  0.00  0.00    +0.000 N 
ATOM     25  H   UNL     1       2.886   4.364  20.947  0.00  0.00    +0.000 HD
BRANCH  24  26
ATOM     26  C   UNL     1       2.748   2.816  19.587  0.00  0.00    +0.000 C 
BRANCH  26  27
ATOM     27  C   UNL     1       1.330   3.061  19.067  0.00  0.00    +0.000 C 
ATOM     28  O   UNL     1       1.035   3.188  17.888  0.00  0.00    +0.000 OA
BRANCH  27  29
ATOM     29  O   UNL     1       0.422   3.085  20.074  0.00  0.00    +0.000 OA
ATOM     30  H   UNL     1      -0.261   2.410  19.864  0.00  0.00    +0.000 HD
ENDBRANCH  27  29
ENDBRANCH  26  27
ENDBRANCH  24  26
ENDBRANCH   6  24
TORSDOF 8
ENDMDL
MODEL 9
REMARK VINA RESULT:      -6.8      3.315      5.045
REMARK  Name = 
REMARK  10 active torsions:
REMARK  status: ('A' for Active; 'I' for Inactive)
REMARK    1  A    between atoms: C_1  and  N_2
REMARK    2  A    between atoms: N_2  and  C_3
REMARK    3  A    between atoms: N_2  and  C_4
REMARK    4  A    between atoms: C_4  and  C_5
REMARK    5  A    between atoms: C_5  and  N_6
REMARK    6  A    between atoms: C_7  and  C_9
REMARK    7  A    between atoms: C_14  and  N_15
REMARK    8  A    between atoms: N_15  and  C_16
REMARK    9  A    between atoms: C_16  and  C_17
REMARK   10  A    between atoms: C_17  and  O_19
REMARK                            x       y       z     vdW  Elec       q    Type
REMARK                         _______ _______ _______ _____ _____    ______ ____
ROOT
ATOM      1  C   UNL     1       0.904   9.646  19.619  0.00  0.00    +0.000 A 
ATOM      2  C   UNL     1       0.000   9.684  20.693  0.00  0.00    +0.000 A 
ATOM      3  C   UNL     1      -0.065   8.623  21.581  0.00  0.00    +0.000 A 
ATOM      4  C   UNL     1       0.771   7.522  21.386  0.00  0.00    +0.000 A 
ATOM      5  C   UNL     1       1.669   7.435  20.288  0.00  0.00    +0.000 A 
ATOM      6  C   UNL     1       2.529   6.305  20.047  0.00  0.00    +0.000 A 
ATOM      7  C   UNL     1       3.272   6.247  18.814  0.00  0.00    +0.000 A 
ATOM      8  C   UNL     1       4.025   5.155  18.280  0.00  0.00    +0.000 A 
ATOM      9  C   UNL     1       4.733   5.232  17.078  0.00  0.00    +0.000 A 
ATOM     10  C   UNL     1       4.696   6.399  16.345  0.00  0.00    +0.000 A 
ATOM     11  C   UNL     1       3.939   7.465  16.818  0.00  0.00    +0.000 A 
ATOM     12  C   UNL     1       3.234   7.404  18.014  0.00  0.00    +0.000 A 
ATOM     13  N   UNL     1       2.522   8.488  18.317  0.00  0.00    +0.000 NA
ATOM     14  C   UNL     1       1.720   8.525  19.390  0.00  0.00    +0.000 A 
ENDROOT
BRANCH   1  16
ATOM     15  N   UNL     1       2.165  11.529  18.687  0.00  0.00    +0.000 N 
ATOM     16  C   UNL     1       0.959  10.873  18.763  0.00  0.00    +0.000 C 
ATOM     17  O   UNL     1      -0.057  11.286  18.211  0.00  0.00    +0.000 OA
ATOM     18  H   UNL     1       3.002  10.996  18.928  0.00  0.00    +0.000 HD
BRANCH  15  19
ATOM     19  C   UNL     1       2.341  12.722  17.887  0.00  0.00    +0.000 C 
BRANCH  19  20
ATOM     20  C   UNL     1       2.949  13.885  18.695  0.00  0.00    +0.000 C 
BRANCH  20  22
ATOM     21  C   UNL     1       3.111  16.287  18.316  0.00  0.00    +0.000 C 
ATOM     22  N   UNL     1       3.551  14.961  17.874  0.00  0.00    +0.000 NA
ATOM     23  C   UNL     1       5.013  14.880  17.940  0.00  0.00    +0.000 C 
ENDBRANCH  20  22
ENDBRANCH  19  20
ENDBRANCH  15  19
ENDBRANCH   1  16
BRANCH   6  24
ATOM     24  N   UNL     1       2.473   5.246  21.014  0.00  0.00    +0.000 N 
ATOM     25  H   UNL     1       2.105   5.659  21.878  0.00  0.00    +0.000 HD
BRANCH  24  26
ATOM     26  C   UNL     1       1.719   4.005  20.704  0.00  0.00    +0.000 C 
BRANCH  26  27
ATOM     27  C   UNL     1       2.161   2.853  21.608  0.00  0.00    +0.000 C 
ATOM     28  O   UNL     1       3.272   2.344  21.592  0.00  0.00    +0.000 OA
BRANCH  27  29
ATOM     29  O   UNL     1       1.178   2.479  22.464  0.00  0.00    +0.000 OA
ATOM     30  H   UNL     1       0.648   1.785  22.012  0.00  0.00    +0.000 HD
ENDBRANCH  27  29
ENDBRANCH  26  27
ENDBRANCH  24  26
ENDBRANCH   6  24
TORSDOF 8
ENDMDL
