MODEL 1
REMARK VINA RESULT:      -8.6      0.000      0.000
REMARK  Name = 
REMARK  9 active torsions:
REMARK  status: ('A' for Active; 'I' for Inactive)
REMARK    1  A    between atoms: C_1  and  C_2
REMARK    2  A    between atoms: C_2  and  C_3
REMARK    3  A    between atoms: N_5  and  C_6
REMARK    4  A    between atoms: C_9  and  C_10
REMARK    5  A    between atoms: C_10  and  C_11
REMARK    6  A    between atoms: N_12  and  N_13
REMARK    7  A    between atoms: C_14  and  C_16
REMARK    8  A    between atoms: C_17  and  C_18
REMARK    9  A    between atoms: C_27  and  C_28
REMARK                            x       y       z     vdW  Elec       q    Type
REMARK                         _______ _______ _______ _____ _____    ______ ____
ROOT
ATOM      1  N   UNL     1       2.499   6.629  19.207  0.00  0.00    +0.000 N 
ATOM      2  C   UNL     1       2.749   5.362  19.721  0.00  0.00    +0.000 C 
ATOM      3  O   UNL     1       2.534   5.034  20.883  0.00  0.00    +0.000 OA
ATOM      4  H   UNL     1       2.561   6.786  18.212  0.00  0.00    +0.000 HD
ENDROOT
BRANCH   2   5
ATOM      5  C   UNL     1       3.256   4.412  18.742  0.00  0.00    +0.000 A 
ATOM      6  C   UNL     1       4.509   4.428  18.034  0.00  0.00    +0.000 A 
ATOM      7  N   UNL     1       4.588   3.354  17.233  0.00  0.00    +0.000 NA
ATOM      8  O   UNL     1       3.404   2.675  17.347  0.00  0.00    +0.000 OA
ATOM      9  C   UNL     1       2.605   3.293  18.253  0.00  0.00    +0.000 A 
ATOM     10  C   UNL     1       1.284   2.664  18.454  0.00  0.00    +0.000 C 
BRANCH   6  11
ATOM     11  C   UNL     1       5.652   5.345  18.161  0.00  0.00    +0.000 A 
ATOM     12  C   UNL     1       6.560   5.157  19.221  0.00  0.00    +0.000 A 
ATOM     13  C   UNL     1       7.685   5.974  19.374  0.00  0.00    +0.000 A 
ATOM     14  C   UNL     1       7.943   6.981  18.452  0.00  0.00    +0.000 A 
ATOM     15  C   UNL     1       7.066   7.183  17.390  0.00  0.00    +0.000 A 
ATOM     16  C   UNL     1       5.920   6.384  17.247  0.00  0.00    +0.000 A 
ATOM     17 CL   UNL     1       4.876   6.794  15.925  0.00  0.00    +0.000 Cl
ENDBRANCH   6  11
ENDBRANCH   2   5
BRANCH   1  20
ATOM     18  C   UNL     1       1.495   8.682  19.447  0.00  0.00    +0.000 C 
ATOM     19  C   UNL     1       1.555   8.949  17.953  0.00  0.00    +0.000 C 
ATOM     20  N   UNL     1       1.970   7.604  20.002  0.00  0.00    +0.000 NA
BRANCH  18  24
ATOM     21  C   UNL     1      -0.272  11.672  22.016  0.00  0.00    +0.000 A 
ATOM     22  C   UNL     1       0.283  12.027  20.785  0.00  0.00    +0.000 A 
ATOM     23  C   UNL     1       0.851  11.066  19.942  0.00  0.00    +0.000 A 
ATOM     24  C   UNL     1       0.888   9.727  20.330  0.00  0.00    +0.000 A 
ATOM     25  C   UNL     1       0.337   9.361  21.564  0.00  0.00    +0.000 A 
ATOM     26  C   UNL     1      -0.226  10.330  22.410  0.00  0.00    +0.000 A 
BRANCH  21  29
ATOM     27  C   UNL     1      -2.231  12.906  22.929  0.00  0.00    +0.000 C 
ATOM     28  O   UNL     1      -3.110  12.350  22.273  0.00  0.00    +0.000 OA
ATOM     29  N   UNL     1      -0.876  12.610  22.882  0.00  0.00    +0.000 N 
ATOM     30  H   UNL     1      -0.287  13.015  23.601  0.00  0.00    +0.000 HD
BRANCH  27  32
ATOM     31  C   UNL     1      -1.331  14.854  24.225  0.00  0.00    +0.000 C 
ATOM     32  C   UNL     1      -2.565  14.019  23.906  0.00  0.00    +0.000 C 
ENDBRANCH  27  32
ENDBRANCH  21  29
ENDBRANCH  18  24
ENDBRANCH   1  20
TORSDOF 6
ENDMDL
MODEL 2
REMARK VINA RESULT:      -8.4      1.095      1.457
REMARK  Name = 
REMARK  9 active torsions:
REMARK  status: ('A' for Active; 'I' for Inactive)
REMARK    1  A    between atoms: C_1  and  C_2
REMARK    2  A    between atoms: C_2  and  C_3
REMARK    3  A    between atoms: N_5  and  C_6
REMARK    4  A    between atoms: C_9  and  C_10
REMARK    5  A    between atoms: C_10  and  C_11
REMARK    6  A    between atoms: N_12  and  N_13
REMARK    7  A    between atoms: C_14  and  C_16
REMARK    8  A    between atoms: C_17  and  C_18
REMARK    9  A    between atoms: C_27  and  C_28
REMARK                            x       y       z     vdW  Elec       q    Type
REMARK                         _______ _______ _______ _____ _____    ______ ____
ROOT
ATOM      1  N   UNL     1       2.420   6.700  19.029  0.00  0.00    +0.000 N 
ATOM      2  C   UNL     1       2.659   5.489  19.669  0.00  0.00    +0.000 C 
ATOM      3  O   UNL     1       2.432   5.278  20.856  0.00  0.00    +0.000 OA
ATOM      4  H   UNL     1       2.492   6.758  18.024  0.00  0.00    +0.000 HD
ENDROOT
BRANCH   2   5
ATOM      5  C   UNL     1       3.172   4.446  18.794  0.00  0.00    +0.000 A 
ATOM      6  C   UNL     1       4.446   4.371  18.129  0.00  0.00    +0.000 A 
ATOM      7  N   UNL     1       4.523   3.228  17.428  0.00  0.00    +0.000 NA
ATOM      8  O   UNL     1       3.319   2.589  17.563  0.00  0.00    +0.000 OA
ATOM      9  C   UNL     1       2.508   3.302  18.384  0.00  0.00    +0.000 A 
ATOM     10  C   UNL     1       1.167   2.723  18.596  0.00  0.00    +0.000 C 
BRANCH   6  11
ATOM     11  C   UNL     1       5.607   5.270  18.213  0.00  0.00    +0.000 A 
ATOM     12  C   UNL     1       6.541   5.081  19.250  0.00  0.00    +0.000 A 
ATOM     13  C   UNL     1       7.682   5.881  19.362  0.00  0.00    +0.000 A 
ATOM     14  C   UNL     1       7.932   6.871  18.419  0.00  0.00    +0.000 A 
ATOM     15  C   UNL     1       7.031   7.072  17.378  0.00  0.00    +0.000 A 
ATOM     16  C   UNL     1       5.868   6.291  17.277  0.00  0.00    +0.000 A 
ATOM     17 CL   UNL     1       4.795   6.701  15.978  0.00  0.00    +0.000 Cl
ENDBRANCH   6  11
ENDBRANCH   2   5
BRANCH   1  20
ATOM     18  C   UNL     1       1.597   8.845  19.075  0.00  0.00    +0.000 C 
ATOM     19  C   UNL     1       1.879   9.045  17.597  0.00  0.00    +0.000 C 
ATOM     20  N   UNL     1       1.887   7.750  19.718  0.00  0.00    +0.000 NA
BRANCH  18  24
ATOM     21  C   UNL     1      -0.171  12.133  21.249  0.00  0.00    +0.000 A 
ATOM     22  C   UNL     1       0.089  10.916  21.883  0.00  0.00    +0.000 A 
ATOM     23  C   UNL     1       0.668   9.848  21.191  0.00  0.00    +0.000 A 
ATOM     24  C   UNL     1       0.982   9.976  19.838  0.00  0.00    +0.000 A 
ATOM     25  C   UNL     1       0.722  11.192  19.193  0.00  0.00    +0.000 A 
ATOM     26  C   UNL     1       0.135  12.259  19.890  0.00  0.00    +0.000 A 
BRANCH  21  29
ATOM     27  C   UNL     1      -0.018  14.317  22.432  0.00  0.00    +0.000 C 
ATOM     28  O   UNL     1       1.193  14.495  22.318  0.00  0.00    +0.000 OA
ATOM     29  N   UNL     1      -0.731  13.242  21.922  0.00  0.00    +0.000 N 
ATOM     30  H   UNL     1      -1.743  13.308  21.931  0.00  0.00    +0.000 HD
BRANCH  27  32
ATOM     31  C   UNL     1      -1.573  14.656  24.369  0.00  0.00    +0.000 C 
ATOM     32  C   UNL     1      -0.892  15.312  23.176  0.00  0.00    +0.000 C 
ENDBRANCH  27  32
ENDBRANCH  21  29
ENDBRANCH  18  24
ENDBRANCH   1  20
TORSDOF 6
ENDMDL
MODEL 3
REMARK VINA RESULT:      -8.3      2.611      3.193
REMARK  Name = 
REMARK  9 active torsions:
REMARK  status: ('A' for Active; 'I' for Inactive)
REMARK    1  A    between atoms: C_1  and  C_2
REMARK    2  A    between atoms: C_2  and  C_3
REMARK    3  A    between atoms: N_5  and  C_6
REMARK    4  A    between atoms: C_9  and  C_10
REMARK    5  A    between atoms: C_10  and  C_11
REMARK    6  A    between atoms: N_12  and  N_13
REMARK    7  A    between atoms: C_14  and  C_16
REMARK    8  A    between atoms: C_17  and  C_18
REMARK    9  A    between atoms: C_27  and  C_28
REMARK                            x       y       z     vdW  Elec       q    Type
REMARK                         _______ _______ _______ _____ _____    ______ ____
ROOT
ATOM      1  N   UNL     1       2.696   6.702  19.929  0.00  0.00    +0.000 N 
ATOM      2  C   UNL     1       2.589   5.671  19.004  0.00  0.00    +0.000 C 
ATOM      3  O   UNL     1       2.039   5.777  17.913  0.00  0.00    +0.000 OA
ATOM      4  H   UNL     1       3.287   6.588  20.740  0.00  0.00    +0.000 HD
ENDROOT
BRANCH   2   5
ATOM      5  C   UNL     1       3.234   4.433  19.416  0.00  0.00    +0.000 A 
ATOM      6  C   UNL     1       4.387   3.785  18.849  0.00  0.00    +0.000 A 
ATOM      7  N   UNL     1       4.663   2.668  19.541  0.00  0.00    +0.000 NA
ATOM      8  O   UNL     1       3.691   2.535  20.498  0.00  0.00    +0.000 OA
ATOM      9  C   UNL     1       2.838   3.588  20.438  0.00  0.00    +0.000 A 
ATOM     10  C   UNL     1       1.730   3.551  21.412  0.00  0.00    +0.000 C 
BRANCH   6  11
ATOM     11  C   UNL     1       5.280   4.226  17.766  0.00  0.00    +0.000 A 
ATOM     12  C   UNL     1       4.971   3.865  16.440  0.00  0.00    +0.000 A 
ATOM     13  C   UNL     1       5.761   4.284  15.365  0.00  0.00    +0.000 A 
ATOM     14  C   UNL     1       6.864   5.099  15.589  0.00  0.00    +0.000 A 
ATOM     15  C   UNL     1       7.185   5.480  16.889  0.00  0.00    +0.000 A 
ATOM     16  C   UNL     1       6.412   5.039  17.975  0.00  0.00    +0.000 A 
ATOM     17 CL   UNL     1       6.971   5.523  19.544  0.00  0.00    +0.000 Cl
ENDBRANCH   6  11
ENDBRANCH   2   5
BRANCH   1  20
ATOM     18  C   UNL     1       1.311   8.456  20.465  0.00  0.00    +0.000 C 
ATOM     19  C   UNL     1       0.777   7.734  21.690  0.00  0.00    +0.000 C 
ATOM     20  N   UNL     1       2.183   7.936  19.650  0.00  0.00    +0.000 NA
BRANCH  18  24
ATOM     21  C   UNL     1      -0.217  12.410  19.631  0.00  0.00    +0.000 A 
ATOM     22  C   UNL     1      -0.064  11.473  18.606  0.00  0.00    +0.000 A 
ATOM     23  C   UNL     1       0.421  10.187  18.867  0.00  0.00    +0.000 A 
ATOM     24  C   UNL     1       0.783   9.823  20.163  0.00  0.00    +0.000 A 
ATOM     25  C   UNL     1       0.636  10.757  21.197  0.00  0.00    +0.000 A 
ATOM     26  C   UNL     1       0.154  12.048  20.930  0.00  0.00    +0.000 A 
BRANCH  21  29
ATOM     27  C   UNL     1       0.023  14.815  19.040  0.00  0.00    +0.000 C 
ATOM     28  O   UNL     1       1.226  14.814  18.787  0.00  0.00    +0.000 OA
ATOM     29  N   UNL     1      -0.728  13.708  19.410  0.00  0.00    +0.000 N 
ATOM     30  H   UNL     1      -1.736  13.810  19.413  0.00  0.00    +0.000 HD
BRANCH  27  32
ATOM     31  C   UNL     1      -0.128  17.114  18.053  0.00  0.00    +0.000 C 
ATOM     32  C   UNL     1      -0.797  16.091  18.960  0.00  0.00    +0.000 C 
ENDBRANCH  27  32
ENDBRANCH  21  29
ENDBRANCH  18  24
ENDBRANCH   1  20
TORSDOF 6
ENDMDL
MODEL 4
REMARK VINA RESULT:      -8.0      2.533      2.975
REMARK  Name = 
REMARK  9 active torsions:
REMARK  status: ('A' for Active; 'I' for Inactive)
REMARK    1  A    between atoms: C_1  and  C_2
REMARK    2  A    between atoms: C_2  and  C_3
REMARK    3  A    between atoms: N_5  and  C_6
REMARK    4  A    between atoms: C_9  and  C_10
REMARK    5  A    between atoms: C_10  and  C_11
REMARK    6  A    between atoms: N_12  and  N_13
REMARK    7  A    between atoms: C_14  and  C_16
REMARK    8  A    between atoms: C_17  and  C_18
REMARK    9  A    between atoms: C_27  and  C_28
REMARK                            x       y       z     vdW  Elec       q    Type
REMARK                         _______ _______ _______ _____ _____    ______ ____
ROOT
ATOM      1  N   UNL     1       2.387   6.991  19.925  0.00  0.00    +0.000 N 
ATOM      2  C   UNL     1       2.441   5.979  18.974  0.00  0.00    +0.000 C 
ATOM      3  O   UNL     1       2.039   6.093  17.821  0.00  0.00    +0.000 OA
ATOM      4  H   UNL     1       2.867   6.877  20.806  0.00  0.00    +0.000 HD
ENDROOT
BRANCH   2   5
ATOM      5  C   UNL     1       3.069   4.753  19.445  0.00  0.00    +0.000 A 
ATOM      6  C   UNL     1       4.411   4.285  19.224  0.00  0.00    +0.000 A 
ATOM      7  N   UNL     1       4.587   3.110  19.850  0.00  0.00    +0.000 NA
ATOM      8  O   UNL     1       3.388   2.768  20.416  0.00  0.00    +0.000 OA
ATOM      9  C   UNL     1       2.476   3.747  20.188  0.00  0.00    +0.000 A 
ATOM     10  C   UNL     1       1.130   3.488  20.736  0.00  0.00    +0.000 C 
BRANCH   6  11
ATOM     11  C   UNL     1       5.539   4.941  18.545  0.00  0.00    +0.000 A 
ATOM     12  C   UNL     1       6.529   5.569  19.324  0.00  0.00    +0.000 A 
ATOM     13  C   UNL     1       7.643   6.179  18.738  0.00  0.00    +0.000 A 
ATOM     14  C   UNL     1       7.807   6.149  17.359  0.00  0.00    +0.000 A 
ATOM     15  C   UNL     1       6.848   5.525  16.566  0.00  0.00    +0.000 A 
ATOM     16  C   UNL     1       5.713   4.936  17.146  0.00  0.00    +0.000 A 
ATOM     17 CL   UNL     1       4.562   4.264  16.037  0.00  0.00    +0.000 Cl
ENDBRANCH   6  11
ENDBRANCH   2   5
BRANCH   1  20
ATOM     18  C   UNL     1       1.214   8.880  20.508  0.00  0.00    +0.000 C 
ATOM     19  C   UNL     1       0.928   8.340  21.899  0.00  0.00    +0.000 C 
ATOM     20  N   UNL     1       1.873   8.214  19.603  0.00  0.00    +0.000 NA
BRANCH  18  24
ATOM     21  C   UNL     1      -0.312  12.796  19.512  0.00  0.00    +0.000 A 
ATOM     22  C   UNL     1      -0.264  11.783  18.552  0.00  0.00    +0.000 A 
ATOM     23  C   UNL     1       0.220  10.509  18.866  0.00  0.00    +0.000 A 
ATOM     24  C   UNL     1       0.686  10.233  20.151  0.00  0.00    +0.000 A 
ATOM     25  C   UNL     1       0.646  11.243  21.120  0.00  0.00    +0.000 A 
ATOM     26  C   UNL     1       0.164  12.522  20.799  0.00  0.00    +0.000 A 
BRANCH  21  29
ATOM     27  C   UNL     1      -0.052  15.198  18.916  0.00  0.00    +0.000 C 
ATOM     28  O   UNL     1       1.168  15.209  18.757  0.00  0.00    +0.000 OA
ATOM     29  N   UNL     1      -0.818  14.087  19.239  0.00  0.00    +0.000 N 
ATOM     30  H   UNL     1      -1.824  14.178  19.162  0.00  0.00    +0.000 HD
BRANCH  27  32
ATOM     31  C   UNL     1      -0.227  17.419  17.767  0.00  0.00    +0.000 C 
ATOM     32  C   UNL     1      -0.876  16.464  18.760  0.00  0.00    +0.000 C 
ENDBRANCH  27  32
ENDBRANCH  21  29
ENDBRANCH  18  24
ENDBRANCH   1  20
TORSDOF 6
ENDMDL
MODEL 5
REMARK VINA RESULT:      -7.8      2.797      3.421
REMARK  Name = 
REMARK  9 active torsions:
REMARK  status: ('A' for Active; 'I' for Inactive)
REMARK    1  A    between atoms: C_1  and  C_2
REMARK    2  A    between atoms: C_2  and  C_3
REMARK    3  A    between atoms: N_5  and  C_6
REMARK    4  A    between atoms: C_9  and  C_10
REMARK    5  A    between atoms: C_10  and  C_11
REMARK    6  A    between atoms: N_12  and  N_13
REMARK    7  A    between atoms: C_14  and  C_16
REMARK    8  A    between atoms: C_17  and  C_18
REMARK    9  A    between atoms: C_27  and  C_28
REMARK                            x       y       z     vdW  Elec       q    Type
REMARK                         _______ _______ _______ _____ _____    ______ ____
ROOT
ATOM      1  N   UNL     1       2.203   7.344  19.368  0.00  0.00    +0.000 N 
ATOM      2  C   UNL     1       3.053   6.649  18.517  0.00  0.00    +0.000 C 
ATOM      3  O   UNL     1       3.490   7.095  17.461  0.00  0.00    +0.000 OA
ATOM      4  H   UNL     1       2.001   6.975  20.286  0.00  0.00    +0.000 HD
ENDROOT
BRANCH   2   5
ATOM      5  C   UNL     1       3.435   5.332  19.004  0.00  0.00    +0.000 A 
ATOM      6  C   UNL     1       4.396   4.411  18.456  0.00  0.00    +0.000 A 
ATOM      7  N   UNL     1       4.456   3.311  19.224  0.00  0.00    +0.000 NA
ATOM      8  O   UNL     1       3.522   3.458  20.215  0.00  0.00    +0.000 OA
ATOM      9  C   UNL     1       2.913   4.665  20.099  0.00  0.00    +0.000 A 
ATOM     10  C   UNL     1       1.868   4.938  21.105  0.00  0.00    +0.000 C 
BRANCH   6  11
ATOM     11  C   UNL     1       5.313   4.572  17.317  0.00  0.00    +0.000 A 
ATOM     12  C   UNL     1       4.920   4.088  16.054  0.00  0.00    +0.000 A 
ATOM     13  C   UNL     1       5.733   4.242  14.927  0.00  0.00    +0.000 A 
ATOM     14  C   UNL     1       6.946   4.912  15.030  0.00  0.00    +0.000 A 
ATOM     15  C   UNL     1       7.353   5.410  16.265  0.00  0.00    +0.000 A 
ATOM     16  C   UNL     1       6.554   5.233  17.406  0.00  0.00    +0.000 A 
ATOM     17 CL   UNL     1       7.218   5.833  18.891  0.00  0.00    +0.000 Cl
ENDBRANCH   6  11
ENDBRANCH   2   5
BRANCH   1  20
ATOM     18  C   UNL     1       1.038   9.254  19.895  0.00  0.00    +0.000 C 
ATOM     19  C   UNL     1       0.498   8.639  21.175  0.00  0.00    +0.000 C 
ATOM     20  N   UNL     1       1.807   8.614  19.062  0.00  0.00    +0.000 NA
BRANCH  18  24
ATOM     21  C   UNL     1      -0.146  13.297  18.939  0.00  0.00    +0.000 A 
ATOM     22  C   UNL     1       1.146  12.846  18.657  0.00  0.00    +0.000 A 
ATOM     23  C   UNL     1       1.537  11.537  18.954  0.00  0.00    +0.000 A 
ATOM     24  C   UNL     1       0.641  10.658  19.562  0.00  0.00    +0.000 A 
ATOM     25  C   UNL     1      -0.656  11.102  19.852  0.00  0.00    +0.000 A 
ATOM     26  C   UNL     1      -1.042  12.419  19.557  0.00  0.00    +0.000 A 
BRANCH  21  29
ATOM     27  C   UNL     1      -0.318  15.740  19.381  0.00  0.00    +0.000 C 
ATOM     28  O   UNL     1       0.388  15.787  20.386  0.00  0.00    +0.000 OA
ATOM     29  N   UNL     1      -0.584  14.604  18.629  0.00  0.00    +0.000 N 
ATOM     30  H   UNL     1      -1.031  14.737  17.729  0.00  0.00    +0.000 HD
BRANCH  27  32
ATOM     31  C   UNL     1      -0.218  17.563  17.664  0.00  0.00    +0.000 C 
ATOM     32  C   UNL     1      -0.996  16.985  18.838  0.00  0.00    +0.000 C 
ENDBRANCH  27  32
ENDBRANCH  21  29
ENDBRANCH  18  24
ENDBRANCH   1  20
TORSDOF 6
ENDMDL
MODEL 6
REMARK VINA RESULT:      -7.7      2.348      3.978
REMARK  Name = 
REMARK  9 active torsions:
REMARK  status: ('A' for Active; 'I' for Inactive)
REMARK    1  A    between atoms: C_1  and  C_2
REMARK    2  A    between atoms: C_2  and  C_3
REMARK    3  A    between atoms: N_5  and  C_6
REMARK    4  A    between atoms: C_9  and  C_10
REMARK    5  A    between atoms: C_10  and  C_11
REMARK    6  A    between atoms: N_12  and  N_13
REMARK    7  A    between atoms: C_14  and  C_16
REMARK    8  A    between atoms: C_17  and  C_18
REMARK    9  A    between atoms: C_27  and  C_28
REMARK                            x       y       z     vdW  Elec       q    Type
REMARK                         _______ _______ _______ _____ _____    ______ ____
ROOT
ATOM      1  N   UNL     1       2.670   7.587  19.070  0.00  0.00    +0.000 N 
ATOM      2  C   UNL     1       3.389   7.248  17.930  0.00  0.00    +0.000 C 
ATOM      3  O   UNL     1       3.227   7.768  16.831  0.00  0.00    +0.000 OA
ATOM      4  H   UNL     1       2.955   7.224  19.968  0.00  0.00    +0.000 HD
ENDROOT
BRANCH   2   5
ATOM      5  C   UNL     1       4.408   6.233  18.150  0.00  0.00    +0.000 A 
ATOM      6  C   UNL     1       4.278   4.945  18.778  0.00  0.00    +0.000 A 
ATOM      7  N   UNL     1       5.462   4.312  18.761  0.00  0.00    +0.000 NA
ATOM      8  O   UNL     1       6.372   5.171  18.202  0.00  0.00    +0.000 OA
ATOM      9  C   UNL     1       5.751   6.317  17.825  0.00  0.00    +0.000 A 
ATOM     10  C   UNL     1       6.632   7.336  17.221  0.00  0.00    +0.000 C 
BRANCH   6  11
ATOM     11  C   UNL     1       3.079   4.262  19.289  0.00  0.00    +0.000 A 
ATOM     12  C   UNL     1       2.709   4.454  20.635  0.00  0.00    +0.000 A 
ATOM     13  C   UNL     1       1.561   3.860  21.169  0.00  0.00    +0.000 A 
ATOM     14  C   UNL     1       0.740   3.084  20.362  0.00  0.00    +0.000 A 
ATOM     15  C   UNL     1       1.077   2.886  19.025  0.00  0.00    +0.000 A 
ATOM     16  C   UNL     1       2.244   3.456  18.490  0.00  0.00    +0.000 A 
ATOM     17 CL   UNL     1       2.584   3.064  16.836  0.00  0.00    +0.000 Cl
ENDBRANCH   6  11
ENDBRANCH   2   5
BRANCH   1  20
ATOM     18  C   UNL     1       1.074   8.874  20.109  0.00  0.00    +0.000 C 
ATOM     19  C   UNL     1       1.277   8.158  21.432  0.00  0.00    +0.000 C 
ATOM     20  N   UNL     1       1.719   8.565  19.020  0.00  0.00    +0.000 NA
BRANCH  18  24
ATOM     21  C   UNL     1      -1.853  12.048  19.963  0.00  0.00    +0.000 A 
ATOM     22  C   UNL     1      -1.708  11.161  18.894  0.00  0.00    +0.000 A 
ATOM     23  C   UNL     1      -0.770  10.125  18.934  0.00  0.00    +0.000 A 
ATOM     24  C   UNL     1       0.058   9.971  20.045  0.00  0.00    +0.000 A 
ATOM     25  C   UNL     1      -0.076  10.858  21.121  0.00  0.00    +0.000 A 
ATOM     26  C   UNL     1      -1.015  11.900  21.074  0.00  0.00    +0.000 A 
BRANCH  21  29
ATOM     27  C   UNL     1      -3.971  13.111  20.723  0.00  0.00    +0.000 C 
ATOM     28  O   UNL     1      -4.310  12.259  21.543  0.00  0.00    +0.000 OA
ATOM     29  N   UNL     1      -2.806  13.090  19.969  0.00  0.00    +0.000 N 
ATOM     30  H   UNL     1      -2.562  13.937  19.468  0.00  0.00    +0.000 HD
BRANCH  27  32
ATOM     31  C   UNL     1      -4.126  15.608  20.872  0.00  0.00    +0.000 C 
ATOM     32  C   UNL     1      -4.836  14.329  20.451  0.00  0.00    +0.000 C 
ENDBRANCH  27  32
ENDBRANCH  21  29
ENDBRANCH  18  24
ENDBRANCH   1  20
TORSDOF 6
ENDMDL
MODEL 7
REMARK VINA RESULT:      -7.6      2.406      4.082
REMARK  Name = 
REMARK  9 active torsions:
REMARK  status: ('A' for Active; 'I' for Inactive)
REMARK    1  A    between atoms: C_1  and  C_2
REMARK    2  A    between atoms: C_2  and  C_3
REMARK    3  A    between atoms: N_5  and  C_6
REMARK    4  A    between atoms: C_9  and  C_10
REMARK    5  A    between atoms: C_10  and  C_11
REMARK    6  A    between atoms: N_12  and  N_13
REMARK    7  A    between atoms: C_14  and  C_16
REMARK    8  A    between atoms: C_17  and  C_18
REMARK    9  A    between atoms: C_27  and  C_28
REMARK                            x       y       z     vdW  Elec       q    Type
REMARK                         _______ _______ _______ _____ _____    ______ ____
ROOT
ATOM      1  N   UNL     1       2.640   7.525  19.128  0.00  0.00    +0.000 N 
ATOM      2  C   UNL     1       3.375   7.230  17.986  0.00  0.00    +0.000 C 
ATOM      3  O   UNL     1       3.221   7.784  16.903  0.00  0.00    +0.000 OA
ATOM      4  H   UNL     1       2.918   7.136  20.017  0.00  0.00    +0.000 HD
ENDROOT
BRANCH   2   5
ATOM      5  C   UNL     1       4.402   6.217  18.185  0.00  0.00    +0.000 A 
ATOM      6  C   UNL     1       4.284   4.922  18.802  0.00  0.00    +0.000 A 
ATOM      7  N   UNL     1       5.471   4.296  18.766  0.00  0.00    +0.000 NA
ATOM      8  O   UNL     1       6.370   5.164  18.206  0.00  0.00    +0.000 OA
ATOM      9  C   UNL     1       5.741   6.311  17.847  0.00  0.00    +0.000 A 
ATOM     10  C   UNL     1       6.610   7.340  17.244  0.00  0.00    +0.000 C 
BRANCH   6  11
ATOM     11  C   UNL     1       3.094   4.229  19.318  0.00  0.00    +0.000 A 
ATOM     12  C   UNL     1       2.744   4.395  20.672  0.00  0.00    +0.000 A 
ATOM     13  C   UNL     1       1.605   3.790  21.213  0.00  0.00    +0.000 A 
ATOM     14  C   UNL     1       0.772   3.028  20.404  0.00  0.00    +0.000 A 
ATOM     15  C   UNL     1       1.089   2.855  19.059  0.00  0.00    +0.000 A 
ATOM     16  C   UNL     1       2.247   3.437  18.517  0.00  0.00    +0.000 A 
ATOM     17 CL   UNL     1       2.561   3.077  16.851  0.00  0.00    +0.000 Cl
ENDBRANCH   6  11
ENDBRANCH   2   5
BRANCH   1  20
ATOM     18  C   UNL     1       1.118   8.861  20.215  0.00  0.00    +0.000 C 
ATOM     19  C   UNL     1       1.428   8.219  21.555  0.00  0.00    +0.000 C 
ATOM     20  N   UNL     1       1.680   8.495  19.098  0.00  0.00    +0.000 NA
BRANCH  18  24
ATOM     21  C   UNL     1      -1.849  11.997  20.050  0.00  0.00    +0.000 A 
ATOM     22  C   UNL     1      -1.056  11.824  21.187  0.00  0.00    +0.000 A 
ATOM     23  C   UNL     1      -0.086  10.817  21.247  0.00  0.00    +0.000 A 
ATOM     24  C   UNL     1       0.092   9.950  20.170  0.00  0.00    +0.000 A 
ATOM     25  C   UNL     1      -0.700  10.113  19.027  0.00  0.00    +0.000 A 
ATOM     26  C   UNL     1      -1.676  11.121  18.973  0.00  0.00    +0.000 A 
BRANCH  21  29
ATOM     27  C   UNL     1      -4.007  13.076  20.659  0.00  0.00    +0.000 C 
ATOM     28  O   UNL     1      -4.356  12.287  21.535  0.00  0.00    +0.000 OA
ATOM     29  N   UNL     1      -2.819  13.018  19.943  0.00  0.00    +0.000 N 
ATOM     30  H   UNL     1      -2.574  13.826  19.382  0.00  0.00    +0.000 HD
BRANCH  27  32
ATOM     31  C   UNL     1      -6.280  14.115  20.856  0.00  0.00    +0.000 C 
ATOM     32  C   UNL     1      -4.883  14.251  20.263  0.00  0.00    +0.000 C 
ENDBRANCH  27  32
ENDBRANCH  21  29
ENDBRANCH  18  24
ENDBRANCH   1  20
TORSDOF 6
ENDMDL
MODEL 8
REMARK VINA RESULT:      -7.6      5.903      8.166
REMARK  Name = 
REMARK  9 active torsions:
REMARK  status: ('A' for Active; 'I' for Inactive)
REMARK    1  A    between atoms: C_1  and  C_2
REMARK    2  A    between atoms: C_2  and  C_3
REMARK    3  A    between atoms: N_5  and  C_6
REMARK    4  A    between atoms: C_9  and  C_10
REMARK    5  A    between atoms: C_10  and  C_11
REMARK    6  A    between atoms: N_12  and  N_13
REMARK    7  A    between atoms: C_14  and  C_16
REMARK    8  A    between atoms: C_17  and  C_18
REMARK    9  A    between atoms: C_27  and  C_28
REMARK                            x       y       z     vdW  Elec       q    Type
REMARK                         _______ _______ _______ _____ _____    ______ ____
ROOT
ATOM      1  N   UNL     1       7.119   6.893  16.710  0.00  0.00    +0.000 N 
ATOM      2  C   UNL     1       5.835   6.609  16.260  0.00  0.00    +0.000 C 
ATOM      3  O   UNL     1       4.960   7.452  16.093  0.00  0.00    +0.000 OA
ATOM      4  H   UNL     1       7.829   6.175  16.683  0.00  0.00    +0.000 HD
ENDROOT
BRANCH   2   5
ATOM      5  C   UNL     1       5.610   5.205  15.949  0.00  0.00    +0.000 A 
ATOM      6  C   UNL     1       4.758   4.258  16.618  0.00  0.00    +0.000 A 
ATOM      7  N   UNL     1       4.830   3.070  15.997  0.00  0.00    +0.000 NA
ATOM      8  O   UNL     1       5.748   3.195  14.988  0.00  0.00    +0.000 OA
ATOM      9  C   UNL     1       6.213   4.468  14.944  0.00  0.00    +0.000 A 
ATOM     10  C   UNL     1       7.228   4.728  13.904  0.00  0.00    +0.000 C 
BRANCH   6  11
ATOM     11  C   UNL     1       3.821   4.457  17.734  0.00  0.00    +0.000 A 
ATOM     12  C   UNL     1       2.444   4.262  17.508  0.00  0.00    +0.000 A 
ATOM     13  C   UNL     1       1.508   4.402  18.538  0.00  0.00    +0.000 A 
ATOM     14  C   UNL     1       1.930   4.712  19.825  0.00  0.00    +0.000 A 
ATOM     15  C   UNL     1       3.287   4.900  20.077  0.00  0.00    +0.000 A 
ATOM     16  C   UNL     1       4.229   4.789  19.041  0.00  0.00    +0.000 A 
ATOM     17 CL   UNL     1       5.872   5.126  19.478  0.00  0.00    +0.000 Cl
ENDBRANCH   6  11
ENDBRANCH   2   5
BRANCH   1  20
ATOM     18  C   UNL     1       8.161   8.421  18.073  0.00  0.00    +0.000 C 
ATOM     19  C   UNL     1       8.517   7.353  19.092  0.00  0.00    +0.000 C 
ATOM     20  N   UNL     1       7.484   8.178  16.987  0.00  0.00    +0.000 NA
BRANCH  18  24
ATOM     21  C   UNL     1       9.368  12.500  18.829  0.00  0.00    +0.000 A 
ATOM     22  C   UNL     1       9.785  11.465  19.669  0.00  0.00    +0.000 A 
ATOM     23  C   UNL     1       9.407  10.140  19.429  0.00  0.00    +0.000 A 
ATOM     24  C   UNL     1       8.584   9.830  18.347  0.00  0.00    +0.000 A 
ATOM     25  C   UNL     1       8.157  10.862  17.500  0.00  0.00    +0.000 A 
ATOM     26  C   UNL     1       8.534  12.191  17.749  0.00  0.00    +0.000 A 
BRANCH  21  29
ATOM     27  C   UNL     1      10.809  14.481  18.393  0.00  0.00    +0.000 C 
ATOM     28  O   UNL     1      11.526  13.989  17.524  0.00  0.00    +0.000 OA
ATOM     29  N   UNL     1       9.750  13.845  19.026  0.00  0.00    +0.000 N 
ATOM     30  H   UNL     1       9.132  14.420  19.587  0.00  0.00    +0.000 HD
BRANCH  27  32
ATOM     31  C   UNL     1      11.489  16.803  17.736  0.00  0.00    +0.000 C 
ATOM     32  C   UNL     1      11.022  15.906  18.875  0.00  0.00    +0.000 C 
ENDBRANCH  27  32
ENDBRANCH  21  29
ENDBRANCH  18  24
ENDBRANCH   1  20
TORSDOF 6
ENDMDL
MODEL 9
REMARK VINA RESULT:      -7.4      2.158      3.607
REMARK  Name = 
REMARK  9 active torsions:
REMARK  status: ('A' for Active; 'I' for Inactive)
REMARK    1  A    between atoms: C_1  and  C_2
REMARK    2  A    between atoms: C_2  and  C_3
REMARK    3  A    between atoms: N_5  and  C_6
REMARK    4  A    between atoms: C_9  and  C_10
REMARK    5  A    between atoms: C_10  and  C_11
REMARK    6  A    between atoms: N_12  and  N_13
REMARK    7  A    between atoms: C_14  and  C_16
REMARK    8  A    between atoms: C_17  and  C_18
REMARK    9  A    between atoms: C_27  and  C_28
REMARK                            x       y       z     vdW  Elec       q    Type
REMARK                         _______ _______ _______ _____ _____    ______ ____
ROOT
ATOM      1  N   UNL     1       2.873   6.990  19.182  0.00  0.00    +0.000 N 
ATOM      2  C   UNL     1       3.222   6.935  17.838  0.00  0.00    +0.000 C 
ATOM      3  O   UNL     1       2.935   7.797  17.014  0.00  0.00    +0.000 OA
ATOM      4  H   UNL     1       3.266   6.322  19.829  0.00  0.00    +0.000 HD
ENDROOT
BRANCH   2   5
ATOM      5  C   UNL     1       4.014   5.769  17.476  0.00  0.00    +0.000 A 
ATOM      6  C   UNL     1       3.945   4.432  18.004  0.00  0.00    +0.000 A 
ATOM      7  N   UNL     1       4.844   3.654  17.382  0.00  0.00    +0.000 NA
ATOM      8  O   UNL     1       5.539   4.453  16.513  0.00  0.00    +0.000 OA
ATOM      9  C   UNL     1       5.046   5.716  16.555  0.00  0.00    +0.000 A 
ATOM     10  C   UNL     1       5.726   6.684  15.672  0.00  0.00    +0.000 C 
BRANCH   6  11
ATOM     11  C   UNL     1       3.010   3.851  18.980  0.00  0.00    +0.000 A 
ATOM     12  C   UNL     1       3.509   3.416  20.224  0.00  0.00    +0.000 A 
ATOM     13  C   UNL     1       2.664   2.888  21.205  0.00  0.00    +0.000 A 
ATOM     14  C   UNL     1       1.296   2.810  20.978  0.00  0.00    +0.000 A 
ATOM     15  C   UNL     1       0.776   3.242  19.761  0.00  0.00    +0.000 A 
ATOM     16  C   UNL     1       1.622   3.747  18.760  0.00  0.00    +0.000 A 
ATOM     17 CL   UNL     1       0.851   4.176  17.267  0.00  0.00    +0.000 Cl
ENDBRANCH   6  11
ENDBRANCH   2   5
BRANCH   1  20
ATOM     18  C   UNL     1       1.350   7.871  20.661  0.00  0.00    +0.000 C 
ATOM     19  C   UNL     1       1.069   6.508  21.270  0.00  0.00    +0.000 C 
ATOM     20  N   UNL     1       2.175   8.056  19.670  0.00  0.00    +0.000 NA
BRANCH  18  24
ATOM     21  C   UNL     1      -0.773  11.272  22.270  0.00  0.00    +0.000 A 
ATOM     22  C   UNL     1      -0.339  11.264  20.942  0.00  0.00    +0.000 A 
ATOM     23  C   UNL     1       0.342  10.165  20.409  0.00  0.00    +0.000 A 
ATOM     24  C   UNL     1       0.618   9.056  21.208  0.00  0.00    +0.000 A 
ATOM     25  C   UNL     1       0.190   9.056  22.541  0.00  0.00    +0.000 A 
ATOM     26  C   UNL     1      -0.487  10.163  23.074  0.00  0.00    +0.000 A 
BRANCH  21  29
ATOM     27  C   UNL     1      -0.970  13.621  23.067  0.00  0.00    +0.000 C 
ATOM     28  O   UNL     1       0.155  14.008  22.754  0.00  0.00    +0.000 OA
ATOM     29  N   UNL     1      -1.484  12.353  22.836  0.00  0.00    +0.000 N 
ATOM     30  H   UNL     1      -2.479  12.222  22.978  0.00  0.00    +0.000 HD
BRANCH  27  32
ATOM     31  C   UNL     1      -3.303  13.864  23.952  0.00  0.00    +0.000 C 
ATOM     32  C   UNL     1      -1.953  14.545  23.764  0.00  0.00    +0.000 C 
ENDBRANCH  27  32
ENDBRANCH  21  29
ENDBRANCH  18  24
ENDBRANCH   1  20
TORSDOF 6
ENDMDL
