MODEL 1
REMARK VINA RESULT:      -7.8      0.000      0.000
REMARK  Name = 
REMARK  8 active torsions:
REMARK  status: ('A' for Active; 'I' for Inactive)
REMARK    1  A    between atoms: C_2  and  C_3
REMARK    2  A    between atoms: C_3  and  C_4
REMARK    3  A    between atoms: N_9  and  C_10
REMARK    4  A    between atoms: C_13  and  C_14
REMARK    5  A    between atoms: C_14  and  C_15
REMARK    6  A    between atoms: C_18  and  N_19
REMARK    7  A    between atoms: C_20  and  C_22
REMARK    8  A    between atoms: C_22  and  C_23
REMARK                            x       y       z     vdW  Elec       q    Type
REMARK                         _______ _______ _______ _____ _____    ______ ____
ROOT
ATOM      1  C   UNL     1       2.100   5.787  20.423  0.00  0.00    +0.000 C 
ENDROOT
BRANCH   1   5
ATOM      2  C   UNL     1       4.585   4.650  17.047  0.00  0.00    +0.000 A 
ATOM      3  C   UNL     1       3.216   4.374  17.063  0.00  0.00    +0.000 A 
ATOM      4  C   UNL     1       2.424   4.729  18.159  0.00  0.00    +0.000 A 
ATOM      5  C   UNL     1       2.978   5.381  19.264  0.00  0.00    +0.000 A 
ATOM      6  C   UNL     1       4.350   5.666  19.249  0.00  0.00    +0.000 A 
ATOM      7  C   UNL     1       5.146   5.301  18.152  0.00  0.00    +0.000 A 
BRANCH   2  10
ATOM      8  O   UNL     1       5.787   6.326  14.935  0.00  0.00    +0.000 OA
ATOM      9  C   UNL     1       5.915   5.105  14.983  0.00  0.00    +0.000 C 
ATOM     10  N   UNL     1       5.440   4.273  15.983  0.00  0.00    +0.000 N 
ATOM     11  H   UNL     1       5.777   3.319  15.992  0.00  0.00    +0.000 HD
BRANCH   9  12
ATOM     12  C   UNL     1       6.686   4.390  13.886  0.00  0.00    +0.000 C 
BRANCH  12  13
ATOM     13  C   UNL     1       5.866   3.356  13.119  0.00  0.00    +0.000 C 
ATOM     14  C   UNL     1       4.743   3.949  12.270  0.00  0.00    +0.000 C 
ATOM     15  C   UNL     1       4.391   2.828  11.301  0.00  0.00    +0.000 C 
ATOM     16  C   UNL     1       5.684   2.044  11.084  0.00  0.00    +0.000 C 
ATOM     17  C   UNL     1       6.701   2.621  12.067  0.00  0.00    +0.000 C 
ENDBRANCH  12  13
ENDBRANCH   9  12
ENDBRANCH   2  10
ENDBRANCH   1   5
BRANCH   1  18
ATOM     18  C   UNL     1       1.633   7.225  20.425  0.00  0.00    +0.000 A 
ATOM     19  C   UNL     1       1.866   8.036  19.312  0.00  0.00    +0.000 A 
ATOM     20  C   UNL     1       1.323   9.322  19.234  0.00  0.00    +0.000 A 
ATOM     21  C   UNL     1       0.532   9.831  20.264  0.00  0.00    +0.000 A 
ATOM     22  C   UNL     1       0.355   9.051  21.414  0.00  0.00    +0.000 A 
ATOM     23  C   UNL     1       0.904   7.761  21.495  0.00  0.00    +0.000 A 
BRANCH  21  24
ATOM     24  N   UNL     1      -0.117  11.086  20.200  0.00  0.00    +0.000 N 
ATOM     25  C   UNL     1       0.346  12.283  20.722  0.00  0.00    +0.000 C 
ATOM     26  O   UNL     1       1.404  12.461  21.312  0.00  0.00    +0.000 OA
ATOM     27  H   UNL     1      -0.977  11.112  19.673  0.00  0.00    +0.000 HD
BRANCH  25  28
ATOM     28  C   UNL     1      -0.573  13.468  20.473  0.00  0.00    +0.000 C 
BRANCH  28  29
ATOM     29  C   UNL     1      -1.757  13.530  21.429  0.00  0.00    +0.000 C 
ATOM     30  C   UNL     1      -2.994  12.772  20.949  0.00  0.00    +0.000 C 
ATOM     31  C   UNL     1      -3.851  12.696  22.207  0.00  0.00    +0.000 C 
ATOM     32  C   UNL     1      -2.863  12.631  23.373  0.00  0.00    +0.000 C 
ATOM     33  C   UNL     1      -1.477  12.853  22.770  0.00  0.00    +0.000 C 
ENDBRANCH  28  29
ENDBRANCH  25  28
ENDBRANCH  21  24
ENDBRANCH   1  18
TORSDOF 8
ENDMDL
MODEL 2
REMARK VINA RESULT:      -7.8      1.333     11.101
REMARK  Name = 
REMARK  8 active torsions:
REMARK  status: ('A' for Active; 'I' for Inactive)
REMARK    1  A    between atoms: C_2  and  C_3
REMARK    2  A    between atoms: C_3  and  C_4
REMARK    3  A    between atoms: N_9  and  C_10
REMARK    4  A    between atoms: C_13  and  C_14
REMARK    5  A    between atoms: C_14  and  C_15
REMARK    6  A    between atoms: C_18  and  N_19
REMARK    7  A    between atoms: C_20  and  C_22
REMARK    8  A    between atoms: C_22  and  C_23
REMARK                            x       y       z     vdW  Elec       q    Type
REMARK                         _______ _______ _______ _____ _____    ______ ____
ROOT
ATOM      1  C   UNL     1       2.108   5.942  20.393  0.00  0.00    +0.000 C 
ENDROOT
BRANCH   1   5
ATOM      2  C   UNL     1       0.711  10.023  19.881  0.00  0.00    +0.000 A 
ATOM      3  C   UNL     1       0.433   9.303  21.045  0.00  0.00    +0.000 A 
ATOM      4  C   UNL     1       0.873   7.985  21.199  0.00  0.00    +0.000 A 
ATOM      5  C   UNL     1       1.613   7.354  20.194  0.00  0.00    +0.000 A 
ATOM      6  C   UNL     1       1.900   8.074  19.028  0.00  0.00    +0.000 A 
ATOM      7  C   UNL     1       1.450   9.395  18.871  0.00  0.00    +0.000 A 
BRANCH   2  10
ATOM      8  O   UNL     1       0.577  12.295  21.759  0.00  0.00    +0.000 OA
ATOM      9  C   UNL     1       0.154  12.346  20.607  0.00  0.00    +0.000 C 
ATOM     10  N   UNL     1       0.252  11.344  19.657  0.00  0.00    +0.000 N 
ATOM     11  H   UNL     1       0.031  11.588  18.700  0.00  0.00    +0.000 HD
BRANCH   9  12
ATOM     12  C   UNL     1      -0.519  13.615  20.112  0.00  0.00    +0.000 C 
BRANCH  12  13
ATOM     13  C   UNL     1       0.351  14.463  19.188  0.00  0.00    +0.000 C 
ATOM     14  C   UNL     1      -0.235  15.836  18.858  0.00  0.00    +0.000 C 
ATOM     15  C   UNL     1       0.959  16.621  18.332  0.00  0.00    +0.000 C 
ATOM     16  C   UNL     1       2.182  16.052  19.051  0.00  0.00    +0.000 C 
ATOM     17  C   UNL     1       1.687  14.838  19.836  0.00  0.00    +0.000 C 
ENDBRANCH  12  13
ENDBRANCH   9  12
ENDBRANCH   2  10
ENDBRANCH   1   5
BRANCH   1  18
ATOM     18  C   UNL     1       2.969   5.382  19.283  0.00  0.00    +0.000 A 
ATOM     19  C   UNL     1       2.382   4.662  18.239  0.00  0.00    +0.000 A 
ATOM     20  C   UNL     1       3.135   4.257  17.134  0.00  0.00    +0.000 A 
ATOM     21  C   UNL     1       4.493   4.560  17.040  0.00  0.00    +0.000 A 
ATOM     22  C   UNL     1       5.104   5.218  18.116  0.00  0.00    +0.000 A 
ATOM     23  C   UNL     1       4.349   5.622  19.229  0.00  0.00    +0.000 A 
BRANCH  21  24
ATOM     24  N   UNL     1       5.283   4.257  15.906  0.00  0.00    +0.000 N 
ATOM     25  C   UNL     1       5.840   5.165  15.021  0.00  0.00    +0.000 C 
ATOM     26  O   UNL     1       5.759   6.385  15.079  0.00  0.00    +0.000 OA
ATOM     27  H   UNL     1       5.500   3.281  15.768  0.00  0.00    +0.000 HD
BRANCH  25  28
ATOM     28  C   UNL     1       6.657   4.528  13.908  0.00  0.00    +0.000 C 
BRANCH  28  29
ATOM     29  C   UNL     1       5.902   3.449  13.141  0.00  0.00    +0.000 C 
ATOM     30  C   UNL     1       4.747   3.973  12.289  0.00  0.00    +0.000 C 
ATOM     31  C   UNL     1       4.426   2.785  11.391  0.00  0.00    +0.000 C 
ATOM     32  C   UNL     1       5.757   2.062  11.176  0.00  0.00    +0.000 C 
ATOM     33  C   UNL     1       6.767   2.746  12.096  0.00  0.00    +0.000 C 
ENDBRANCH  28  29
ENDBRANCH  25  28
ENDBRANCH  21  24
ENDBRANCH   1  18
TORSDOF 8
ENDMDL
MODEL 3
REMARK VINA RESULT:      -7.6      3.300     11.546
REMARK  Name = 
REMARK  8 active torsions:
REMARK  status: ('A' for Active; 'I' for Inactive)
REMARK    1  A    between atoms: C_2  and  C_3
REMARK    2  A    between atoms: C_3  and  C_4
REMARK    3  A    between atoms: N_9  and  C_10
REMARK    4  A    between atoms: C_13  and  C_14
REMARK    5  A    between atoms: C_14  and  C_15
REMARK    6  A    between atoms: C_18  and  N_19
REMARK    7  A    between atoms: C_20  and  C_22
REMARK    8  A    between atoms: C_22  and  C_23
REMARK                            x       y       z     vdW  Elec       q    Type
REMARK                         _______ _______ _______ _____ _____    ______ ____
ROOT
ATOM      1  C   UNL     1       0.822  11.184  18.636  0.00  0.00    +0.000 C 
ENDROOT
BRANCH   1   5
ATOM      2  C   UNL     1      -3.519  11.048  18.536  0.00  0.00    +0.000 A 
ATOM      3  C   UNL     1      -2.749  10.151  17.792  0.00  0.00    +0.000 A 
ATOM      4  C   UNL     1      -1.353  10.208  17.816  0.00  0.00    +0.000 A 
ATOM      5  C   UNL     1      -0.687  11.159  18.596  0.00  0.00    +0.000 A 
ATOM      6  C   UNL     1      -1.455  12.056  19.350  0.00  0.00    +0.000 A 
ATOM      7  C   UNL     1      -2.857  12.003  19.317  0.00  0.00    +0.000 A 
BRANCH   2  10
ATOM      8  O   UNL     1      -5.343  12.581  16.795  0.00  0.00    +0.000 OA
ATOM      9  C   UNL     1      -5.731  11.859  17.710  0.00  0.00    +0.000 C 
ATOM     10  N   UNL     1      -4.934  11.060  18.512  0.00  0.00    +0.000 N 
ATOM     11  H   UNL     1      -5.401  10.379  19.097  0.00  0.00    +0.000 HD
BRANCH   9  12
ATOM     12  C   UNL     1      -7.217  11.768  18.012  0.00  0.00    +0.000 C 
BRANCH  12  13
ATOM     13  C   UNL     1      -7.613  12.342  19.371  0.00  0.00    +0.000 C 
ATOM     14  C   UNL     1      -7.543  11.338  20.521  0.00  0.00    +0.000 C 
ATOM     15  C   UNL     1      -7.535  12.216  21.766  0.00  0.00    +0.000 C 
ATOM     16  C   UNL     1      -6.852  13.519  21.353  0.00  0.00    +0.000 C 
ATOM     17  C   UNL     1      -6.644  13.430  19.843  0.00  0.00    +0.000 C 
ENDBRANCH  12  13
ENDBRANCH   9  12
ENDBRANCH   2  10
ENDBRANCH   1   5
BRANCH   1  18
ATOM     18  C   UNL     1       1.500   9.840  18.778  0.00  0.00    +0.000 A 
ATOM     19  C   UNL     1       1.311   9.082  19.937  0.00  0.00    +0.000 A 
ATOM     20  C   UNL     1       1.812   7.780  20.032  0.00  0.00    +0.000 A 
ATOM     21  C   UNL     1       2.513   7.201  18.975  0.00  0.00    +0.000 A 
ATOM     22  C   UNL     1       2.769   7.981  17.840  0.00  0.00    +0.000 A 
ATOM     23  C   UNL     1       2.270   9.290  17.744  0.00  0.00    +0.000 A 
BRANCH  21  24
ATOM     24  N   UNL     1       2.963   5.860  18.980  0.00  0.00    +0.000 N 
ATOM     25  C   UNL     1       2.380   4.791  18.319  0.00  0.00    +0.000 C 
ATOM     26  O   UNL     1       1.387   4.829  17.604  0.00  0.00    +0.000 OA
ATOM     27  H   UNL     1       3.825   5.685  19.475  0.00  0.00    +0.000 HD
BRANCH  25  28
ATOM     28  C   UNL     1       3.111   3.471  18.504  0.00  0.00    +0.000 C 
BRANCH  28  29
ATOM     29  C   UNL     1       4.495   3.448  17.868  0.00  0.00    +0.000 C 
ATOM     30  C   UNL     1       4.556   4.063  16.471  0.00  0.00    +0.000 C 
ATOM     31  C   UNL     1       6.053   4.234  16.244  0.00  0.00    +0.000 C 
ATOM     32  C   UNL     1       6.650   4.500  17.627  0.00  0.00    +0.000 C 
ATOM     33  C   UNL     1       5.514   4.297  18.627  0.00  0.00    +0.000 C 
ENDBRANCH  28  29
ENDBRANCH  25  28
ENDBRANCH  21  24
ENDBRANCH   1  18
TORSDOF 8
ENDMDL
MODEL 4
REMARK VINA RESULT:      -7.6      1.002      1.578
REMARK  Name = 
REMARK  8 active torsions:
REMARK  status: ('A' for Active; 'I' for Inactive)
REMARK    1  A    between atoms: C_2  and  C_3
REMARK    2  A    between atoms: C_3  and  C_4
REMARK    3  A    between atoms: N_9  and  C_10
REMARK    4  A    between atoms: C_13  and  C_14
REMARK    5  A    between atoms: C_14  and  C_15
REMARK    6  A    between atoms: C_18  and  N_19
REMARK    7  A    between atoms: C_20  and  C_22
REMARK    8  A    between atoms: C_22  and  C_23
REMARK                            x       y       z     vdW  Elec       q    Type
REMARK                         _______ _______ _______ _____ _____    ______ ____
ROOT
ATOM      1  C   UNL     1       2.591   5.583  20.289  0.00  0.00    +0.000 C 
ENDROOT
BRANCH   1   5
ATOM      2  C   UNL     1       4.897   4.379  16.810  0.00  0.00    +0.000 A 
ATOM      3  C   UNL     1       5.495   5.052  17.877  0.00  0.00    +0.000 A 
ATOM      4  C   UNL     1       4.746   5.450  18.988  0.00  0.00    +0.000 A 
ATOM      5  C   UNL     1       3.377   5.175  19.066  0.00  0.00    +0.000 A 
ATOM      6  C   UNL     1       2.774   4.494  18.001  0.00  0.00    +0.000 A 
ATOM      7  C   UNL     1       3.527   4.103  16.882  0.00  0.00    +0.000 A 
BRANCH   2  10
ATOM      8  O   UNL     1       6.603   6.008  15.035  0.00  0.00    +0.000 OA
ATOM      9  C   UNL     1       6.332   4.829  14.816  0.00  0.00    +0.000 C 
ATOM     10  N   UNL     1       5.602   3.994  15.644  0.00  0.00    +0.000 N 
ATOM     11  H   UNL     1       5.616   3.004  15.432  0.00  0.00    +0.000 HD
BRANCH   9  12
ATOM     12  C   UNL     1       6.850   4.165  13.552  0.00  0.00    +0.000 C 
BRANCH  12  13
ATOM     13  C   UNL     1       5.849   3.224  12.887  0.00  0.00    +0.000 C 
ATOM     14  C   UNL     1       4.767   3.933  12.072  0.00  0.00    +0.000 C 
ATOM     15  C   UNL     1       4.204   2.831  11.184  0.00  0.00    +0.000 C 
ATOM     16  C   UNL     1       5.361   1.863  10.936  0.00  0.00    +0.000 C 
ATOM     17  C   UNL     1       6.507   2.333  11.829  0.00  0.00    +0.000 C 
ENDBRANCH  12  13
ENDBRANCH   9  12
ENDBRANCH   2  10
ENDBRANCH   1   5
BRANCH   1  18
ATOM     18  C   UNL     1       1.870   6.909  20.199  0.00  0.00    +0.000 A 
ATOM     19  C   UNL     1       1.057   7.334  21.253  0.00  0.00    +0.000 A 
ATOM     20  C   UNL     1       0.495   8.614  21.255  0.00  0.00    +0.000 A 
ATOM     21  C   UNL     1       0.730   9.502  20.206  0.00  0.00    +0.000 A 
ATOM     22  C   UNL     1       1.484   9.057  19.112  0.00  0.00    +0.000 A 
ATOM     23  C   UNL     1       2.046   7.770  19.108  0.00  0.00    +0.000 A 
BRANCH  21  24
ATOM     24  N   UNL     1       0.263  10.837  20.197  0.00  0.00    +0.000 N 
ATOM     25  C   UNL     1      -0.888  11.306  19.583  0.00  0.00    +0.000 C 
ATOM     26  O   UNL     1      -1.704  10.642  18.958  0.00  0.00    +0.000 OA
ATOM     27  H   UNL     1       0.800  11.497  20.740  0.00  0.00    +0.000 HD
BRANCH  25  28
ATOM     28  C   UNL     1      -1.130  12.795  19.770  0.00  0.00    +0.000 C 
BRANCH  28  29
ATOM     29  C   UNL     1      -2.086  13.118  20.911  0.00  0.00    +0.000 C 
ATOM     30  C   UNL     1      -3.560  12.882  20.583  0.00  0.00    +0.000 C 
ATOM     31  C   UNL     1      -4.221  12.927  21.955  0.00  0.00    +0.000 C 
ATOM     32  C   UNL     1      -3.176  12.385  22.932  0.00  0.00    +0.000 C 
ATOM     33  C   UNL     1      -1.890  12.213  22.127  0.00  0.00    +0.000 C 
ENDBRANCH  28  29
ENDBRANCH  25  28
ENDBRANCH  21  24
ENDBRANCH   1  18
TORSDOF 8
ENDMDL
MODEL 5
REMARK VINA RESULT:      -7.6      4.056      6.113
REMARK  Name = 
REMARK  8 active torsions:
REMARK  status: ('A' for Active; 'I' for Inactive)
REMARK    1  A    between atoms: C_2  and  C_3
REMARK    2  A    between atoms: C_3  and  C_4
REMARK    3  A    between atoms: N_9  and  C_10
REMARK    4  A    between atoms: C_13  and  C_14
REMARK    5  A    between atoms: C_14  and  C_15
REMARK    6  A    between atoms: C_18  and  N_19
REMARK    7  A    between atoms: C_20  and  C_22
REMARK    8  A    between atoms: C_22  and  C_23
REMARK                            x       y       z     vdW  Elec       q    Type
REMARK                         _______ _______ _______ _____ _____    ______ ____
ROOT
ATOM      1  C   UNL     1       0.759  10.984  18.469  0.00  0.00    +0.000 C 
ENDROOT
BRANCH   1   5
ATOM      2  C   UNL     1       2.450   7.113  19.482  0.00  0.00    +0.000 A 
ATOM      3  C   UNL     1       1.742   7.862  20.424  0.00  0.00    +0.000 A 
ATOM      4  C   UNL     1       1.212   9.114  20.097  0.00  0.00    +0.000 A 
ATOM      5  C   UNL     1       1.368   9.646  18.813  0.00  0.00    +0.000 A 
ATOM      6  C   UNL     1       2.071   8.894  17.863  0.00  0.00    +0.000 A 
ATOM      7  C   UNL     1       2.610   7.642  18.196  0.00  0.00    +0.000 A 
BRANCH   2  10
ATOM      8  O   UNL     1       4.849   5.864  18.302  0.00  0.00    +0.000 OA
ATOM      9  C   UNL     1       4.136   5.305  19.131  0.00  0.00    +0.000 C 
ATOM     10  N   UNL     1       3.043   5.861  19.775  0.00  0.00    +0.000 N 
ATOM     11  H   UNL     1       2.665   5.357  20.566  0.00  0.00    +0.000 HD
BRANCH   9  12
ATOM     12  C   UNL     1       4.454   3.881  19.554  0.00  0.00    +0.000 C 
BRANCH  12  13
ATOM     13  C   UNL     1       3.254   2.938  19.525  0.00  0.00    +0.000 C 
ATOM     14  C   UNL     1       2.265   3.145  20.672  0.00  0.00    +0.000 C 
ATOM     15  C   UNL     1       1.001   2.444  20.190  0.00  0.00    +0.000 C 
ATOM     16  C   UNL     1       1.014   2.565  18.666  0.00  0.00    +0.000 C 
ATOM     17  C   UNL     1       2.366   3.170  18.299  0.00  0.00    +0.000 C 
ENDBRANCH  12  13
ENDBRANCH   9  12
ENDBRANCH   2  10
ENDBRANCH   1   5
BRANCH   1  18
ATOM     18  C   UNL     1      -0.751  11.052  18.508  0.00  0.00    +0.000 A 
ATOM     19  C   UNL     1      -1.386  12.007  19.306  0.00  0.00    +0.000 A 
ATOM     20  C   UNL     1      -2.772  12.182  19.251  0.00  0.00    +0.000 A 
ATOM     21  C   UNL     1      -3.560  11.409  18.398  0.00  0.00    +0.000 A 
ATOM     22  C   UNL     1      -2.938  10.401  17.650  0.00  0.00    +0.000 A 
ATOM     23  C   UNL     1      -1.547  10.222  17.706  0.00  0.00    +0.000 A 
BRANCH  21  24
ATOM     24  N   UNL     1      -4.951  11.603  18.234  0.00  0.00    +0.000 N 
ATOM     25  C   UNL     1      -5.880  11.815  19.241  0.00  0.00    +0.000 C 
ATOM     26  O   UNL     1      -5.651  11.887  20.442  0.00  0.00    +0.000 OA
ATOM     27  H   UNL     1      -5.282  11.643  17.282  0.00  0.00    +0.000 HD
BRANCH  25  28
ATOM     28  C   UNL     1      -7.303  12.009  18.744  0.00  0.00    +0.000 C 
BRANCH  28  29
ATOM     29  C   UNL     1      -7.570  13.406  18.196  0.00  0.00    +0.000 C 
ATOM     30  C   UNL     1      -6.808  14.519  18.912  0.00  0.00    +0.000 C 
ATOM     31  C   UNL     1      -6.970  15.701  17.965  0.00  0.00    +0.000 C 
ATOM     32  C   UNL     1      -7.040  15.096  16.562  0.00  0.00    +0.000 C 
ATOM     33  C   UNL     1      -7.097  13.581  16.754  0.00  0.00    +0.000 C 
ENDBRANCH  28  29
ENDBRANCH  25  28
ENDBRANCH  21  24
ENDBRANCH   1  18
TORSDOF 8
ENDMDL
MODEL 6
REMARK VINA RESULT:      -7.5      1.415      1.685
REMARK  Name = 
REMARK  8 active torsions:
REMARK  status: ('A' for Active; 'I' for Inactive)
REMARK    1  A    between atoms: C_2  and  C_3
REMARK    2  A    between atoms: C_3  and  C_4
REMARK    3  A    between atoms: N_9  and  C_10
REMARK    4  A    between atoms: C_13  and  C_14
REMARK    5  A    between atoms: C_14  and  C_15
REMARK    6  A    between atoms: C_18  and  N_19
REMARK    7  A    between atoms: C_20  and  C_22
REMARK    8  A    between atoms: C_22  and  C_23
REMARK                            x       y       z     vdW  Elec       q    Type
REMARK                         _______ _______ _______ _____ _____    ______ ____
ROOT
ATOM      1  C   UNL     1       2.445   5.796  20.461  0.00  0.00    +0.000 C 
ENDROOT
BRANCH   1   5
ATOM      2  C   UNL     1       4.735   4.626  16.960  0.00  0.00    +0.000 A 
ATOM      3  C   UNL     1       3.360   4.392  17.038  0.00  0.00    +0.000 A 
ATOM      4  C   UNL     1       2.631   4.757  18.173  0.00  0.00    +0.000 A 
ATOM      5  C   UNL     1       3.256   5.378  19.258  0.00  0.00    +0.000 A 
ATOM      6  C   UNL     1       4.633   5.622  19.182  0.00  0.00    +0.000 A 
ATOM      7  C   UNL     1       5.366   5.246  18.045  0.00  0.00    +0.000 A 
BRANCH   2  10
ATOM      8  O   UNL     1       5.911   6.294  14.828  0.00  0.00    +0.000 OA
ATOM      9  C   UNL     1       5.992   5.068  14.848  0.00  0.00    +0.000 C 
ATOM     10  N   UNL     1       5.527   4.237  15.853  0.00  0.00    +0.000 N 
ATOM     11  H   UNL     1       5.826   3.270  15.831  0.00  0.00    +0.000 HD
BRANCH   9  12
ATOM     12  C   UNL     1       6.686   4.345  13.707  0.00  0.00    +0.000 C 
BRANCH  12  13
ATOM     13  C   UNL     1       5.815   3.306  13.005  0.00  0.00    +0.000 C 
ATOM     14  C   UNL     1       4.751   3.899  12.082  0.00  0.00    +0.000 C 
ATOM     15  C   UNL     1       4.346   2.727  11.198  0.00  0.00    +0.000 C 
ATOM     16  C   UNL     1       5.589   1.845  11.079  0.00  0.00    +0.000 C 
ATOM     17  C   UNL     1       6.621   2.435  12.037  0.00  0.00    +0.000 C 
ENDBRANCH  12  13
ENDBRANCH   9  12
ENDBRANCH   2  10
ENDBRANCH   1   5
BRANCH   1  18
ATOM     18  C   UNL     1       1.839   7.180  20.400  0.00  0.00    +0.000 A 
ATOM     19  C   UNL     1       2.060   7.990  19.283  0.00  0.00    +0.000 A 
ATOM     20  C   UNL     1       1.398   9.213  19.141  0.00  0.00    +0.000 A 
ATOM     21  C   UNL     1       0.499   9.660  20.110  0.00  0.00    +0.000 A 
ATOM     22  C   UNL     1       0.329   8.887  21.266  0.00  0.00    +0.000 A 
ATOM     23  C   UNL     1       0.996   7.660  21.411  0.00  0.00    +0.000 A 
BRANCH  21  24
ATOM     24  N   UNL     1      -0.266  10.842  19.976  0.00  0.00    +0.000 N 
ATOM     25  C   UNL     1      -1.364  11.027  19.152  0.00  0.00    +0.000 C 
ATOM     26  O   UNL     1      -1.869  10.192  18.411  0.00  0.00    +0.000 OA
ATOM     27  H   UNL     1      -0.010  11.604  20.586  0.00  0.00    +0.000 HD
BRANCH  25  28
ATOM     28  C   UNL     1      -1.987  12.410  19.245  0.00  0.00    +0.000 C 
BRANCH  28  29
ATOM     29  C   UNL     1      -3.279  12.442  20.052  0.00  0.00    +0.000 C 
ATOM     30  C   UNL     1      -3.526  13.755  20.792  0.00  0.00    +0.000 C 
ATOM     31  C   UNL     1      -4.992  13.646  21.191  0.00  0.00    +0.000 C 
ATOM     32  C   UNL     1      -5.658  12.825  20.085  0.00  0.00    +0.000 C 
ATOM     33  C   UNL     1      -4.529  12.336  19.180  0.00  0.00    +0.000 C 
ENDBRANCH  28  29
ENDBRANCH  25  28
ENDBRANCH  21  24
ENDBRANCH   1  18
TORSDOF 8
ENDMDL
MODEL 7
REMARK VINA RESULT:      -7.5      1.933     10.729
REMARK  Name = 
REMARK  8 active torsions:
REMARK  status: ('A' for Active; 'I' for Inactive)
REMARK    1  A    between atoms: C_2  and  C_3
REMARK    2  A    between atoms: C_3  and  C_4
REMARK    3  A    between atoms: N_9  and  C_10
REMARK    4  A    between atoms: C_13  and  C_14
REMARK    5  A    between atoms: C_14  and  C_15
REMARK    6  A    between atoms: C_18  and  N_19
REMARK    7  A    between atoms: C_20  and  C_22
REMARK    8  A    between atoms: C_22  and  C_23
REMARK                            x       y       z     vdW  Elec       q    Type
REMARK                         _______ _______ _______ _____ _____    ______ ____
ROOT
ATOM      1  C   UNL     1       1.723   6.160  20.505  0.00  0.00    +0.000 C 
ENDROOT
BRANCH   1   5
ATOM      2  C   UNL     1       1.052  10.450  20.363  0.00  0.00    +0.000 A 
ATOM      3  C   UNL     1       1.478   9.746  19.235  0.00  0.00    +0.000 A 
ATOM      4  C   UNL     1       1.706   8.368  19.290  0.00  0.00    +0.000 A 
ATOM      5  C   UNL     1       1.504   7.654  20.474  0.00  0.00    +0.000 A 
ATOM      6  C   UNL     1       1.069   8.354  21.607  0.00  0.00    +0.000 A 
ATOM      7  C   UNL     1       0.849   9.740  21.552  0.00  0.00    +0.000 A 
BRANCH   2  10
ATOM      8  O   UNL     1      -0.248  12.160  18.340  0.00  0.00    +0.000 OA
ATOM      9  C   UNL     1       0.288  12.602  19.354  0.00  0.00    +0.000 C 
ATOM     10  N   UNL     1       0.848  11.851  20.373  0.00  0.00    +0.000 N 
ATOM     11  H   UNL     1       1.083  12.335  21.230  0.00  0.00    +0.000 HD
BRANCH   9  12
ATOM     12  C   UNL     1       0.340  14.104  19.579  0.00  0.00    +0.000 C 
BRANCH  12  13
ATOM     13  C   UNL     1       1.686  14.739  19.241  0.00  0.00    +0.000 C 
ATOM     14  C   UNL     1       2.504  13.964  18.208  0.00  0.00    +0.000 C 
ATOM     15  C   UNL     1       3.530  14.980  17.724  0.00  0.00    +0.000 C 
ATOM     16  C   UNL     1       2.854  16.346  17.844  0.00  0.00    +0.000 C 
ATOM     17  C   UNL     1       1.527  16.101  18.559  0.00  0.00    +0.000 C 
ENDBRANCH  12  13
ENDBRANCH   9  12
ENDBRANCH   2  10
ENDBRANCH   1   5
BRANCH   1  18
ATOM     18  C   UNL     1       2.711   5.617  19.498  0.00  0.00    +0.000 A 
ATOM     19  C   UNL     1       2.252   4.955  18.356  0.00  0.00    +0.000 A 
ATOM     20  C   UNL     1       3.138   4.570  17.345  0.00  0.00    +0.000 A 
ATOM     21  C   UNL     1       4.503   4.836  17.447  0.00  0.00    +0.000 A 
ATOM     22  C   UNL     1       4.979   5.433  18.621  0.00  0.00    +0.000 A 
ATOM     23  C   UNL     1       4.091   5.818  19.639  0.00  0.00    +0.000 A 
BRANCH  21  24
ATOM     24  N   UNL     1       5.431   4.551  16.418  0.00  0.00    +0.000 N 
ATOM     25  C   UNL     1       5.788   5.389  15.373  0.00  0.00    +0.000 C 
ATOM     26  O   UNL     1       5.374   6.524  15.174  0.00  0.00    +0.000 OA
ATOM     27  H   UNL     1       5.915   3.669  16.491  0.00  0.00    +0.000 HD
BRANCH  25  28
ATOM     28  C   UNL     1       6.830   4.804  14.434  0.00  0.00    +0.000 C 
BRANCH  28  29
ATOM     29  C   UNL     1       6.283   3.710  13.524  0.00  0.00    +0.000 C 
ATOM     30  C   UNL     1       4.890   3.996  12.964  0.00  0.00    +0.000 C 
ATOM     31  C   UNL     1       4.757   2.965  11.851  0.00  0.00    +0.000 C 
ATOM     32  C   UNL     1       6.175   2.756  11.314  0.00  0.00    +0.000 C 
ATOM     33  C   UNL     1       7.102   3.532  12.247  0.00  0.00    +0.000 C 
ENDBRANCH  28  29
ENDBRANCH  25  28
ENDBRANCH  21  24
ENDBRANCH   1  18
TORSDOF 8
ENDMDL
MODEL 8
REMARK VINA RESULT:      -7.5      1.290      1.745
REMARK  Name = 
REMARK  8 active torsions:
REMARK  status: ('A' for Active; 'I' for Inactive)
REMARK    1  A    between atoms: C_2  and  C_3
REMARK    2  A    between atoms: C_3  and  C_4
REMARK    3  A    between atoms: N_9  and  C_10
REMARK    4  A    between atoms: C_13  and  C_14
REMARK    5  A    between atoms: C_14  and  C_15
REMARK    6  A    between atoms: C_18  and  N_19
REMARK    7  A    between atoms: C_20  and  C_22
REMARK    8  A    between atoms: C_22  and  C_23
REMARK                            x       y       z     vdW  Elec       q    Type
REMARK                         _______ _______ _______ _____ _____    ______ ____
ROOT
ATOM      1  C   UNL     1       2.890   5.987  19.671  0.00  0.00    +0.000 C 
ENDROOT
BRANCH   1   5
ATOM      2  C   UNL     1       4.912   4.930  15.973  0.00  0.00    +0.000 A 
ATOM      3  C   UNL     1       4.953   6.233  16.474  0.00  0.00    +0.000 A 
ATOM      4  C   UNL     1       4.288   6.571  17.656  0.00  0.00    +0.000 A 
ATOM      5  C   UNL     1       3.573   5.610  18.378  0.00  0.00    +0.000 A 
ATOM      6  C   UNL     1       3.535   4.300  17.883  0.00  0.00    +0.000 A 
ATOM      7  C   UNL     1       4.195   3.964  16.691  0.00  0.00    +0.000 A 
BRANCH   2  10
ATOM      8  O   UNL     1       7.657   5.457  15.029  0.00  0.00    +0.000 OA
ATOM      9  C   UNL     1       6.808   4.886  14.349  0.00  0.00    +0.000 C 
ATOM     10  N   UNL     1       5.530   4.545  14.759  0.00  0.00    +0.000 N 
ATOM     11  H   UNL     1       5.005   3.915  14.166  0.00  0.00    +0.000 HD
BRANCH   9  12
ATOM     12  C   UNL     1       7.146   4.461  12.931  0.00  0.00    +0.000 C 
BRANCH  12  13
ATOM     13  C   UNL     1       6.569   3.105  12.532  0.00  0.00    +0.000 C 
ATOM     14  C   UNL     1       5.221   3.183  11.816  0.00  0.00    +0.000 C 
ATOM     15  C   UNL     1       5.086   1.819  11.150  0.00  0.00    +0.000 C 
ATOM     16  C   UNL     1       6.512   1.366  10.838  0.00  0.00    +0.000 C 
ATOM     17  C   UNL     1       7.437   2.391  11.491  0.00  0.00    +0.000 C 
ENDBRANCH  12  13
ENDBRANCH   9  12
ENDBRANCH   2  10
ENDBRANCH   1   5
BRANCH   1  18
ATOM     18  C   UNL     1       2.194   7.329  19.683  0.00  0.00    +0.000 A 
ATOM     19  C   UNL     1       2.142   8.099  18.518  0.00  0.00    +0.000 A 
ATOM     20  C   UNL     1       1.385   9.273  18.468  0.00  0.00    +0.000 A 
ATOM     21  C   UNL     1       0.663   9.710  19.578  0.00  0.00    +0.000 A 
ATOM     22  C   UNL     1       0.770   8.983  20.770  0.00  0.00    +0.000 A 
ATOM     23  C   UNL     1       1.532   7.804  20.823  0.00  0.00    +0.000 A 
BRANCH  21  24
ATOM     24  N   UNL     1      -0.189  10.839  19.557  0.00  0.00    +0.000 N 
ATOM     25  C   UNL     1       0.115  12.095  19.057  0.00  0.00    +0.000 C 
ATOM     26  O   UNL     1       1.168  12.436  18.533  0.00  0.00    +0.000 OA
ATOM     27  H   UNL     1      -1.129  10.689  19.894  0.00  0.00    +0.000 HD
BRANCH  25  28
ATOM     28  C   UNL     1      -1.021  13.099  19.161  0.00  0.00    +0.000 C 
BRANCH  28  29
ATOM     29  C   UNL     1      -2.209  12.592  19.968  0.00  0.00    +0.000 C 
ATOM     30  C   UNL     1      -2.784  13.612  20.951  0.00  0.00    +0.000 C 
ATOM     31  C   UNL     1      -4.123  12.994  21.332  0.00  0.00    +0.000 C 
ATOM     32  C   UNL     1      -4.588  12.226  20.093  0.00  0.00    +0.000 C 
ATOM     33  C   UNL     1      -3.427  12.274  19.102  0.00  0.00    +0.000 C 
ENDBRANCH  28  29
ENDBRANCH  25  28
ENDBRANCH  21  24
ENDBRANCH   1  18
TORSDOF 8
ENDMDL
MODEL 9
REMARK VINA RESULT:      -7.5      1.122      1.677
REMARK  Name = 
REMARK  8 active torsions:
REMARK  status: ('A' for Active; 'I' for Inactive)
REMARK    1  A    between atoms: C_2  and  C_3
REMARK    2  A    between atoms: C_3  and  C_4
REMARK    3  A    between atoms: N_9  and  C_10
REMARK    4  A    between atoms: C_13  and  C_14
REMARK    5  A    between atoms: C_14  and  C_15
REMARK    6  A    between atoms: C_18  and  N_19
REMARK    7  A    between atoms: C_20  and  C_22
REMARK    8  A    between atoms: C_22  and  C_23
REMARK                            x       y       z     vdW  Elec       q    Type
REMARK                         _______ _______ _______ _____ _____    ______ ____
ROOT
ATOM      1  C   UNL     1       2.346   5.337  20.039  0.00  0.00    +0.000 C 
ENDROOT
BRANCH   1   5
ATOM      2  C   UNL     1       5.105   4.219  16.875  0.00  0.00    +0.000 A 
ATOM      3  C   UNL     1       5.550   4.873  18.026  0.00  0.00    +0.000 A 
ATOM      4  C   UNL     1       4.656   5.244  19.034  0.00  0.00    +0.000 A 
ATOM      5  C   UNL     1       3.291   4.960  18.924  0.00  0.00    +0.000 A 
ATOM      6  C   UNL     1       2.841   4.297  17.775  0.00  0.00    +0.000 A 
ATOM      7  C   UNL     1       3.739   3.933  16.759  0.00  0.00    +0.000 A 
BRANCH   2  10
ATOM      8  O   UNL     1       6.105   5.879  14.650  0.00  0.00    +0.000 OA
ATOM      9  C   UNL     1       6.338   4.677  14.753  0.00  0.00    +0.000 C 
ATOM     10  N   UNL     1       5.961   3.861  15.806  0.00  0.00    +0.000 N 
ATOM     11  H   UNL     1       6.379   2.941  15.852  0.00  0.00    +0.000 HD
BRANCH   9  12
ATOM     12  C   UNL     1       7.140   3.974  13.670  0.00  0.00    +0.000 C 
BRANCH  12  13
ATOM     13  C   UNL     1       6.354   3.701  12.390  0.00  0.00    +0.000 C 
ATOM     14  C   UNL     1       6.454   2.261  11.888  0.00  0.00    +0.000 C 
ATOM     15  C   UNL     1       5.283   2.135  10.921  0.00  0.00    +0.000 C 
ATOM     16  C   UNL     1       4.205   3.082  11.446  0.00  0.00    +0.000 C 
ATOM     17  C   UNL     1       4.844   3.860  12.594  0.00  0.00    +0.000 C 
ENDBRANCH  12  13
ENDBRANCH   9  12
ENDBRANCH   2  10
ENDBRANCH   1   5
BRANCH   1  18
ATOM     18  C   UNL     1       1.962   6.798  20.113  0.00  0.00    +0.000 A 
ATOM     19  C   UNL     1       2.106   7.615  18.988  0.00  0.00    +0.000 A 
ATOM     20  C   UNL     1       1.628   8.929  18.990  0.00  0.00    +0.000 A 
ATOM     21  C   UNL     1       0.994   9.461  20.113  0.00  0.00    +0.000 A 
ATOM     22  C   UNL     1       0.912   8.672  21.267  0.00  0.00    +0.000 A 
ATOM     23  C   UNL     1       1.395   7.353  21.268  0.00  0.00    +0.000 A 
BRANCH  21  24
ATOM     24  N   UNL     1       0.412  10.749  20.140  0.00  0.00    +0.000 N 
ATOM     25  C   UNL     1      -0.773  11.133  19.533  0.00  0.00    +0.000 C 
ATOM     26  O   UNL     1      -1.526  10.418  18.883  0.00  0.00    +0.000 OA
ATOM     27  H   UNL     1       0.887  11.437  20.706  0.00  0.00    +0.000 HD
BRANCH  25  28
ATOM     28  C   UNL     1      -1.147  12.589  19.761  0.00  0.00    +0.000 C 
BRANCH  28  29
ATOM     29  C   UNL     1      -2.299  12.775  20.740  0.00  0.00    +0.000 C 
ATOM     30  C   UNL     1      -2.015  12.263  22.151  0.00  0.00    +0.000 C 
ATOM     31  C   UNL     1      -3.141  12.884  22.968  0.00  0.00    +0.000 C 
ATOM     32  C   UNL     1      -3.453  14.218  22.288  0.00  0.00    +0.000 C 
ATOM     33  C   UNL     1      -2.628  14.243  21.002  0.00  0.00    +0.000 C 
ENDBRANCH  28  29
ENDBRANCH  25  28
ENDBRANCH  21  24
ENDBRANCH   1  18
TORSDOF 8
ENDMDL
