MODEL 1
REMARK VINA RESULT:      -8.9      0.000      0.000
REMARK  Name = 
REMARK  7 active torsions:
REMARK  status: ('A' for Active; 'I' for Inactive)
REMARK    1  A    between atoms: C_1  and  O_2
REMARK    2  A    between atoms: O_2  and  C_3
REMARK    3  A    between atoms: N_5  and  C_6
REMARK    4  A    between atoms: C_6  and  C_7
REMARK    5  A    between atoms: N_9  and  C_10
REMARK    6  A    between atoms: C_20  and  C_21
REMARK    7  A    between atoms: C_21  and  N_22
REMARK                            x       y       z     vdW  Elec       q    Type
REMARK                         _______ _______ _______ _____ _____    ______ ____
ROOT
ATOM      1  C   UNL     1       7.081   6.594  17.815  0.00  0.00    +0.000 A 
ATOM      2  C   UNL     1       5.897   7.054  17.431  0.00  0.00    +0.000 A 
ATOM      3  N   UNL     1       4.681   6.375  17.440  0.00  0.00    +0.000 N 
ATOM      4  C   UNL     1       4.779   4.925  17.491  0.00  0.00    +0.000 A 
ATOM      5  C   UNL     1       5.957   4.351  17.830  0.00  0.00    +0.000 A 
ATOM      6  C   UNL     1       7.171   5.132  18.118  0.00  0.00    +0.000 A 
ATOM      7  O   UNL     1       8.195   4.581  18.565  0.00  0.00    +0.000 OA
ENDROOT
BRANCH   1   9
ATOM      8  C   UNL     1       7.946   8.775  17.755  0.00  0.00    +0.000 C 
ATOM      9  O   UNL     1       8.193   7.393  18.041  0.00  0.00    +0.000 OA
ENDBRANCH   1   9
BRANCH   3  10
ATOM     10  C   UNL     1       3.453   7.202  17.173  0.00  0.00    +0.000 C 
BRANCH  10  11
ATOM     11  C   UNL     1       2.438   7.674  18.400  0.00  0.00    +0.000 C 
ATOM     12  O   UNL     1       2.655   7.175  19.517  0.00  0.00    +0.000 OA
ATOM     13  N   UNL     1       1.362   8.618  18.269  0.00  0.00    +0.000 N 
ATOM     14  H   UNL     1       1.397   9.031  17.344  0.00  0.00    +0.000 HD
BRANCH  13  15
ATOM     15  C   UNL     1       1.274   9.720  19.262  0.00  0.00    +0.000 A 
ATOM     16  C   UNL     1       1.454  10.951  18.618  0.00  0.00    +0.000 A 
ATOM     17  C   UNL     1       1.432  12.100  19.361  0.00  0.00    +0.000 A 
ATOM     18  C   UNL     1       0.327  12.182  20.175  0.00  0.00    +0.000 A 
ATOM     19  C   UNL     1       0.021  11.068  20.928  0.00  0.00    +0.000 A 
ATOM     20  C   UNL     1      -0.785  11.344  22.049  0.00  0.00    +0.000 A 
ATOM     21  C   UNL     1      -0.855  10.451  23.108  0.00  0.00    +0.000 A 
ATOM     22  C   UNL     1      -0.159   9.266  22.981  0.00  0.00    +0.000 A 
ATOM     23  C   UNL     1       0.504   8.904  21.761  0.00  0.00    +0.000 A 
ATOM     24  C   UNL     1       0.620   9.793  20.621  0.00  0.00    +0.000 A 
ENDBRANCH  13  15
ENDBRANCH  10  11
ENDBRANCH   3  10
BRANCH   4  25
ATOM     25  C   UNL     1       3.648   3.858  17.340  0.00  0.00    +0.000 C 
BRANCH  25  26
ATOM     26  N   UNL     1       2.879   3.227  18.438  0.00  0.00    +0.000 NA
ATOM     27  C   UNL     1       3.592   3.316  19.730  0.00  0.00    +0.000 C 
ATOM     28  C   UNL     1       2.743   2.782  20.897  0.00  0.00    +0.000 C 
ATOM     29  C   UNL     1       1.416   3.523  21.024  0.00  0.00    +0.000 C 
ATOM     30  C   UNL     1       0.685   3.483  19.693  0.00  0.00    +0.000 C 
ATOM     31  C   UNL     1       1.586   3.975  18.557  0.00  0.00    +0.000 C 
ENDBRANCH  25  26
ENDBRANCH   4  25
TORSDOF 6
ENDMDL
MODEL 2
REMARK VINA RESULT:      -8.7      1.146      2.146
REMARK  Name = 
REMARK  7 active torsions:
REMARK  status: ('A' for Active; 'I' for Inactive)
REMARK    1  A    between atoms: C_1  and  O_2
REMARK    2  A    between atoms: O_2  and  C_3
REMARK    3  A    between atoms: N_5  and  C_6
REMARK    4  A    between atoms: C_6  and  C_7
REMARK    5  A    between atoms: N_9  and  C_10
REMARK    6  A    between atoms: C_20  and  C_21
REMARK    7  A    between atoms: C_21  and  N_22
REMARK                            x       y       z     vdW  Elec       q    Type
REMARK                         _______ _______ _______ _____ _____    ______ ____
ROOT
ATOM      1  C   UNL     1       6.166   6.434  16.859  0.00  0.00    +0.000 A 
ATOM      2  C   UNL     1       4.875   6.567  17.136  0.00  0.00    +0.000 A 
ATOM      3  N   UNL     1       3.995   5.578  17.569  0.00  0.00    +0.000 N 
ATOM      4  C   UNL     1       4.420   4.212  17.312  0.00  0.00    +0.000 A 
ATOM      5  C   UNL     1       5.710   3.970  16.979  0.00  0.00    +0.000 A 
ATOM      6  C   UNL     1       6.708   5.041  16.825  0.00  0.00    +0.000 A 
ATOM      7  O   UNL     1       7.913   4.773  16.660  0.00  0.00    +0.000 OA
ENDROOT
BRANCH   1   9
ATOM      8  C   UNL     1       7.757   7.807  17.905  0.00  0.00    +0.000 C 
ATOM      9  O   UNL     1       7.044   7.498  16.701  0.00  0.00    +0.000 OA
ENDBRANCH   1   9
BRANCH   3  10
ATOM     10  C   UNL     1       2.642   6.045  18.033  0.00  0.00    +0.000 C 
BRANCH  10  11
ATOM     11  C   UNL     1       2.399   7.590  18.591  0.00  0.00    +0.000 C 
ATOM     12  O   UNL     1       2.232   8.468  17.727  0.00  0.00    +0.000 OA
ATOM     13  N   UNL     1       2.346   7.973  19.975  0.00  0.00    +0.000 N 
ATOM     14  H   UNL     1       2.366   7.138  20.549  0.00  0.00    +0.000 HD
BRANCH  13  15
ATOM     15  C   UNL     1       1.207   8.815  20.426  0.00  0.00    +0.000 A 
ATOM     16  C   UNL     1       0.593   8.222  21.536  0.00  0.00    +0.000 A 
ATOM     17  C   UNL     1      -0.499   8.828  22.095  0.00  0.00    +0.000 A 
ATOM     18  C   UNL     1      -0.285  10.160  22.364  0.00  0.00    +0.000 A 
ATOM     19  C   UNL     1       0.275  10.918  21.357  0.00  0.00    +0.000 A 
ATOM     20  C   UNL     1       0.043  12.300  21.491  0.00  0.00    +0.000 A 
ATOM     21  C   UNL     1       0.175  13.149  20.402  0.00  0.00    +0.000 A 
ATOM     22  C   UNL     1       0.604  12.591  19.215  0.00  0.00    +0.000 A 
ATOM     23  C   UNL     1       1.025  11.222  19.131  0.00  0.00    +0.000 A 
ATOM     24  C   UNL     1       0.906  10.281  20.229  0.00  0.00    +0.000 A 
ENDBRANCH  13  15
ENDBRANCH  10  11
ENDBRANCH   3  10
BRANCH   4  25
ATOM     25  C   UNL     1       3.621   2.883  17.496  0.00  0.00    +0.000 C 
BRANCH  25  26
ATOM     26  N   UNL     1       2.890   2.455  18.712  0.00  0.00    +0.000 NA
ATOM     27  C   UNL     1       3.504   2.999  19.942  0.00  0.00    +0.000 C 
ATOM     28  C   UNL     1       2.675   2.670  21.197  0.00  0.00    +0.000 C 
ATOM     29  C   UNL     1       1.249   3.198  21.094  0.00  0.00    +0.000 C 
ATOM     30  C   UNL     1       0.612   2.687  19.812  0.00  0.00    +0.000 C 
ATOM     31  C   UNL     1       1.496   2.994  18.601  0.00  0.00    +0.000 C 
ENDBRANCH  25  26
ENDBRANCH   4  25
TORSDOF 6
ENDMDL
MODEL 3
REMARK VINA RESULT:      -8.4      0.525      1.020
REMARK  Name = 
REMARK  7 active torsions:
REMARK  status: ('A' for Active; 'I' for Inactive)
REMARK    1  A    between atoms: C_1  and  O_2
REMARK    2  A    between atoms: O_2  and  C_3
REMARK    3  A    between atoms: N_5  and  C_6
REMARK    4  A    between atoms: C_6  and  C_7
REMARK    5  A    between atoms: N_9  and  C_10
REMARK    6  A    between atoms: C_20  and  C_21
REMARK    7  A    between atoms: C_21  and  N_22
REMARK                            x       y       z     vdW  Elec       q    Type
REMARK                         _______ _______ _______ _____ _____    ______ ____
ROOT
ATOM      1  C   UNL     1       7.226   6.934  17.878  0.00  0.00    +0.000 A 
ATOM      2  C   UNL     1       6.029   7.312  17.448  0.00  0.00    +0.000 A 
ATOM      3  N   UNL     1       4.812   6.666  17.653  0.00  0.00    +0.000 N 
ATOM      4  C   UNL     1       4.907   5.263  18.018  0.00  0.00    +0.000 A 
ATOM      5  C   UNL     1       6.096   4.763  18.430  0.00  0.00    +0.000 A 
ATOM      6  C   UNL     1       7.324   5.574  18.491  0.00  0.00    +0.000 A 
ATOM      7  O   UNL     1       8.363   5.122  19.009  0.00  0.00    +0.000 OA
ENDROOT
BRANCH   1   9
ATOM      8  C   UNL     1       8.019   9.141  17.783  0.00  0.00    +0.000 C 
ATOM      9  O   UNL     1       8.349   7.750  17.879  0.00  0.00    +0.000 OA
ENDBRANCH   1   9
BRANCH   3  10
ATOM     10  C   UNL     1       3.577   7.430  17.258  0.00  0.00    +0.000 C 
BRANCH  10  11
ATOM     11  C   UNL     1       2.450   7.903  18.381  0.00  0.00    +0.000 C 
ATOM     12  O   UNL     1       2.504   7.338  19.487  0.00  0.00    +0.000 OA
ATOM     13  N   UNL     1       1.450   8.915  18.178  0.00  0.00    +0.000 N 
ATOM     14  H   UNL     1       1.619   9.369  17.287  0.00  0.00    +0.000 HD
BRANCH  13  15
ATOM     15  C   UNL     1       1.304   9.972  19.213  0.00  0.00    +0.000 A 
ATOM     16  C   UNL     1       1.458  11.233  18.623  0.00  0.00    +0.000 A 
ATOM     17  C   UNL     1       1.382  12.349  19.412  0.00  0.00    +0.000 A 
ATOM     18  C   UNL     1       0.257  12.363  20.202  0.00  0.00    +0.000 A 
ATOM     19  C   UNL     1      -0.029  11.209  20.902  0.00  0.00    +0.000 A 
ATOM     20  C   UNL     1      -0.870  11.412  22.013  0.00  0.00    +0.000 A 
ATOM     21  C   UNL     1      -0.934  10.474  23.033  0.00  0.00    +0.000 A 
ATOM     22  C   UNL     1      -0.197   9.318  22.875  0.00  0.00    +0.000 A 
ATOM     23  C   UNL     1       0.505   9.029  21.657  0.00  0.00    +0.000 A 
ATOM     24  C   UNL     1       0.618   9.968  20.557  0.00  0.00    +0.000 A 
ENDBRANCH  13  15
ENDBRANCH  10  11
ENDBRANCH   3  10
BRANCH   4  25
ATOM     25  C   UNL     1       3.768   4.202  18.149  0.00  0.00    +0.000 C 
BRANCH  25  26
ATOM     26  N   UNL     1       2.763   4.117  19.234  0.00  0.00    +0.000 NA
ATOM     27  C   UNL     1       1.540   3.410  18.796  0.00  0.00    +0.000 C 
ATOM     28  C   UNL     1       0.548   3.202  19.954  0.00  0.00    +0.000 C 
ATOM     29  C   UNL     1       1.170   2.423  21.107  0.00  0.00    +0.000 C 
ATOM     30  C   UNL     1       2.454   3.107  21.545  0.00  0.00    +0.000 C 
ATOM     31  C   UNL     1       3.386   3.338  20.352  0.00  0.00    +0.000 C 
ENDBRANCH  25  26
ENDBRANCH   4  25
TORSDOF 6
ENDMDL
MODEL 4
REMARK VINA RESULT:      -8.3      1.844      2.498
REMARK  Name = 
REMARK  7 active torsions:
REMARK  status: ('A' for Active; 'I' for Inactive)
REMARK    1  A    between atoms: C_1  and  O_2
REMARK    2  A    between atoms: O_2  and  C_3
REMARK    3  A    between atoms: N_5  and  C_6
REMARK    4  A    between atoms: C_6  and  C_7
REMARK    5  A    between atoms: N_9  and  C_10
REMARK    6  A    between atoms: C_20  and  C_21
REMARK    7  A    between atoms: C_21  and  N_22
REMARK                            x       y       z     vdW  Elec       q    Type
REMARK                         _______ _______ _______ _____ _____    ______ ____
ROOT
ATOM      1  C   UNL     1       6.483   6.684  16.877  0.00  0.00    +0.000 A 
ATOM      2  C   UNL     1       5.404   7.069  17.547  0.00  0.00    +0.000 A 
ATOM      3  N   UNL     1       4.334   6.276  17.956  0.00  0.00    +0.000 N 
ATOM      4  C   UNL     1       4.189   5.015  17.248  0.00  0.00    +0.000 A 
ATOM      5  C   UNL     1       5.217   4.552  16.499  0.00  0.00    +0.000 A 
ATOM      6  C   UNL     1       6.479   5.292  16.333  0.00  0.00    +0.000 A 
ATOM      7  O   UNL     1       7.453   4.772  15.756  0.00  0.00    +0.000 OA
ENDROOT
BRANCH   1   9
ATOM      8  C   UNL     1       8.080   7.999  17.986  0.00  0.00    +0.000 C 
ATOM      9  O   UNL     1       7.632   7.452  16.740  0.00  0.00    +0.000 OA
ENDBRANCH   1   9
BRANCH   3  10
ATOM     10  C   UNL     1       3.354   6.915  18.901  0.00  0.00    +0.000 C 
BRANCH  10  11
ATOM     11  C   UNL     1       2.153   7.925  18.357  0.00  0.00    +0.000 C 
ATOM     12  O   UNL     1       1.336   7.431  17.562  0.00  0.00    +0.000 OA
ATOM     13  N   UNL     1       1.981   9.296  18.751  0.00  0.00    +0.000 N 
ATOM     14  H   UNL     1       2.635   9.510  19.495  0.00  0.00    +0.000 HD
BRANCH  13  15
ATOM     15  C   UNL     1       0.629   9.735  19.188  0.00  0.00    +0.000 A 
ATOM     16  C   UNL     1       0.690  10.206  20.506  0.00  0.00    +0.000 A 
ATOM     17  C   UNL     1      -0.459  10.638  21.111  0.00  0.00    +0.000 A 
ATOM     18  C   UNL     1      -1.149  11.548  20.345  0.00  0.00    +0.000 A 
ATOM     19  C   UNL     1      -1.347  11.226  19.019  0.00  0.00    +0.000 A 
ATOM     20  C   UNL     1      -2.418  11.918  18.420  0.00  0.00    +0.000 A 
ATOM     21  C   UNL     1      -3.002  11.445  17.254  0.00  0.00    +0.000 A 
ATOM     22  C   UNL     1      -2.448  10.318  16.682  0.00  0.00    +0.000 A 
ATOM     23  C   UNL     1      -1.241   9.729  17.187  0.00  0.00    +0.000 A 
ATOM     24  C   UNL     1      -0.584  10.169  18.403  0.00  0.00    +0.000 A 
ENDBRANCH  13  15
ENDBRANCH  10  11
ENDBRANCH   3  10
BRANCH   4  25
ATOM     25  C   UNL     1       3.023   3.977  17.318  0.00  0.00    +0.000 C 
BRANCH  25  26
ATOM     26  N   UNL     1       2.676   3.118  18.475  0.00  0.00    +0.000 NA
ATOM     27  C   UNL     1       3.609   3.316  19.605  0.00  0.00    +0.000 C 
ATOM     28  C   UNL     1       3.178   2.528  20.855  0.00  0.00    +0.000 C 
ATOM     29  C   UNL     1       1.774   2.906  21.313  0.00  0.00    +0.000 C 
ATOM     30  C   UNL     1       0.805   2.753  20.153  0.00  0.00    +0.000 C 
ATOM     31  C   UNL     1       1.301   3.513  18.920  0.00  0.00    +0.000 C 
ENDBRANCH  25  26
ENDBRANCH   4  25
TORSDOF 6
ENDMDL
MODEL 5
REMARK VINA RESULT:      -8.3      1.324      1.434
REMARK  Name = 
REMARK  7 active torsions:
REMARK  status: ('A' for Active; 'I' for Inactive)
REMARK    1  A    between atoms: C_1  and  O_2
REMARK    2  A    between atoms: O_2  and  C_3
REMARK    3  A    between atoms: N_5  and  C_6
REMARK    4  A    between atoms: C_6  and  C_7
REMARK    5  A    between atoms: N_9  and  C_10
REMARK    6  A    between atoms: C_20  and  C_21
REMARK    7  A    between atoms: C_21  and  N_22
REMARK                            x       y       z     vdW  Elec       q    Type
REMARK                         _______ _______ _______ _____ _____    ______ ____
ROOT
ATOM      1  C   UNL     1       6.464   6.286  16.878  0.00  0.00    +0.000 A 
ATOM      2  C   UNL     1       5.556   6.314  17.846  0.00  0.00    +0.000 A 
ATOM      3  N   UNL     1       4.774   5.257  18.305  0.00  0.00    +0.000 N 
ATOM      4  C   UNL     1       4.646   4.135  17.390  0.00  0.00    +0.000 A 
ATOM      5  C   UNL     1       5.497   4.034  16.342  0.00  0.00    +0.000 A 
ATOM      6  C   UNL     1       6.535   5.038  16.057  0.00  0.00    +0.000 A 
ATOM      7  O   UNL     1       7.390   4.840  15.173  0.00  0.00    +0.000 OA
ENDROOT
BRANCH   1   9
ATOM      8  C   UNL     1       7.882   7.872  17.869  0.00  0.00    +0.000 C 
ATOM      9  O   UNL     1       7.398   7.288  16.653  0.00  0.00    +0.000 OA
ENDBRANCH   1   9
BRANCH   3  10
ATOM     10  C   UNL     1       3.993   5.505  19.566  0.00  0.00    +0.000 C 
BRANCH  10  11
ATOM     11  C   UNL     1       2.619   6.438  19.571  0.00  0.00    +0.000 C 
ATOM     12  O   UNL     1       1.820   6.237  20.502  0.00  0.00    +0.000 OA
ATOM     13  N   UNL     1       2.305   7.457  18.607  0.00  0.00    +0.000 N 
ATOM     14  H   UNL     1       3.104   7.591  17.998  0.00  0.00    +0.000 HD
BRANCH  13  15
ATOM     15  C   UNL     1       1.881   8.789  19.110  0.00  0.00    +0.000 A 
ATOM     16  C   UNL     1       1.799   9.692  18.042  0.00  0.00    +0.000 A 
ATOM     17  C   UNL     1       1.445  10.990  18.295  0.00  0.00    +0.000 A 
ATOM     18  C   UNL     1       0.300  11.089  19.049  0.00  0.00    +0.000 A 
ATOM     19  C   UNL     1       0.225  10.299  20.177  0.00  0.00    +0.000 A 
ATOM     20  C   UNL     1      -0.700  10.760  21.133  0.00  0.00    +0.000 A 
ATOM     21  C   UNL     1      -0.622  10.341  22.453  0.00  0.00    +0.000 A 
ATOM     22  C   UNL     1       0.350   9.413  22.765  0.00  0.00    +0.000 A 
ATOM     23  C   UNL     1       1.164   8.801  21.754  0.00  0.00    +0.000 A 
ATOM     24  C   UNL     1       1.137   9.197  20.358  0.00  0.00    +0.000 A 
ENDBRANCH  13  15
ENDBRANCH  10  11
ENDBRANCH   3  10
BRANCH   4  25
ATOM     25  C   UNL     1       3.722   2.880  17.496  0.00  0.00    +0.000 C 
BRANCH  25  26
ATOM     26  N   UNL     1       3.037   2.391  18.715  0.00  0.00    +0.000 NA
ATOM     27  C   UNL     1       3.852   2.611  19.929  0.00  0.00    +0.000 C 
ATOM     28  C   UNL     1       3.093   2.227  21.212  0.00  0.00    +0.000 C 
ATOM     29  C   UNL     1       1.788   3.002  21.358  0.00  0.00    +0.000 C 
ATOM     30  C   UNL     1       0.953   2.828  20.101  0.00  0.00    +0.000 C 
ATOM     31  C   UNL     1       1.765   3.172  18.850  0.00  0.00    +0.000 C 
ENDBRANCH  25  26
ENDBRANCH   4  25
TORSDOF 6
ENDMDL
MODEL 6
REMARK VINA RESULT:      -8.2      1.577      1.892
REMARK  Name = 
REMARK  7 active torsions:
REMARK  status: ('A' for Active; 'I' for Inactive)
REMARK    1  A    between atoms: C_1  and  O_2
REMARK    2  A    between atoms: O_2  and  C_3
REMARK    3  A    between atoms: N_5  and  C_6
REMARK    4  A    between atoms: C_6  and  C_7
REMARK    5  A    between atoms: N_9  and  C_10
REMARK    6  A    between atoms: C_20  and  C_21
REMARK    7  A    between atoms: C_21  and  N_22
REMARK                            x       y       z     vdW  Elec       q    Type
REMARK                         _______ _______ _______ _____ _____    ______ ____
ROOT
ATOM      1  C   UNL     1       6.152   6.499  16.825  0.00  0.00    +0.000 A 
ATOM      2  C   UNL     1       4.887   6.785  17.108  0.00  0.00    +0.000 A 
ATOM      3  N   UNL     1       3.890   5.903  17.516  0.00  0.00    +0.000 N 
ATOM      4  C   UNL     1       4.140   4.502  17.221  0.00  0.00    +0.000 A 
ATOM      5  C   UNL     1       5.389   4.109  16.878  0.00  0.00    +0.000 A 
ATOM      6  C   UNL     1       6.515   5.050  16.751  0.00  0.00    +0.000 A 
ATOM      7  O   UNL     1       7.677   4.637  16.575  0.00  0.00    +0.000 OA
ENDROOT
BRANCH   1   9
ATOM      8  C   UNL     1       7.792   7.753  17.940  0.00  0.00    +0.000 C 
ATOM      9  O   UNL     1       7.156   7.447  16.693  0.00  0.00    +0.000 OA
ENDBRANCH   1   9
BRANCH   3  10
ATOM     10  C   UNL     1       2.606   6.523  17.996  0.00  0.00    +0.000 C 
BRANCH  10  11
ATOM     11  C   UNL     1       2.430   8.169  18.125  0.00  0.00    +0.000 C 
ATOM     12  O   UNL     1       2.816   8.842  17.154  0.00  0.00    +0.000 OA
ATOM     13  N   UNL     1       1.852   8.857  19.247  0.00  0.00    +0.000 N 
ATOM     14  H   UNL     1       1.469   8.173  19.889  0.00  0.00    +0.000 HD
BRANCH  13  15
ATOM     15  C   UNL     1       0.804   9.876  18.979  0.00  0.00    +0.000 A 
ATOM     16  C   UNL     1      -0.097   9.386  18.025  0.00  0.00    +0.000 A 
ATOM     17  C   UNL     1      -1.132  10.183  17.618  0.00  0.00    +0.000 A 
ATOM     18  C   UNL     1      -1.843  10.707  18.672  0.00  0.00    +0.000 A 
ATOM     19  C   UNL     1      -1.115  11.279  19.693  0.00  0.00    +0.000 A 
ATOM     20  C   UNL     1      -1.853  12.186  20.478  0.00  0.00    +0.000 A 
ATOM     21  C   UNL     1      -1.208  13.128  21.266  0.00  0.00    +0.000 A 
ATOM     22  C   UNL     1       0.171  13.090  21.295  0.00  0.00    +0.000 A 
ATOM     23  C   UNL     1       0.913  12.045  20.648  0.00  0.00    +0.000 A 
ATOM     24  C   UNL     1       0.302  11.035  19.805  0.00  0.00    +0.000 A 
ENDBRANCH  13  15
ENDBRANCH  10  11
ENDBRANCH   3  10
BRANCH   4  25
ATOM     25  C   UNL     1       3.181   3.279  17.371  0.00  0.00    +0.000 C 
BRANCH  25  26
ATOM     26  N   UNL     1       2.623   2.746  18.637  0.00  0.00    +0.000 NA
ATOM     27  C   UNL     1       3.476   3.082  19.797  0.00  0.00    +0.000 C 
ATOM     28  C   UNL     1       2.837   2.648  21.129  0.00  0.00    +0.000 C 
ATOM     29  C   UNL     1       1.465   3.280  21.337  0.00  0.00    +0.000 C 
ATOM     30  C   UNL     1       0.585   2.985  20.134  0.00  0.00    +0.000 C 
ATOM     31  C   UNL     1       1.282   3.387  18.832  0.00  0.00    +0.000 C 
ENDBRANCH  25  26
ENDBRANCH   4  25
TORSDOF 6
ENDMDL
MODEL 7
REMARK VINA RESULT:      -8.1      2.136      2.910
REMARK  Name = 
REMARK  7 active torsions:
REMARK  status: ('A' for Active; 'I' for Inactive)
REMARK    1  A    between atoms: C_1  and  O_2
REMARK    2  A    between atoms: O_2  and  C_3
REMARK    3  A    between atoms: N_5  and  C_6
REMARK    4  A    between atoms: C_6  and  C_7
REMARK    5  A    between atoms: N_9  and  C_10
REMARK    6  A    between atoms: C_20  and  C_21
REMARK    7  A    between atoms: C_21  and  N_22
REMARK                            x       y       z     vdW  Elec       q    Type
REMARK                         _______ _______ _______ _____ _____    ______ ____
ROOT
ATOM      1  C   UNL     1       5.930   6.093  16.988  0.00  0.00    +0.000 A 
ATOM      2  C   UNL     1       4.778   6.719  16.780  0.00  0.00    +0.000 A 
ATOM      3  N   UNL     1       3.763   6.953  17.704  0.00  0.00    +0.000 N 
ATOM      4  C   UNL     1       3.782   6.099  18.880  0.00  0.00    +0.000 A 
ATOM      5  C   UNL     1       4.896   5.382  19.160  0.00  0.00    +0.000 A 
ATOM      6  C   UNL     1       6.092   5.397  18.301  0.00  0.00    +0.000 A 
ATOM      7  O   UNL     1       7.146   4.841  18.664  0.00  0.00    +0.000 OA
ENDROOT
BRANCH   1   9
ATOM      8  C   UNL     1       7.049   4.998  15.239  0.00  0.00    +0.000 C 
ATOM      9  O   UNL     1       7.008   6.132  16.115  0.00  0.00    +0.000 OA
ENDBRANCH   1   9
BRANCH   3  10
ATOM     10  C   UNL     1       2.667   7.887  17.268  0.00  0.00    +0.000 C 
BRANCH  10  11
ATOM     11  C   UNL     1       2.176   9.157  18.218  0.00  0.00    +0.000 C 
ATOM     12  O   UNL     1       2.311  10.293  17.731  0.00  0.00    +0.000 OA
ATOM     13  N   UNL     1       1.597   9.038  19.528  0.00  0.00    +0.000 N 
ATOM     14  H   UNL     1       1.432   8.058  19.726  0.00  0.00    +0.000 HD
BRANCH  13  15
ATOM     15  C   UNL     1       0.342   9.783  19.808  0.00  0.00    +0.000 A 
ATOM     16  C   UNL     1       0.503  10.563  20.960  0.00  0.00    +0.000 A 
ATOM     17  C   UNL     1      -0.550  11.313  21.407  0.00  0.00    +0.000 A 
ATOM     18  C   UNL     1      -1.104  12.091  20.418  0.00  0.00    +0.000 A 
ATOM     19  C   UNL     1      -1.378  11.472  19.216  0.00  0.00    +0.000 A 
ATOM     20  C   UNL     1      -2.338  12.145  18.437  0.00  0.00    +0.000 A 
ATOM     21  C   UNL     1      -3.014  11.485  17.421  0.00  0.00    +0.000 A 
ATOM     22  C   UNL     1      -2.657  10.175  17.172  0.00  0.00    +0.000 A 
ATOM     23  C   UNL     1      -1.548   9.554  17.838  0.00  0.00    +0.000 A 
ATOM     24  C   UNL     1      -0.804  10.185  18.912  0.00  0.00    +0.000 A 
ENDBRANCH  13  15
ENDBRANCH  10  11
ENDBRANCH   3  10
BRANCH   4  25
ATOM     25  C   UNL     1       2.717   5.963  20.014  0.00  0.00    +0.000 C 
BRANCH  25  26
ATOM     26  N   UNL     1       1.732   4.868  20.172  0.00  0.00    +0.000 NA
ATOM     27  C   UNL     1       1.525   4.129  18.907  0.00  0.00    +0.000 C 
ATOM     28  C   UNL     1       0.605   2.909  19.095  0.00  0.00    +0.000 C 
ATOM     29  C   UNL     1       1.146   1.940  20.139  0.00  0.00    +0.000 C 
ATOM     30  C   UNL     1       1.409   2.687  21.435  0.00  0.00    +0.000 C 
ATOM     31  C   UNL     1       2.286   3.918  21.190  0.00  0.00    +0.000 C 
ENDBRANCH  25  26
ENDBRANCH   4  25
TORSDOF 6
ENDMDL
MODEL 8
REMARK VINA RESULT:      -8.1      1.681      2.640
REMARK  Name = 
REMARK  7 active torsions:
REMARK  status: ('A' for Active; 'I' for Inactive)
REMARK    1  A    between atoms: C_1  and  O_2
REMARK    2  A    between atoms: O_2  and  C_3
REMARK    3  A    between atoms: N_5  and  C_6
REMARK    4  A    between atoms: C_6  and  C_7
REMARK    5  A    between atoms: N_9  and  C_10
REMARK    6  A    between atoms: C_20  and  C_21
REMARK    7  A    between atoms: C_21  and  N_22
REMARK                            x       y       z     vdW  Elec       q    Type
REMARK                         _______ _______ _______ _____ _____    ______ ____
ROOT
ATOM      1  C   UNL     1       6.411   5.613  16.479  0.00  0.00    +0.000 A 
ATOM      2  C   UNL     1       5.153   6.034  16.520  0.00  0.00    +0.000 A 
ATOM      3  N   UNL     1       4.308   6.072  17.626  0.00  0.00    +0.000 N 
ATOM      4  C   UNL     1       4.692   5.210  18.732  0.00  0.00    +0.000 A 
ATOM      5  C   UNL     1       5.942   4.691  18.764  0.00  0.00    +0.000 A 
ATOM      6  C   UNL     1       6.933   4.928  17.701  0.00  0.00    +0.000 A 
ATOM      7  O   UNL     1       8.114   4.555  17.834  0.00  0.00    +0.000 OA
ENDROOT
BRANCH   1   9
ATOM      8  C   UNL     1       7.107   4.929  14.344  0.00  0.00    +0.000 C 
ATOM      9  O   UNL     1       7.281   5.853  15.424  0.00  0.00    +0.000 OA
ENDBRANCH   1   9
BRANCH   3  10
ATOM     10  C   UNL     1       3.010   6.812  17.449  0.00  0.00    +0.000 C 
BRANCH  10  11
ATOM     11  C   UNL     1       2.597   8.091  18.424  0.00  0.00    +0.000 C 
ATOM     12  O   UNL     1       2.544   9.206  17.876  0.00  0.00    +0.000 OA
ATOM     13  N   UNL     1       2.281   8.000  19.822  0.00  0.00    +0.000 N 
ATOM     14  H   UNL     1       2.238   7.023  20.087  0.00  0.00    +0.000 HD
BRANCH  13  15
ATOM     15  C   UNL     1       1.040   8.662  20.304  0.00  0.00    +0.000 A 
ATOM     16  C   UNL     1       1.005   8.636  21.704  0.00  0.00    +0.000 A 
ATOM     17  C   UNL     1      -0.073   9.177  22.351  0.00  0.00    +0.000 A 
ATOM     18  C   UNL     1      -0.363  10.451  21.923  0.00  0.00    +0.000 A 
ATOM     19  C   UNL     1      -0.417  10.655  20.560  0.00  0.00    +0.000 A 
ATOM     20  C   UNL     1      -1.154  11.795  20.186  0.00  0.00    +0.000 A 
ATOM     21  C   UNL     1      -1.642  11.929  18.894  0.00  0.00    +0.000 A 
ATOM     22  C   UNL     1      -1.318  10.937  17.990  0.00  0.00    +0.000 A 
ATOM     23  C   UNL     1      -0.409   9.878  18.323  0.00  0.00    +0.000 A 
ATOM     24  C   UNL     1       0.131   9.676  19.654  0.00  0.00    +0.000 A 
ENDBRANCH  13  15
ENDBRANCH  10  11
ENDBRANCH   3  10
BRANCH   4  25
ATOM     25  C   UNL     1       3.901   4.870  20.035  0.00  0.00    +0.000 C 
BRANCH  25  26
ATOM     26  N   UNL     1       2.842   3.844  20.180  0.00  0.00    +0.000 NA
ATOM     27  C   UNL     1       1.489   4.432  20.068  0.00  0.00    +0.000 C 
ATOM     28  C   UNL     1       0.389   3.355  20.085  0.00  0.00    +0.000 C 
ATOM     29  C   UNL     1       0.568   2.335  18.967  0.00  0.00    +0.000 C 
ATOM     30  C   UNL     1       1.969   1.751  19.036  0.00  0.00    +0.000 C 
ATOM     31  C   UNL     1       3.025   2.859  19.067  0.00  0.00    +0.000 C 
ENDBRANCH  25  26
ENDBRANCH   4  25
TORSDOF 6
ENDMDL
MODEL 9
REMARK VINA RESULT:      -8.1      1.196      2.412
REMARK  Name = 
REMARK  7 active torsions:
REMARK  status: ('A' for Active; 'I' for Inactive)
REMARK    1  A    between atoms: C_1  and  O_2
REMARK    2  A    between atoms: O_2  and  C_3
REMARK    3  A    between atoms: N_5  and  C_6
REMARK    4  A    between atoms: C_6  and  C_7
REMARK    5  A    between atoms: N_9  and  C_10
REMARK    6  A    between atoms: C_20  and  C_21
REMARK    7  A    between atoms: C_21  and  N_22
REMARK                            x       y       z     vdW  Elec       q    Type
REMARK                         _______ _______ _______ _____ _____    ______ ____
ROOT
ATOM      1  C   UNL     1       7.122   6.861  18.034  0.00  0.00    +0.000 A 
ATOM      2  C   UNL     1       6.013   7.366  17.508  0.00  0.00    +0.000 A 
ATOM      3  N   UNL     1       4.752   6.776  17.464  0.00  0.00    +0.000 N 
ATOM      4  C   UNL     1       4.733   5.334  17.645  0.00  0.00    +0.000 A 
ATOM      5  C   UNL     1       5.831   4.713  18.136  0.00  0.00    +0.000 A 
ATOM      6  C   UNL     1       7.074   5.431  18.466  0.00  0.00    +0.000 A 
ATOM      7  O   UNL     1       8.011   4.852  19.048  0.00  0.00    +0.000 OA
ENDROOT
BRANCH   1   9
ATOM      8  C   UNL     1       8.129   8.979  17.932  0.00  0.00    +0.000 C 
ATOM      9  O   UNL     1       8.269   7.599  18.292  0.00  0.00    +0.000 OA
ENDBRANCH   1   9
BRANCH   3  10
ATOM     10  C   UNL     1       3.618   7.659  17.019  0.00  0.00    +0.000 C 
BRANCH  10  11
ATOM     11  C   UNL     1       2.416   8.127  18.065  0.00  0.00    +0.000 C 
ATOM     12  O   UNL     1       2.593   7.853  19.265  0.00  0.00    +0.000 OA
ATOM     13  N   UNL     1       1.221   8.832  17.694  0.00  0.00    +0.000 N 
ATOM     14  H   UNL     1       1.285   9.097  16.718  0.00  0.00    +0.000 HD
BRANCH  13  15
ATOM     15  C   UNL     1       0.850  10.041  18.475  0.00  0.00    +0.000 A 
ATOM     16  C   UNL     1      -0.108   9.704  19.439  0.00  0.00    +0.000 A 
ATOM     17  C   UNL     1      -0.604  10.685  20.254  0.00  0.00    +0.000 A 
ATOM     18  C   UNL     1       0.387  11.427  20.853  0.00  0.00    +0.000 A 
ATOM     19  C   UNL     1       1.401  11.888  20.039  0.00  0.00    +0.000 A 
ATOM     20  C   UNL     1       2.098  12.990  20.570  0.00  0.00    +0.000 A 
ATOM     21  C   UNL     1       2.853  13.813  19.747  0.00  0.00    +0.000 A 
ATOM     22  C   UNL     1       2.940  13.465  18.414  0.00  0.00    +0.000 A 
ATOM     23  C   UNL     1       2.388  12.238  17.915  0.00  0.00    +0.000 A 
ATOM     24  C   UNL     1       1.583  11.338  18.719  0.00  0.00    +0.000 A 
ENDBRANCH  13  15
ENDBRANCH  10  11
ENDBRANCH   3  10
BRANCH   4  25
ATOM     25  C   UNL     1       3.541   4.338  17.482  0.00  0.00    +0.000 C 
BRANCH  25  26
ATOM     26  N   UNL     1       2.366   4.216  18.377  0.00  0.00    +0.000 NA
ATOM     27  C   UNL     1       1.802   2.849  18.359  0.00  0.00    +0.000 C 
ATOM     28  C   UNL     1       0.666   2.680  19.384  0.00  0.00    +0.000 C 
ATOM     29  C   UNL     1       1.123   2.996  20.803  0.00  0.00    +0.000 C 
ATOM     30  C   UNL     1       1.748   4.380  20.835  0.00  0.00    +0.000 C 
ATOM     31  C   UNL     1       2.836   4.517  19.767  0.00  0.00    +0.000 C 
ENDBRANCH  25  26
ENDBRANCH   4  25
TORSDOF 6
ENDMDL
