MODEL 1
REMARK VINA RESULT:      -7.6      0.000      0.000
REMARK  Name = 
REMARK  2 active torsions:
REMARK  status: ('A' for Active; 'I' for Inactive)
REMARK    1  A    between atoms: C_7  and  S_8
REMARK    2  A    between atoms: S_8  and  C_9
REMARK                            x       y       z     vdW  Elec       q    Type
REMARK                         _______ _______ _______ _____ _____    ______ ____
ROOT
ATOM      1  C   UNL     1       4.123   3.523  17.378  0.00  0.00    +0.000 A 
ATOM      2  C   UNL     1       2.842   3.634  16.862  0.00  0.00    +0.000 A 
ATOM      3  N   UNL     1       1.728   3.506  17.621  0.00  0.00    +0.000 NA
ATOM      4  C   UNL     1       1.928   3.244  18.925  0.00  0.00    +0.000 A 
ATOM      5  C   UNL     1       0.833   3.116  19.769  0.00  0.00    +0.000 A 
ATOM      6  C   UNL     1       0.992   2.842  21.128  0.00  0.00    +0.000 A 
ATOM      7  C   UNL     1       2.270   2.679  21.649  0.00  0.00    +0.000 A 
ATOM      8  C   UNL     1       3.378   2.808  20.809  0.00  0.00    +0.000 A 
ATOM      9  C   UNL     1       3.234   3.102  19.458  0.00  0.00    +0.000 A 
ATOM     10  N   UNL     1       4.331   3.245  18.685  0.00  0.00    +0.000 NA
ENDROOT
BRANCH   1  11
ATOM     11  S   UNL     1       5.548   3.687  16.332  0.00  0.00    +0.000 S 
BRANCH  11  18
ATOM     12 CL   UNL     1       5.006   6.871  15.552  0.00  0.00    +0.000 Cl
ATOM     13  C   UNL     1       6.172   6.408  16.744  0.00  0.00    +0.000 A 
ATOM     14  C   UNL     1       6.923   7.432  17.335  0.00  0.00    +0.000 A 
ATOM     15  C   UNL     1       7.884   7.132  18.300  0.00  0.00    +0.000 A 
ATOM     16  C   UNL     1       8.089   5.809  18.684  0.00  0.00    +0.000 A 
ATOM     17  C   UNL     1       7.343   4.784  18.095  0.00  0.00    +0.000 A 
ATOM     18  C   UNL     1       6.380   5.068  17.114  0.00  0.00    +0.000 A 
ENDBRANCH  11  18
ENDBRANCH   1  11
TORSDOF 2
ENDMDL
MODEL 2
REMARK VINA RESULT:      -7.4      1.894      5.718
REMARK  Name = 
REMARK  2 active torsions:
REMARK  status: ('A' for Active; 'I' for Inactive)
REMARK    1  A    between atoms: C_7  and  S_8
REMARK    2  A    between atoms: S_8  and  C_9
REMARK                            x       y       z     vdW  Elec       q    Type
REMARK                         _______ _______ _______ _____ _____    ______ ____
ROOT
ATOM      1  C   UNL     1       4.852   3.921  17.556  0.00  0.00    +0.000 A 
ATOM      2  C   UNL     1       4.519   4.826  16.561  0.00  0.00    +0.000 A 
ATOM      3  N   UNL     1       5.177   5.996  16.379  0.00  0.00    +0.000 NA
ATOM      4  C   UNL     1       6.180   6.251  17.239  0.00  0.00    +0.000 A 
ATOM      5  C   UNL     1       6.911   7.423  17.103  0.00  0.00    +0.000 A 
ATOM      6  C   UNL     1       7.957   7.731  17.974  0.00  0.00    +0.000 A 
ATOM      7  C   UNL     1       8.269   6.856  19.007  0.00  0.00    +0.000 A 
ATOM      8  C   UNL     1       7.541   5.673  19.151  0.00  0.00    +0.000 A 
ATOM      9  C   UNL     1       6.510   5.344  18.278  0.00  0.00    +0.000 A 
ATOM     10  N   UNL     1       5.849   4.178  18.434  0.00  0.00    +0.000 NA
ENDROOT
BRANCH   1  11
ATOM     11  S   UNL     1       3.945   2.408  17.757  0.00  0.00    +0.000 S 
BRANCH  11  18
ATOM     12 CL   UNL     1       1.189   4.252  17.537  0.00  0.00    +0.000 Cl
ATOM     13  C   UNL     1       1.762   3.644  19.051  0.00  0.00    +0.000 A 
ATOM     14  C   UNL     1       1.045   4.005  20.198  0.00  0.00    +0.000 A 
ATOM     15  C   UNL     1       1.452   3.555  21.454  0.00  0.00    +0.000 A 
ATOM     16  C   UNL     1       2.571   2.735  21.565  0.00  0.00    +0.000 A 
ATOM     17  C   UNL     1       3.292   2.374  20.423  0.00  0.00    +0.000 A 
ATOM     18  C   UNL     1       2.902   2.827  19.153  0.00  0.00    +0.000 A 
ENDBRANCH  11  18
ENDBRANCH   1  11
TORSDOF 2
ENDMDL
MODEL 3
REMARK VINA RESULT:      -7.4      2.238      6.002
REMARK  Name = 
REMARK  2 active torsions:
REMARK  status: ('A' for Active; 'I' for Inactive)
REMARK    1  A    between atoms: C_7  and  S_8
REMARK    2  A    between atoms: S_8  and  C_9
REMARK                            x       y       z     vdW  Elec       q    Type
REMARK                         _______ _______ _______ _____ _____    ______ ____
ROOT
ATOM      1  C   UNL     1       4.763   4.081  17.495  0.00  0.00    +0.000 A 
ATOM      2  C   UNL     1       4.442   5.044  16.553  0.00  0.00    +0.000 A 
ATOM      3  N   UNL     1       5.134   6.201  16.416  0.00  0.00    +0.000 NA
ATOM      4  C   UNL     1       6.161   6.379  17.267  0.00  0.00    +0.000 A 
ATOM      5  C   UNL     1       6.927   7.534  17.175  0.00  0.00    +0.000 A 
ATOM      6  C   UNL     1       7.999   7.764  18.038  0.00  0.00    +0.000 A 
ATOM      7  C   UNL     1       8.301   6.828  19.020  0.00  0.00    +0.000 A 
ATOM      8  C   UNL     1       7.538   5.663  19.119  0.00  0.00    +0.000 A 
ATOM      9  C   UNL     1       6.480   5.412  18.252  0.00  0.00    +0.000 A 
ATOM     10  N   UNL     1       5.784   4.261  18.364  0.00  0.00    +0.000 NA
ENDROOT
BRANCH   1  11
ATOM     11  S   UNL     1       3.811   2.589  17.640  0.00  0.00    +0.000 S 
BRANCH  11  18
ATOM     12 CL   UNL     1       4.851   1.724  20.675  0.00  0.00    +0.000 Cl
ATOM     13  C   UNL     1       3.331   2.510  20.420  0.00  0.00    +0.000 A 
ATOM     14  C   UNL     1       2.524   2.721  21.545  0.00  0.00    +0.000 A 
ATOM     15  C   UNL     1       1.284   3.345  21.413  0.00  0.00    +0.000 A 
ATOM     16  C   UNL     1       0.851   3.767  20.159  0.00  0.00    +0.000 A 
ATOM     17  C   UNL     1       1.652   3.555  19.033  0.00  0.00    +0.000 A 
ATOM     18  C   UNL     1       2.899   2.920  19.147  0.00  0.00    +0.000 A 
ENDBRANCH  11  18
ENDBRANCH   1  11
TORSDOF 2
ENDMDL
MODEL 4
REMARK VINA RESULT:      -7.4      2.961      6.359
REMARK  Name = 
REMARK  2 active torsions:
REMARK  status: ('A' for Active; 'I' for Inactive)
REMARK    1  A    between atoms: C_7  and  S_8
REMARK    2  A    between atoms: S_8  and  C_9
REMARK                            x       y       z     vdW  Elec       q    Type
REMARK                         _______ _______ _______ _____ _____    ______ ____
ROOT
ATOM      1  C   UNL     1       6.158   4.752  17.035  0.00  0.00    +0.000 A 
ATOM      2  C   UNL     1       7.162   5.651  16.714  0.00  0.00    +0.000 A 
ATOM      3  N   UNL     1       7.635   5.807  15.454  0.00  0.00    +0.000 NA
ATOM      4  C   UNL     1       7.082   5.022  14.513  0.00  0.00    +0.000 A 
ATOM      5  C   UNL     1       7.505   5.138  13.195  0.00  0.00    +0.000 A 
ATOM      6  C   UNL     1       6.963   4.342  12.186  0.00  0.00    +0.000 A 
ATOM      7  C   UNL     1       5.989   3.402  12.503  0.00  0.00    +0.000 A 
ATOM      8  C   UNL     1       5.556   3.278  13.825  0.00  0.00    +0.000 A 
ATOM      9  C   UNL     1       6.073   4.080  14.836  0.00  0.00    +0.000 A 
ATOM     10  N   UNL     1       5.608   3.948  16.096  0.00  0.00    +0.000 NA
ENDROOT
BRANCH   1  11
ATOM     11  S   UNL     1       5.586   4.578  18.707  0.00  0.00    +0.000 S 
BRANCH  11  18
ATOM     12 CL   UNL     1       3.052   6.566  17.889  0.00  0.00    +0.000 Cl
ATOM     13  C   UNL     1       2.839   4.866  18.126  0.00  0.00    +0.000 A 
ATOM     14  C   UNL     1       1.537   4.362  18.012  0.00  0.00    +0.000 A 
ATOM     15  C   UNL     1       1.291   3.002  18.195  0.00  0.00    +0.000 A 
ATOM     16  C   UNL     1       2.346   2.140  18.482  0.00  0.00    +0.000 A 
ATOM     17  C   UNL     1       3.646   2.639  18.600  0.00  0.00    +0.000 A 
ATOM     18  C   UNL     1       3.910   4.008  18.430  0.00  0.00    +0.000 A 
ENDBRANCH  11  18
ENDBRANCH   1  11
TORSDOF 2
ENDMDL
MODEL 5
REMARK VINA RESULT:      -7.1      3.094      6.440
REMARK  Name = 
REMARK  2 active torsions:
REMARK  status: ('A' for Active; 'I' for Inactive)
REMARK    1  A    between atoms: C_7  and  S_8
REMARK    2  A    between atoms: S_8  and  C_9
REMARK                            x       y       z     vdW  Elec       q    Type
REMARK                         _______ _______ _______ _____ _____    ______ ____
ROOT
ATOM      1  C   UNL     1       5.950   5.147  17.431  0.00  0.00    +0.000 A 
ATOM      2  C   UNL     1       7.062   5.903  17.100  0.00  0.00    +0.000 A 
ATOM      3  N   UNL     1       7.599   5.921  15.856  0.00  0.00    +0.000 NA
ATOM      4  C   UNL     1       6.996   5.139  14.942  0.00  0.00    +0.000 A 
ATOM      5  C   UNL     1       7.479   5.118  13.640  0.00  0.00    +0.000 A 
ATOM      6  C   UNL     1       6.889   4.320  12.659  0.00  0.00    +0.000 A 
ATOM      7  C   UNL     1       5.803   3.519  12.990  0.00  0.00    +0.000 A 
ATOM      8  C   UNL     1       5.308   3.534  14.295  0.00  0.00    +0.000 A 
ATOM      9  C   UNL     1       5.874   4.340  15.277  0.00  0.00    +0.000 A 
ATOM     10  N   UNL     1       5.349   4.347  16.520  0.00  0.00    +0.000 NA
ENDROOT
BRANCH   1  11
ATOM     11  S   UNL     1       5.298   5.152  19.082  0.00  0.00    +0.000 S 
BRANCH  11  18
ATOM     12 CL   UNL     1       4.576   2.104  20.195  0.00  0.00    +0.000 Cl
ATOM     13  C   UNL     1       3.449   3.028  19.262  0.00  0.00    +0.000 A 
ATOM     14  C   UNL     1       2.229   2.416  18.946  0.00  0.00    +0.000 A 
ATOM     15  C   UNL     1       1.274   3.100  18.193  0.00  0.00    +0.000 A 
ATOM     16  C   UNL     1       1.531   4.399  17.764  0.00  0.00    +0.000 A 
ATOM     17  C   UNL     1       2.748   5.012  18.076  0.00  0.00    +0.000 A 
ATOM     18  C   UNL     1       3.725   4.334  18.823  0.00  0.00    +0.000 A 
ENDBRANCH  11  18
ENDBRANCH   1  11
TORSDOF 2
ENDMDL
MODEL 6
REMARK VINA RESULT:      -7.0      3.661      6.290
REMARK  Name = 
REMARK  2 active torsions:
REMARK  status: ('A' for Active; 'I' for Inactive)
REMARK    1  A    between atoms: C_7  and  S_8
REMARK    2  A    between atoms: S_8  and  C_9
REMARK                            x       y       z     vdW  Elec       q    Type
REMARK                         _______ _______ _______ _____ _____    ______ ____
ROOT
ATOM      1  C   UNL     1       5.699   4.454  16.826  0.00  0.00    +0.000 A 
ATOM      2  C   UNL     1       6.812   5.279  16.830  0.00  0.00    +0.000 A 
ATOM      3  N   UNL     1       7.526   5.558  15.713  0.00  0.00    +0.000 NA
ATOM      4  C   UNL     1       7.103   4.971  14.579  0.00  0.00    +0.000 A 
ATOM      5  C   UNL     1       7.775   5.224  13.390  0.00  0.00    +0.000 A 
ATOM      6  C   UNL     1       7.374   4.635  12.190  0.00  0.00    +0.000 A 
ATOM      7  C   UNL     1       6.289   3.767  12.181  0.00  0.00    +0.000 A 
ATOM      8  C   UNL     1       5.605   3.508  13.371  0.00  0.00    +0.000 A 
ATOM      9  C   UNL     1       5.981   4.104  14.570  0.00  0.00    +0.000 A 
ATOM     10  N   UNL     1       5.278   3.848  15.692  0.00  0.00    +0.000 NA
ENDROOT
BRANCH   1  11
ATOM     11  S   UNL     1       4.810   4.111  18.324  0.00  0.00    +0.000 S 
BRANCH  11  18
ATOM     12 CL   UNL     1       2.644   4.673  20.782  0.00  0.00    +0.000 Cl
ATOM     13  C   UNL     1       2.923   5.831  19.527  0.00  0.00    +0.000 A 
ATOM     14  C   UNL     1       2.156   7.003  19.557  0.00  0.00    +0.000 A 
ATOM     15  C   UNL     1       2.324   7.979  18.575  0.00  0.00    +0.000 A 
ATOM     16  C   UNL     1       3.267   7.790  17.567  0.00  0.00    +0.000 A 
ATOM     17  C   UNL     1       4.032   6.621  17.532  0.00  0.00    +0.000 A 
ATOM     18  C   UNL     1       3.867   5.624  18.507  0.00  0.00    +0.000 A 
ENDBRANCH  11  18
ENDBRANCH   1  11
TORSDOF 2
ENDMDL
MODEL 7
REMARK VINA RESULT:      -7.0      1.020      1.104
REMARK  Name = 
REMARK  2 active torsions:
REMARK  status: ('A' for Active; 'I' for Inactive)
REMARK    1  A    between atoms: C_7  and  S_8
REMARK    2  A    between atoms: S_8  and  C_9
REMARK                            x       y       z     vdW  Elec       q    Type
REMARK                         _______ _______ _______ _____ _____    ______ ____
ROOT
ATOM      1  C   UNL     1       4.329   3.363  17.391  0.00  0.00    +0.000 A 
ATOM      2  C   UNL     1       3.773   2.094  17.419  0.00  0.00    +0.000 A 
ATOM      3  N   UNL     1       2.851   1.713  18.336  0.00  0.00    +0.000 NA
ATOM      4  C   UNL     1       2.505   2.641  19.246  0.00  0.00    +0.000 A 
ATOM      5  C   UNL     1       1.552   2.328  20.207  0.00  0.00    +0.000 A 
ATOM      6  C   UNL     1       1.164   3.257  21.173  0.00  0.00    +0.000 A 
ATOM      7  C   UNL     1       1.750   4.517  21.187  0.00  0.00    +0.000 A 
ATOM      8  C   UNL     1       2.707   4.842  20.224  0.00  0.00    +0.000 A 
ATOM      9  C   UNL     1       3.088   3.933  19.243  0.00  0.00    +0.000 A 
ATOM     10  N   UNL     1       3.997   4.295  18.314  0.00  0.00    +0.000 NA
ENDROOT
BRANCH   1  11
ATOM     11  S   UNL     1       5.545   3.803  16.175  0.00  0.00    +0.000 S 
BRANCH  11  18
ATOM     12 CL   UNL     1       5.056   7.019  15.495  0.00  0.00    +0.000 Cl
ATOM     13  C   UNL     1       6.200   6.500  16.685  0.00  0.00    +0.000 A 
ATOM     14  C   UNL     1       6.957   7.493  17.319  0.00  0.00    +0.000 A 
ATOM     15  C   UNL     1       7.901   7.148  18.286  0.00  0.00    +0.000 A 
ATOM     16  C   UNL     1       8.084   5.810  18.628  0.00  0.00    +0.000 A 
ATOM     17  C   UNL     1       7.332   4.816  17.995  0.00  0.00    +0.000 A 
ATOM     18  C   UNL     1       6.385   5.146  17.013  0.00  0.00    +0.000 A 
ENDBRANCH  11  18
ENDBRANCH   1  11
TORSDOF 2
ENDMDL
MODEL 8
REMARK VINA RESULT:      -6.9      2.529      6.244
REMARK  Name = 
REMARK  2 active torsions:
REMARK  status: ('A' for Active; 'I' for Inactive)
REMARK    1  A    between atoms: C_7  and  S_8
REMARK    2  A    between atoms: S_8  and  C_9
REMARK                            x       y       z     vdW  Elec       q    Type
REMARK                         _______ _______ _______ _____ _____    ______ ____
ROOT
ATOM      1  C   UNL     1       4.289   5.801  18.560  0.00  0.00    +0.000 A 
ATOM      2  C   UNL     1       5.414   5.271  19.169  0.00  0.00    +0.000 A 
ATOM      3  N   UNL     1       6.496   4.844  18.474  0.00  0.00    +0.000 NA
ATOM      4  C   UNL     1       6.417   4.947  17.136  0.00  0.00    +0.000 A 
ATOM      5  C   UNL     1       7.495   4.544  16.358  0.00  0.00    +0.000 A 
ATOM      6  C   UNL     1       7.457   4.629  14.965  0.00  0.00    +0.000 A 
ATOM      7  C   UNL     1       6.315   5.113  14.339  0.00  0.00    +0.000 A 
ATOM      8  C   UNL     1       5.226   5.522  15.112  0.00  0.00    +0.000 A 
ATOM      9  C   UNL     1       5.259   5.462  16.501  0.00  0.00    +0.000 A 
ATOM     10  N   UNL     1       4.197   5.893  17.213  0.00  0.00    +0.000 NA
ENDROOT
BRANCH   1  11
ATOM     11  S   UNL     1       2.893   6.333  19.521  0.00  0.00    +0.000 S 
BRANCH  11  18
ATOM     12 CL   UNL     1       1.190   4.307  17.510  0.00  0.00    +0.000 Cl
ATOM     13  C   UNL     1       1.459   3.926  19.176  0.00  0.00    +0.000 A 
ATOM     14  C   UNL     1       0.882   2.747  19.664  0.00  0.00    +0.000 A 
ATOM     15  C   UNL     1       1.054   2.379  20.998  0.00  0.00    +0.000 A 
ATOM     16  C   UNL     1       1.811   3.184  21.846  0.00  0.00    +0.000 A 
ATOM     17  C   UNL     1       2.387   4.363  21.363  0.00  0.00    +0.000 A 
ATOM     18  C   UNL     1       2.215   4.753  20.026  0.00  0.00    +0.000 A 
ENDBRANCH  11  18
ENDBRANCH   1  11
TORSDOF 2
ENDMDL
MODEL 9
REMARK VINA RESULT:      -6.8      2.311      3.068
REMARK  Name = 
REMARK  2 active torsions:
REMARK  status: ('A' for Active; 'I' for Inactive)
REMARK    1  A    between atoms: C_7  and  S_8
REMARK    2  A    between atoms: S_8  and  C_9
REMARK                            x       y       z     vdW  Elec       q    Type
REMARK                         _______ _______ _______ _____ _____    ______ ____
ROOT
ATOM      1  C   UNL     1       3.300   6.265  18.278  0.00  0.00    +0.000 A 
ATOM      2  C   UNL     1       2.808   6.689  19.501  0.00  0.00    +0.000 A 
ATOM      3  N   UNL     1       2.012   5.920  20.282  0.00  0.00    +0.000 NA
ATOM      4  C   UNL     1       1.703   4.704  19.795  0.00  0.00    +0.000 A 
ATOM      5  C   UNL     1       0.906   3.853  20.548  0.00  0.00    +0.000 A 
ATOM      6  C   UNL     1       0.556   2.584  20.082  0.00  0.00    +0.000 A 
ATOM      7  C   UNL     1       1.003   2.166  18.834  0.00  0.00    +0.000 A 
ATOM      8  C   UNL     1       1.807   3.014  18.071  0.00  0.00    +0.000 A 
ATOM      9  C   UNL     1       2.179   4.272  18.532  0.00  0.00    +0.000 A 
ATOM     10  N   UNL     1       2.980   5.051  17.775  0.00  0.00    +0.000 NA
ENDROOT
BRANCH   1  11
ATOM     11  S   UNL     1       4.328   7.323  17.289  0.00  0.00    +0.000 S 
BRANCH  11  18
ATOM     12 CL   UNL     1       6.742   5.743  18.938  0.00  0.00    +0.000 Cl
ATOM     13  C   UNL     1       6.474   5.491  17.247  0.00  0.00    +0.000 A 
ATOM     14  C   UNL     1       7.355   4.629  16.582  0.00  0.00    +0.000 A 
ATOM     15  C   UNL     1       7.202   4.382  15.218  0.00  0.00    +0.000 A 
ATOM     16  C   UNL     1       6.163   4.989  14.518  0.00  0.00    +0.000 A 
ATOM     17  C   UNL     1       5.283   5.852  15.177  0.00  0.00    +0.000 A 
ATOM     18  C   UNL     1       5.430   6.120  16.548  0.00  0.00    +0.000 A 
ENDBRANCH  11  18
ENDBRANCH   1  11
TORSDOF 2
ENDMDL
