MODEL 1
REMARK VINA RESULT:      -7.8      0.000      0.000
REMARK  Name = 
REMARK  8 active torsions:
REMARK  status: ('A' for Active; 'I' for Inactive)
REMARK    1  A    between atoms: C_1  and  C_2
REMARK    2  A    between atoms: C_2  and  O_3
REMARK    3  A    between atoms: O_3  and  C_4
REMARK    4  A    between atoms: C_7  and  C_8
REMARK    5  A    between atoms: C_12  and  C_13
REMARK    6  A    between atoms: N_15  and  C_16
REMARK    7  A    between atoms: C_16  and  C_17
REMARK    8  A    between atoms: C_22  and  C_23
REMARK                            x       y       z     vdW  Elec       q    Type
REMARK                         _______ _______ _______ _____ _____    ______ ____
ROOT
ATOM      1  C   UNL     1       3.279   6.436  18.306  0.00  0.00    +0.000 A 
ATOM      2  C   UNL     1       2.971   5.833  19.533  0.00  0.00    +0.000 A 
ATOM      3  N   UNL     1       2.204   6.411  20.487  0.00  0.00    +0.000 NA
ATOM      4  C   UNL     1       1.729   7.638  20.169  0.00  0.00    +0.000 A 
ATOM      5  C   UNL     1       2.011   8.251  18.956  0.00  0.00    +0.000 A 
ATOM      6  N   UNL     1       2.789   7.672  17.997  0.00  0.00    +0.000 NA
ENDROOT
BRANCH   1  10
ATOM      7  C   UNL     1       5.740   4.483  15.353  0.00  0.00    +0.000 A 
ATOM      8  C   UNL     1       5.036   3.737  16.294  0.00  0.00    +0.000 A 
ATOM      9  C   UNL     1       4.228   4.372  17.244  0.00  0.00    +0.000 A 
ATOM     10  C   UNL     1       4.121   5.773  17.290  0.00  0.00    +0.000 A 
ATOM     11  C   UNL     1       4.861   6.506  16.342  0.00  0.00    +0.000 A 
ATOM     12  C   UNL     1       5.673   5.871  15.394  0.00  0.00    +0.000 A 
BRANCH   7  13
ATOM     13  O   UNL     1       6.467   3.759  14.451  0.00  0.00    +0.000 OA
BRANCH  13  15
ATOM     14  C   UNL     1       6.972   4.004  12.138  0.00  0.00    +0.000 C 
ATOM     15  C   UNL     1       5.897   3.642  13.147  0.00  0.00    +0.000 C 
ENDBRANCH  13  15
ENDBRANCH   7  13
ENDBRANCH   1  10
BRANCH   5  16
ATOM     16  C   UNL     1       1.441   9.602  18.697  0.00  0.00    +0.000 C 
ATOM     17  O   UNL     1       2.044  10.402  17.994  0.00  0.00    +0.000 OA
ATOM     18  N   UNL     1       0.223   9.872  19.285  0.00  0.00    +0.000 N 
ATOM     19  H   UNL     1      -0.198   9.151  19.858  0.00  0.00    +0.000 HD
BRANCH  18  20
ATOM     20  C   UNL     1      -0.446  11.140  19.104  0.00  0.00    +0.000 C 
BRANCH  20  21
ATOM     21  C   UNL     1      -1.731  10.981  18.326  0.00  0.00    +0.000 A 
ATOM     22  C   UNL     1      -1.729  10.134  17.201  0.00  0.00    +0.000 A 
ATOM     23  C   UNL     1      -2.878   9.957  16.433  0.00  0.00    +0.000 A 
ATOM     24  C   UNL     1      -4.048  10.628  16.773  0.00  0.00    +0.000 A 
ATOM     25  C   UNL     1      -4.067  11.470  17.885  0.00  0.00    +0.000 A 
ATOM     26  C   UNL     1      -2.918  11.662  18.668  0.00  0.00    +0.000 A 
ATOM     27  C   UNL     1      -2.992  12.568  19.866  0.00  0.00    +0.000 C 
ENDBRANCH  20  21
ENDBRANCH  18  20
ENDBRANCH   5  16
TORSDOF 6
ENDMDL
MODEL 2
REMARK VINA RESULT:      -7.7      2.025      9.055
REMARK  Name = 
REMARK  8 active torsions:
REMARK  status: ('A' for Active; 'I' for Inactive)
REMARK    1  A    between atoms: C_1  and  C_2
REMARK    2  A    between atoms: C_2  and  O_3
REMARK    3  A    between atoms: O_3  and  C_4
REMARK    4  A    between atoms: C_7  and  C_8
REMARK    5  A    between atoms: C_12  and  C_13
REMARK    6  A    between atoms: N_15  and  C_16
REMARK    7  A    between atoms: C_16  and  C_17
REMARK    8  A    between atoms: C_22  and  C_23
REMARK                            x       y       z     vdW  Elec       q    Type
REMARK                         _______ _______ _______ _____ _____    ______ ____
ROOT
ATOM      1  C   UNL     1       3.004   6.359  19.167  0.00  0.00    +0.000 A 
ATOM      2  C   UNL     1       2.594   5.282  19.964  0.00  0.00    +0.000 A 
ATOM      3  N   UNL     1       3.253   4.102  20.036  0.00  0.00    +0.000 NA
ATOM      4  C   UNL     1       4.371   4.027  19.278  0.00  0.00    +0.000 A 
ATOM      5  C   UNL     1       4.804   5.084  18.488  0.00  0.00    +0.000 A 
ATOM      6  N   UNL     1       4.137   6.272  18.411  0.00  0.00    +0.000 NA
ENDROOT
BRANCH   1  10
ATOM      7  C   UNL     1       0.810  10.068  19.029  0.00  0.00    +0.000 A 
ATOM      8  C   UNL     1       0.825   9.296  20.188  0.00  0.00    +0.000 A 
ATOM      9  C   UNL     1       1.548   8.099  20.234  0.00  0.00    +0.000 A 
ATOM     10  C   UNL     1       2.257   7.632  19.114  0.00  0.00    +0.000 A 
ATOM     11  C   UNL     1       2.207   8.419  17.948  0.00  0.00    +0.000 A 
ATOM     12  C   UNL     1       1.480   9.615  17.899  0.00  0.00    +0.000 A 
BRANCH   7  13
ATOM     13  O   UNL     1       0.103  11.234  19.108  0.00  0.00    +0.000 OA
BRANCH  13  15
ATOM     14  C   UNL     1      -1.959  10.719  18.036  0.00  0.00    +0.000 C 
ATOM     15  C   UNL     1      -1.298  11.095  19.350  0.00  0.00    +0.000 C 
ENDBRANCH  13  15
ENDBRANCH   7  13
ENDBRANCH   1  10
BRANCH   5  16
ATOM     16  C   UNL     1       6.049   4.908  17.690  0.00  0.00    +0.000 C 
ATOM     17  O   UNL     1       6.994   4.280  18.151  0.00  0.00    +0.000 OA
ATOM     18  N   UNL     1       6.055   5.481  16.436  0.00  0.00    +0.000 N 
ATOM     19  H   UNL     1       5.230   5.990  16.143  0.00  0.00    +0.000 HD
BRANCH  18  20
ATOM     20  C   UNL     1       7.195   5.375  15.555  0.00  0.00    +0.000 C 
BRANCH  20  21
ATOM     21  C   UNL     1       6.815   4.749  14.234  0.00  0.00    +0.000 A 
ATOM     22  C   UNL     1       5.674   3.926  14.189  0.00  0.00    +0.000 A 
ATOM     23  C   UNL     1       5.280   3.308  13.003  0.00  0.00    +0.000 A 
ATOM     24  C   UNL     1       6.024   3.498  11.844  0.00  0.00    +0.000 A 
ATOM     25  C   UNL     1       7.157   4.310  11.871  0.00  0.00    +0.000 A 
ATOM     26  C   UNL     1       7.570   4.938  13.057  0.00  0.00    +0.000 A 
ATOM     27  C   UNL     1       8.790   5.818  13.032  0.00  0.00    +0.000 C 
ENDBRANCH  20  21
ENDBRANCH  18  20
ENDBRANCH   5  16
TORSDOF 6
ENDMDL
MODEL 3
REMARK VINA RESULT:      -7.6      2.265      9.168
REMARK  Name = 
REMARK  8 active torsions:
REMARK  status: ('A' for Active; 'I' for Inactive)
REMARK    1  A    between atoms: C_1  and  C_2
REMARK    2  A    between atoms: C_2  and  O_3
REMARK    3  A    between atoms: O_3  and  C_4
REMARK    4  A    between atoms: C_7  and  C_8
REMARK    5  A    between atoms: C_12  and  C_13
REMARK    6  A    between atoms: N_15  and  C_16
REMARK    7  A    between atoms: C_16  and  C_17
REMARK    8  A    between atoms: C_22  and  C_23
REMARK                            x       y       z     vdW  Elec       q    Type
REMARK                         _______ _______ _______ _____ _____    ______ ____
ROOT
ATOM      1  C   UNL     1       2.980   6.295  19.226  0.00  0.00    +0.000 A 
ATOM      2  C   UNL     1       2.581   5.201  20.005  0.00  0.00    +0.000 A 
ATOM      3  N   UNL     1       3.256   4.029  20.063  0.00  0.00    +0.000 NA
ATOM      4  C   UNL     1       4.377   3.980  19.308  0.00  0.00    +0.000 A 
ATOM      5  C   UNL     1       4.799   5.054  18.535  0.00  0.00    +0.000 A 
ATOM      6  N   UNL     1       4.117   6.234  18.473  0.00  0.00    +0.000 NA
ENDROOT
BRANCH   1  10
ATOM      7  C   UNL     1       0.762   9.991  19.102  0.00  0.00    +0.000 A 
ATOM      8  C   UNL     1       1.379   9.496  17.956  0.00  0.00    +0.000 A 
ATOM      9  C   UNL     1       2.088   8.290  17.996  0.00  0.00    +0.000 A 
ATOM     10  C   UNL     1       2.216   7.559  19.189  0.00  0.00    +0.000 A 
ATOM     11  C   UNL     1       1.602   8.091  20.339  0.00  0.00    +0.000 A 
ATOM     12  C   UNL     1       0.896   9.300  20.301  0.00  0.00    +0.000 A 
BRANCH   7  13
ATOM     13  O   UNL     1       0.067  11.155  18.939  0.00  0.00    +0.000 OA
BRANCH  13  15
ATOM     14  C   UNL     1      -1.474  11.920  20.584  0.00  0.00    +0.000 C 
ATOM     15  C   UNL     1      -1.312  11.111  19.311  0.00  0.00    +0.000 C 
ENDBRANCH  13  15
ENDBRANCH   7  13
ENDBRANCH   1  10
BRANCH   5  16
ATOM     16  C   UNL     1       6.049   4.905  17.739  0.00  0.00    +0.000 C 
ATOM     17  O   UNL     1       7.023   4.341  18.220  0.00  0.00    +0.000 OA
ATOM     18  N   UNL     1       6.024   5.429  16.464  0.00  0.00    +0.000 N 
ATOM     19  H   UNL     1       5.175   5.886  16.154  0.00  0.00    +0.000 HD
BRANCH  18  20
ATOM     20  C   UNL     1       7.166   5.342  15.582  0.00  0.00    +0.000 C 
BRANCH  20  21
ATOM     21  C   UNL     1       6.792   4.730  14.253  0.00  0.00    +0.000 A 
ATOM     22  C   UNL     1       5.653   3.904  14.195  0.00  0.00    +0.000 A 
ATOM     23  C   UNL     1       5.264   3.299  13.001  0.00  0.00    +0.000 A 
ATOM     24  C   UNL     1       6.010   3.505  11.846  0.00  0.00    +0.000 A 
ATOM     25  C   UNL     1       7.142   4.320  11.886  0.00  0.00    +0.000 A 
ATOM     26  C   UNL     1       7.549   4.935  13.080  0.00  0.00    +0.000 A 
ATOM     27  C   UNL     1       8.766   5.818  13.069  0.00  0.00    +0.000 C 
ENDBRANCH  20  21
ENDBRANCH  18  20
ENDBRANCH   5  16
TORSDOF 6
ENDMDL
MODEL 4
REMARK VINA RESULT:      -7.6      1.345      1.669
REMARK  Name = 
REMARK  8 active torsions:
REMARK  status: ('A' for Active; 'I' for Inactive)
REMARK    1  A    between atoms: C_1  and  C_2
REMARK    2  A    between atoms: C_2  and  O_3
REMARK    3  A    between atoms: O_3  and  C_4
REMARK    4  A    between atoms: C_7  and  C_8
REMARK    5  A    between atoms: C_12  and  C_13
REMARK    6  A    between atoms: N_15  and  C_16
REMARK    7  A    between atoms: C_16  and  C_17
REMARK    8  A    between atoms: C_22  and  C_23
REMARK                            x       y       z     vdW  Elec       q    Type
REMARK                         _______ _______ _______ _____ _____    ______ ____
ROOT
ATOM      1  C   UNL     1       3.418   5.989  19.072  0.00  0.00    +0.000 A 
ATOM      2  C   UNL     1       2.945   4.981  19.922  0.00  0.00    +0.000 A 
ATOM      3  N   UNL     1       1.966   5.165  20.839  0.00  0.00    +0.000 NA
ATOM      4  C   UNL     1       1.450   6.415  20.878  0.00  0.00    +0.000 A 
ATOM      5  C   UNL     1       1.895   7.428  20.038  0.00  0.00    +0.000 A 
ATOM      6  N   UNL     1       2.885   7.244  19.118  0.00  0.00    +0.000 NA
ENDROOT
BRANCH   1  10
ATOM      7  C   UNL     1       6.533   5.297  16.171  0.00  0.00    +0.000 A 
ATOM      8  C   UNL     1       5.557   6.265  15.946  0.00  0.00    +0.000 A 
ATOM      9  C   UNL     1       4.555   6.496  16.894  0.00  0.00    +0.000 A 
ATOM     10  C   UNL     1       4.489   5.749  18.083  0.00  0.00    +0.000 A 
ATOM     11  C   UNL     1       5.474   4.761  18.277  0.00  0.00    +0.000 A 
ATOM     12  C   UNL     1       6.475   4.526  17.326  0.00  0.00    +0.000 A 
BRANCH   7  13
ATOM     13  O   UNL     1       7.483   5.182  15.197  0.00  0.00    +0.000 OA
BRANCH  13  15
ATOM     14  C   UNL     1       6.267   3.745  13.740  0.00  0.00    +0.000 C 
ATOM     15  C   UNL     1       6.990   5.074  13.860  0.00  0.00    +0.000 C 
ENDBRANCH  13  15
ENDBRANCH   7  13
ENDBRANCH   1  10
BRANCH   5  16
ATOM     16  C   UNL     1       1.263   8.771  20.154  0.00  0.00    +0.000 C 
ATOM     17  O   UNL     1       0.879   9.181  21.242  0.00  0.00    +0.000 OA
ATOM     18  N   UNL     1       1.151   9.494  18.985  0.00  0.00    +0.000 N 
ATOM     19  H   UNL     1       1.488   9.069  18.129  0.00  0.00    +0.000 HD
BRANCH  18  20
ATOM     20  C   UNL     1       0.568  10.816  18.959  0.00  0.00    +0.000 C 
BRANCH  20  21
ATOM     21  C   UNL     1      -0.867  10.778  18.490  0.00  0.00    +0.000 A 
ATOM     22  C   UNL     1      -1.210   9.877  17.463  0.00  0.00    +0.000 A 
ATOM     23  C   UNL     1      -2.514   9.805  16.976  0.00  0.00    +0.000 A 
ATOM     24  C   UNL     1      -3.496  10.635  17.504  0.00  0.00    +0.000 A 
ATOM     25  C   UNL     1      -3.174  11.534  18.522  0.00  0.00    +0.000 A 
ATOM     26  C   UNL     1      -1.865  11.621  19.022  0.00  0.00    +0.000 A 
ATOM     27  C   UNL     1      -1.570  12.593  20.131  0.00  0.00    +0.000 C 
ENDBRANCH  20  21
ENDBRANCH  18  20
ENDBRANCH   5  16
TORSDOF 6
ENDMDL
MODEL 5
REMARK VINA RESULT:      -7.5      3.540      8.214
REMARK  Name = 
REMARK  8 active torsions:
REMARK  status: ('A' for Active; 'I' for Inactive)
REMARK    1  A    between atoms: C_1  and  C_2
REMARK    2  A    between atoms: C_2  and  O_3
REMARK    3  A    between atoms: O_3  and  C_4
REMARK    4  A    between atoms: C_7  and  C_8
REMARK    5  A    between atoms: C_12  and  C_13
REMARK    6  A    between atoms: N_15  and  C_16
REMARK    7  A    between atoms: C_16  and  C_17
REMARK    8  A    between atoms: C_22  and  C_23
REMARK                            x       y       z     vdW  Elec       q    Type
REMARK                         _______ _______ _______ _____ _____    ______ ____
ROOT
ATOM      1  C   UNL     1      -1.478  10.953  19.171  0.00  0.00    +0.000 A 
ATOM      2  C   UNL     1      -1.606  12.126  19.926  0.00  0.00    +0.000 A 
ATOM      3  N   UNL     1      -0.967  12.342  21.100  0.00  0.00    +0.000 NA
ATOM      4  C   UNL     1      -0.165  11.331  21.506  0.00  0.00    +0.000 A 
ATOM      5  C   UNL     1      -0.013  10.163  20.770  0.00  0.00    +0.000 A 
ATOM      6  N   UNL     1      -0.661   9.943  19.590  0.00  0.00    +0.000 NA
ENDROOT
BRANCH   1  10
ATOM      7  C   UNL     1      -3.582  10.378  15.451  0.00  0.00    +0.000 A 
ATOM      8  C   UNL     1      -4.075  11.252  16.417  0.00  0.00    +0.000 A 
ATOM      9  C   UNL     1      -3.384  11.446  17.618  0.00  0.00    +0.000 A 
ATOM     10  C   UNL     1      -2.192  10.754  17.894  0.00  0.00    +0.000 A 
ATOM     11  C   UNL     1      -1.726   9.859  16.911  0.00  0.00    +0.000 A 
ATOM     12  C   UNL     1      -2.420   9.660  15.710  0.00  0.00    +0.000 A 
BRANCH   7  13
ATOM     13  O   UNL     1      -4.318  10.294  14.304  0.00  0.00    +0.000 OA
BRANCH  13  15
ATOM     14  C   UNL     1      -4.589   9.825  11.986  0.00  0.00    +0.000 C 
ATOM     15  C   UNL     1      -3.613   9.834  13.149  0.00  0.00    +0.000 C 
ENDBRANCH  13  15
ENDBRANCH   7  13
ENDBRANCH   1  10
BRANCH   5  16
ATOM     16  C   UNL     1       0.894   9.107  21.298  0.00  0.00    +0.000 C 
ATOM     17  O   UNL     1       1.190   9.086  22.486  0.00  0.00    +0.000 OA
ATOM     18  N   UNL     1       1.356   8.187  20.381  0.00  0.00    +0.000 N 
ATOM     19  H   UNL     1       1.064   8.290  19.417  0.00  0.00    +0.000 HD
BRANCH  18  20
ATOM     20  C   UNL     1       2.233   7.104  20.764  0.00  0.00    +0.000 C 
BRANCH  20  21
ATOM     21  C   UNL     1       1.962   5.860  19.951  0.00  0.00    +0.000 A 
ATOM     22  C   UNL     1       1.230   4.818  20.551  0.00  0.00    +0.000 A 
ATOM     23  C   UNL     1       0.959   3.639  19.858  0.00  0.00    +0.000 A 
ATOM     24  C   UNL     1       1.422   3.480  18.557  0.00  0.00    +0.000 A 
ATOM     25  C   UNL     1       2.150   4.502  17.948  0.00  0.00    +0.000 A 
ATOM     26  C   UNL     1       2.433   5.695  18.632  0.00  0.00    +0.000 A 
ATOM     27  C   UNL     1       3.207   6.775  17.928  0.00  0.00    +0.000 C 
ENDBRANCH  20  21
ENDBRANCH  18  20
ENDBRANCH   5  16
TORSDOF 6
ENDMDL
MODEL 6
REMARK VINA RESULT:      -7.5      1.146      2.206
REMARK  Name = 
REMARK  8 active torsions:
REMARK  status: ('A' for Active; 'I' for Inactive)
REMARK    1  A    between atoms: C_1  and  C_2
REMARK    2  A    between atoms: C_2  and  O_3
REMARK    3  A    between atoms: O_3  and  C_4
REMARK    4  A    between atoms: C_7  and  C_8
REMARK    5  A    between atoms: C_12  and  C_13
REMARK    6  A    between atoms: N_15  and  C_16
REMARK    7  A    between atoms: C_16  and  C_17
REMARK    8  A    between atoms: C_22  and  C_23
REMARK                            x       y       z     vdW  Elec       q    Type
REMARK                         _______ _______ _______ _____ _____    ______ ____
ROOT
ATOM      1  C   UNL     1       2.391   7.304  19.055  0.00  0.00    +0.000 A 
ATOM      2  C   UNL     1       2.064   7.005  20.384  0.00  0.00    +0.000 A 
ATOM      3  N   UNL     1       1.340   7.822  21.186  0.00  0.00    +0.000 NA
ATOM      4  C   UNL     1       0.930   8.973  20.604  0.00  0.00    +0.000 A 
ATOM      5  C   UNL     1       1.233   9.286  19.286  0.00  0.00    +0.000 A 
ATOM      6  N   UNL     1       1.967   8.467  18.480  0.00  0.00    +0.000 NA
ENDROOT
BRANCH   1  10
ATOM      7  C   UNL     1       4.713   4.642  16.581  0.00  0.00    +0.000 A 
ATOM      8  C   UNL     1       4.961   6.013  16.575  0.00  0.00    +0.000 A 
ATOM      9  C   UNL     1       4.215   6.873  17.388  0.00  0.00    +0.000 A 
ATOM     10  C   UNL     1       3.185   6.387  18.212  0.00  0.00    +0.000 A 
ATOM     11  C   UNL     1       2.939   5.001  18.184  0.00  0.00    +0.000 A 
ATOM     12  C   UNL     1       3.683   4.139  17.367  0.00  0.00    +0.000 A 
BRANCH   7  13
ATOM     13  O   UNL     1       5.525   3.894  15.778  0.00  0.00    +0.000 OA
BRANCH  13  15
ATOM     14  C   UNL     1       6.315   3.974  13.534  0.00  0.00    +0.000 C 
ATOM     15  C   UNL     1       6.379   4.631  14.901  0.00  0.00    +0.000 C 
ENDBRANCH  13  15
ENDBRANCH   7  13
ENDBRANCH   1  10
BRANCH   5  16
ATOM     16  C   UNL     1       0.735  10.577  18.734  0.00  0.00    +0.000 C 
ATOM     17  O   UNL     1       1.525  11.417  18.322  0.00  0.00    +0.000 OA
ATOM     18  N   UNL     1      -0.633  10.745  18.719  0.00  0.00    +0.000 N 
ATOM     19  H   UNL     1      -1.208   9.998  19.089  0.00  0.00    +0.000 HD
BRANCH  18  20
ATOM     20  C   UNL     1      -1.247  11.946  18.199  0.00  0.00    +0.000 C 
BRANCH  20  21
ATOM     21  C   UNL     1      -2.752  11.823  18.159  0.00  0.00    +0.000 A 
ATOM     22  C   UNL     1      -3.484  12.208  19.299  0.00  0.00    +0.000 A 
ATOM     23  C   UNL     1      -4.873  12.105  19.330  0.00  0.00    +0.000 A 
ATOM     24  C   UNL     1      -5.555  11.610  18.225  0.00  0.00    +0.000 A 
ATOM     25  C   UNL     1      -4.846  11.223  17.087  0.00  0.00    +0.000 A 
ATOM     26  C   UNL     1      -3.446  11.318  17.039  0.00  0.00    +0.000 A 
ATOM     27  C   UNL     1      -2.728  10.904  15.785  0.00  0.00    +0.000 C 
ENDBRANCH  20  21
ENDBRANCH  18  20
ENDBRANCH   5  16
TORSDOF 6
ENDMDL
MODEL 7
REMARK VINA RESULT:      -7.5      2.987     10.108
REMARK  Name = 
REMARK  8 active torsions:
REMARK  status: ('A' for Active; 'I' for Inactive)
REMARK    1  A    between atoms: C_1  and  C_2
REMARK    2  A    between atoms: C_2  and  O_3
REMARK    3  A    between atoms: O_3  and  C_4
REMARK    4  A    between atoms: C_7  and  C_8
REMARK    5  A    between atoms: C_12  and  C_13
REMARK    6  A    between atoms: N_15  and  C_16
REMARK    7  A    between atoms: C_16  and  C_17
REMARK    8  A    between atoms: C_22  and  C_23
REMARK                            x       y       z     vdW  Elec       q    Type
REMARK                         _______ _______ _______ _____ _____    ______ ____
ROOT
ATOM      1  C   UNL     1       0.781   9.947  19.763  0.00  0.00    +0.000 A 
ATOM      2  C   UNL     1       1.142  10.667  18.617  0.00  0.00    +0.000 A 
ATOM      3  N   UNL     1       1.935  10.176  17.636  0.00  0.00    +0.000 NA
ATOM      4  C   UNL     1       2.362   8.907  17.830  0.00  0.00    +0.000 A 
ATOM      5  C   UNL     1       2.009   8.169  18.952  0.00  0.00    +0.000 A 
ATOM      6  N   UNL     1       1.214   8.665  19.944  0.00  0.00    +0.000 NA
ENDROOT
BRANCH   1  10
ATOM      7  C   UNL     1      -1.753  11.595  22.839  0.00  0.00    +0.000 A 
ATOM      8  C   UNL     1      -0.925  10.507  23.109  0.00  0.00    +0.000 A 
ATOM      9  C   UNL     1      -0.095   9.982  22.113  0.00  0.00    +0.000 A 
ATOM     10  C   UNL     1      -0.087  10.518  20.813  0.00  0.00    +0.000 A 
ATOM     11  C   UNL     1      -0.949  11.602  20.559  0.00  0.00    +0.000 A 
ATOM     12  C   UNL     1      -1.784  12.126  21.555  0.00  0.00    +0.000 A 
BRANCH   7  13
ATOM     13  O   UNL     1      -2.492  12.048  23.894  0.00  0.00    +0.000 OA
BRANCH  13  15
ATOM     14  C   UNL     1      -4.662  12.397  24.808  0.00  0.00    +0.000 C 
ATOM     15  C   UNL     1      -3.793  12.542  23.572  0.00  0.00    +0.000 C 
ENDBRANCH  13  15
ENDBRANCH   7  13
ENDBRANCH   1  10
BRANCH   5  16
ATOM     16  C   UNL     1       2.526   6.778  19.075  0.00  0.00    +0.000 C 
ATOM     17  O   UNL     1       2.442   6.181  20.141  0.00  0.00    +0.000 OA
ATOM     18  N   UNL     1       3.082   6.233  17.938  0.00  0.00    +0.000 N 
ATOM     19  H   UNL     1       3.117   6.806  17.104  0.00  0.00    +0.000 HD
BRANCH  18  20
ATOM     20  C   UNL     1       3.611   4.887  17.918  0.00  0.00    +0.000 C 
BRANCH  20  21
ATOM     21  C   UNL     1       5.119   4.885  18.003  0.00  0.00    +0.000 A 
ATOM     22  C   UNL     1       5.720   5.274  19.215  0.00  0.00    +0.000 A 
ATOM     23  C   UNL     1       7.106   5.307  19.351  0.00  0.00    +0.000 A 
ATOM     24  C   UNL     1       7.916   4.958  18.276  0.00  0.00    +0.000 A 
ATOM     25  C   UNL     1       7.337   4.571  17.067  0.00  0.00    +0.000 A 
ATOM     26  C   UNL     1       5.942   4.534  16.912  0.00  0.00    +0.000 A 
ATOM     27  C   UNL     1       5.364   4.094  15.595  0.00  0.00    +0.000 C 
ENDBRANCH  20  21
ENDBRANCH  18  20
ENDBRANCH   5  16
TORSDOF 6
ENDMDL
MODEL 8
REMARK VINA RESULT:      -7.4      2.944     10.033
REMARK  Name = 
REMARK  8 active torsions:
REMARK  status: ('A' for Active; 'I' for Inactive)
REMARK    1  A    between atoms: C_1  and  C_2
REMARK    2  A    between atoms: C_2  and  O_3
REMARK    3  A    between atoms: O_3  and  C_4
REMARK    4  A    between atoms: C_7  and  C_8
REMARK    5  A    between atoms: C_12  and  C_13
REMARK    6  A    between atoms: N_15  and  C_16
REMARK    7  A    between atoms: C_16  and  C_17
REMARK    8  A    between atoms: C_22  and  C_23
REMARK                            x       y       z     vdW  Elec       q    Type
REMARK                         _______ _______ _______ _____ _____    ______ ____
ROOT
ATOM      1  C   UNL     1       0.776   9.735  19.839  0.00  0.00    +0.000 A 
ATOM      2  C   UNL     1       1.055  10.330  18.602  0.00  0.00    +0.000 A 
ATOM      3  N   UNL     1       1.835   9.764  17.650  0.00  0.00    +0.000 NA
ATOM      4  C   UNL     1       2.333   8.548  17.972  0.00  0.00    +0.000 A 
ATOM      5  C   UNL     1       2.062   7.933  19.187  0.00  0.00    +0.000 A 
ATOM      6  N   UNL     1       1.281   8.505  20.148  0.00  0.00    +0.000 NA
ENDROOT
BRANCH   1  10
ATOM      7  C   UNL     1      -1.720  11.651  22.787  0.00  0.00    +0.000 A 
ATOM      8  C   UNL     1      -1.661  12.138  21.484  0.00  0.00    +0.000 A 
ATOM      9  C   UNL     1      -0.860  11.507  20.526  0.00  0.00    +0.000 A 
ATOM     10  C   UNL     1      -0.079  10.385  20.852  0.00  0.00    +0.000 A 
ATOM     11  C   UNL     1      -0.139   9.925  22.182  0.00  0.00    +0.000 A 
ATOM     12  C   UNL     1      -0.937  10.558  23.143  0.00  0.00    +0.000 A 
BRANCH   7  13
ATOM     13  O   UNL     1      -2.562  12.321  23.628  0.00  0.00    +0.000 OA
BRANCH  13  15
ATOM     14  C   UNL     1      -1.721  14.474  24.198  0.00  0.00    +0.000 C 
ATOM     15  C   UNL     1      -2.730  13.713  23.356  0.00  0.00    +0.000 C 
ENDBRANCH  13  15
ENDBRANCH   7  13
ENDBRANCH   1  10
BRANCH   5  16
ATOM     16  C   UNL     1       2.655   6.592  19.449  0.00  0.00    +0.000 C 
ATOM     17  O   UNL     1       1.993   5.722  20.000  0.00  0.00    +0.000 OA
ATOM     18  N   UNL     1       3.957   6.411  19.035  0.00  0.00    +0.000 N 
ATOM     19  H   UNL     1       4.429   7.192  18.595  0.00  0.00    +0.000 HD
BRANCH  18  20
ATOM     20  C   UNL     1       4.647   5.154  19.218  0.00  0.00    +0.000 C 
BRANCH  20  21
ATOM     21  C   UNL     1       5.462   4.789  17.999  0.00  0.00    +0.000 A 
ATOM     22  C   UNL     1       4.804   4.185  16.912  0.00  0.00    +0.000 A 
ATOM     23  C   UNL     1       5.503   3.812  15.766  0.00  0.00    +0.000 A 
ATOM     24  C   UNL     1       6.874   4.031  15.689  0.00  0.00    +0.000 A 
ATOM     25  C   UNL     1       7.543   4.628  16.758  0.00  0.00    +0.000 A 
ATOM     26  C   UNL     1       6.854   5.008  17.921  0.00  0.00    +0.000 A 
ATOM     27  C   UNL     1       7.616   5.663  19.040  0.00  0.00    +0.000 C 
ENDBRANCH  20  21
ENDBRANCH  18  20
ENDBRANCH   5  16
TORSDOF 6
ENDMDL
MODEL 9
REMARK VINA RESULT:      -7.4      1.274      1.503
REMARK  Name = 
REMARK  8 active torsions:
REMARK  status: ('A' for Active; 'I' for Inactive)
REMARK    1  A    between atoms: C_1  and  C_2
REMARK    2  A    between atoms: C_2  and  O_3
REMARK    3  A    between atoms: O_3  and  C_4
REMARK    4  A    between atoms: C_7  and  C_8
REMARK    5  A    between atoms: C_12  and  C_13
REMARK    6  A    between atoms: N_15  and  C_16
REMARK    7  A    between atoms: C_16  and  C_17
REMARK    8  A    between atoms: C_22  and  C_23
REMARK                            x       y       z     vdW  Elec       q    Type
REMARK                         _______ _______ _______ _____ _____    ______ ____
ROOT
ATOM      1  C   UNL     1       3.354   5.389  18.644  0.00  0.00    +0.000 A 
ATOM      2  C   UNL     1       2.882   4.371  19.482  0.00  0.00    +0.000 A 
ATOM      3  N   UNL     1       2.034   4.579  20.518  0.00  0.00    +0.000 NA
ATOM      4  C   UNL     1       1.651   5.865  20.691  0.00  0.00    +0.000 A 
ATOM      5  C   UNL     1       2.098   6.889  19.866  0.00  0.00    +0.000 A 
ATOM      6  N   UNL     1       2.956   6.681  18.827  0.00  0.00    +0.000 NA
ENDROOT
BRANCH   1  10
ATOM      7  C   UNL     1       6.063   4.592  15.384  0.00  0.00    +0.000 A 
ATOM      8  C   UNL     1       5.549   3.548  16.149  0.00  0.00    +0.000 A 
ATOM      9  C   UNL     1       4.661   3.809  17.199  0.00  0.00    +0.000 A 
ATOM     10  C   UNL     1       4.280   5.122  17.524  0.00  0.00    +0.000 A 
ATOM     11  C   UNL     1       4.831   6.161  16.749  0.00  0.00    +0.000 A 
ATOM     12  C   UNL     1       5.723   5.903  15.701  0.00  0.00    +0.000 A 
BRANCH   7  13
ATOM     13  O   UNL     1       6.890   4.221  14.363  0.00  0.00    +0.000 OA
BRANCH  13  15
ATOM     14  C   UNL     1       5.992   3.250  12.384  0.00  0.00    +0.000 C 
ATOM     15  C   UNL     1       6.434   4.541  13.047  0.00  0.00    +0.000 C 
ENDBRANCH  13  15
ENDBRANCH   7  13
ENDBRANCH   1  10
BRANCH   5  16
ATOM     16  C   UNL     1       1.619   8.273  20.135  0.00  0.00    +0.000 C 
ATOM     17  O   UNL     1       1.404   8.640  21.283  0.00  0.00    +0.000 OA
ATOM     18  N   UNL     1       1.446   9.082  19.032  0.00  0.00    +0.000 N 
ATOM     19  H   UNL     1       1.640   8.689  18.119  0.00  0.00    +0.000 HD
BRANCH  18  20
ATOM     20  C   UNL     1       0.997  10.451  19.153  0.00  0.00    +0.000 C 
BRANCH  20  21
ATOM     21  C   UNL     1      -0.432  10.606  18.691  0.00  0.00    +0.000 A 
ATOM     22  C   UNL     1      -0.879   9.806  17.621  0.00  0.00    +0.000 A 
ATOM     23  C   UNL     1      -2.182   9.913  17.139  0.00  0.00    +0.000 A 
ATOM     24  C   UNL     1      -3.059  10.825  17.714  0.00  0.00    +0.000 A 
ATOM     25  C   UNL     1      -2.634  11.626  18.775  0.00  0.00    +0.000 A 
ATOM     26  C   UNL     1      -1.324  11.533  19.271  0.00  0.00    +0.000 A 
ATOM     27  C   UNL     1      -0.917  12.405  20.426  0.00  0.00    +0.000 C 
ENDBRANCH  20  21
ENDBRANCH  18  20
ENDBRANCH   5  16
TORSDOF 6
ENDMDL
