MODEL 1
REMARK VINA RESULT:      -7.0      0.000      0.000
REMARK  Name = 
REMARK  6 active torsions:
REMARK  status: ('A' for Active; 'I' for Inactive)
REMARK    1  A    between atoms: C_1  and  C_2
REMARK    2  A    between atoms: C_5  and  C_6
REMARK    3  A    between atoms: N_8  and  C_9
REMARK    4  A    between atoms: C_9  and  C_10
REMARK    5  A    between atoms: C_10  and  C_11
REMARK    6  A    between atoms: C_11  and  C_12
REMARK                            x       y       z     vdW  Elec       q    Type
REMARK                         _______ _______ _______ _____ _____    ______ ____
ROOT
ATOM      1  C   UNL     1       5.406   5.656  17.111  0.00  0.00    +0.000 C 
ATOM      2  C   UNL     1       4.507   6.906  17.015  0.00  0.00    +0.000 C 
ATOM      3  N   UNL     1       3.436   6.184  17.748  0.00  0.00    +0.000 NA
ATOM      4  C   UNL     1       4.058   4.911  17.297  0.00  0.00    +0.000 C 
ENDROOT
BRANCH   1   9
ATOM      5  C   UNL     1       6.392   3.688  12.732  0.00  0.00    +0.000 C 
ATOM      6  C   UNL     1       6.579   4.432  13.988  0.00  0.00    +0.000 A 
ATOM      7  N   UNL     1       7.651   5.191  14.238  0.00  0.00    +0.000 NA
ATOM      8  O   UNL     1       7.357   5.759  15.478  0.00  0.00    +0.000 OA
ATOM      9  C   UNL     1       6.134   5.270  15.850  0.00  0.00    +0.000 A 
ATOM     10  N   UNL     1       5.627   4.434  14.971  0.00  0.00    +0.000 NA
ENDBRANCH   1   9
BRANCH   3  11
ATOM     11  C   UNL     1       3.551   6.324  19.211  0.00  0.00    +0.000 C 
BRANCH  11  12
ATOM     12  C   UNL     1       2.220   6.647  19.898  0.00  0.00    +0.000 C 
BRANCH  12  13
ATOM     13  C   UNL     1       1.738   5.528  20.821  0.00  0.00    +0.000 C 
BRANCH  13  14
ATOM     14  C   UNL     1       1.890   4.178  20.168  0.00  0.00    +0.000 A 
ATOM     15  C   UNL     1       2.979   3.356  20.488  0.00  0.00    +0.000 A 
ATOM     16  C   UNL     1       3.128   2.111  19.879  0.00  0.00    +0.000 A 
ATOM     17  C   UNL     1       2.194   1.684  18.938  0.00  0.00    +0.000 A 
ATOM     18  C   UNL     1       1.114   2.496  18.605  0.00  0.00    +0.000 A 
ATOM     19  C   UNL     1       0.963   3.741  19.213  0.00  0.00    +0.000 A 
ENDBRANCH  13  14
ENDBRANCH  12  13
ENDBRANCH  11  12
ENDBRANCH   3  11
TORSDOF 5
ENDMDL
MODEL 2
REMARK VINA RESULT:      -6.9      0.498      1.213
REMARK  Name = 
REMARK  6 active torsions:
REMARK  status: ('A' for Active; 'I' for Inactive)
REMARK    1  A    between atoms: C_1  and  C_2
REMARK    2  A    between atoms: C_5  and  C_6
REMARK    3  A    between atoms: N_8  and  C_9
REMARK    4  A    between atoms: C_9  and  C_10
REMARK    5  A    between atoms: C_10  and  C_11
REMARK    6  A    between atoms: C_11  and  C_12
REMARK                            x       y       z     vdW  Elec       q    Type
REMARK                         _______ _______ _______ _____ _____    ______ ____
ROOT
ATOM      1  C   UNL     1       5.347   5.702  17.230  0.00  0.00    +0.000 C 
ATOM      2  C   UNL     1       4.619   7.062  17.213  0.00  0.00    +0.000 C 
ATOM      3  N   UNL     1       3.421   6.420  17.813  0.00  0.00    +0.000 NA
ATOM      4  C   UNL     1       3.908   5.125  17.270  0.00  0.00    +0.000 C 
ENDROOT
BRANCH   1   9
ATOM      5  C   UNL     1       6.431   3.812  12.840  0.00  0.00    +0.000 C 
ATOM      6  C   UNL     1       6.588   4.538  14.111  0.00  0.00    +0.000 A 
ATOM      7  N   UNL     1       7.648   5.304  14.391  0.00  0.00    +0.000 NA
ATOM      8  O   UNL     1       7.325   5.851  15.634  0.00  0.00    +0.000 OA
ATOM      9  C   UNL     1       6.102   5.343  15.977  0.00  0.00    +0.000 A 
ATOM     10  N   UNL     1       5.619   4.515  15.077  0.00  0.00    +0.000 NA
ENDBRANCH   1   9
BRANCH   3  11
ATOM     11  C   UNL     1       3.458   6.408  19.287  0.00  0.00    +0.000 C 
BRANCH  11  12
ATOM     12  C   UNL     1       2.073   6.270  19.930  0.00  0.00    +0.000 C 
BRANCH  12  13
ATOM     13  C   UNL     1       1.929   5.001  20.768  0.00  0.00    +0.000 C 
BRANCH  13  14
ATOM     14  C   UNL     1       2.335   3.780  19.985  0.00  0.00    +0.000 A 
ATOM     15  C   UNL     1       1.488   3.257  18.999  0.00  0.00    +0.000 A 
ATOM     16  C   UNL     1       1.857   2.122  18.279  0.00  0.00    +0.000 A 
ATOM     17  C   UNL     1       3.071   1.494  18.549  0.00  0.00    +0.000 A 
ATOM     18  C   UNL     1       3.916   1.998  19.534  0.00  0.00    +0.000 A 
ATOM     19  C   UNL     1       3.549   3.133  20.255  0.00  0.00    +0.000 A 
ENDBRANCH  13  14
ENDBRANCH  12  13
ENDBRANCH  11  12
ENDBRANCH   3  11
TORSDOF 5
ENDMDL
MODEL 3
REMARK VINA RESULT:      -6.9      1.508      1.991
REMARK  Name = 
REMARK  6 active torsions:
REMARK  status: ('A' for Active; 'I' for Inactive)
REMARK    1  A    between atoms: C_1  and  C_2
REMARK    2  A    between atoms: C_5  and  C_6
REMARK    3  A    between atoms: N_8  and  C_9
REMARK    4  A    between atoms: C_9  and  C_10
REMARK    5  A    between atoms: C_10  and  C_11
REMARK    6  A    between atoms: C_11  and  C_12
REMARK                            x       y       z     vdW  Elec       q    Type
REMARK                         _______ _______ _______ _____ _____    ______ ____
ROOT
ATOM      1  C   UNL     1       6.497   5.171  15.456  0.00  0.00    +0.000 C 
ATOM      2  C   UNL     1       5.264   6.078  15.646  0.00  0.00    +0.000 C 
ATOM      3  N   UNL     1       4.925   5.344  16.892  0.00  0.00    +0.000 NA
ATOM      4  C   UNL     1       5.705   4.194  16.366  0.00  0.00    +0.000 C 
ENDROOT
BRANCH   1   9
ATOM      5  C   UNL     1       6.046   2.499  11.372  0.00  0.00    +0.000 C 
ATOM      6  C   UNL     1       6.550   3.511  12.315  0.00  0.00    +0.000 A 
ATOM      7  N   UNL     1       7.427   4.461  11.971  0.00  0.00    +0.000 NA
ATOM      8  O   UNL     1       7.538   5.226  13.134  0.00  0.00    +0.000 OA
ATOM      9  C   UNL     1       6.719   4.644  14.063  0.00  0.00    +0.000 A 
ATOM     10  N   UNL     1       6.105   3.574  13.608  0.00  0.00    +0.000 NA
ENDBRANCH   1   9
BRANCH   3  11
ATOM     11  C   UNL     1       5.580   5.909  18.085  0.00  0.00    +0.000 C 
BRANCH  11  12
ATOM     12  C   UNL     1       4.718   5.830  19.350  0.00  0.00    +0.000 C 
BRANCH  12  13
ATOM     13  C   UNL     1       3.249   6.165  19.092  0.00  0.00    +0.000 C 
BRANCH  13  14
ATOM     14  C   UNL     1       2.366   4.966  19.320  0.00  0.00    +0.000 A 
ATOM     15  C   UNL     1       2.041   4.564  20.622  0.00  0.00    +0.000 A 
ATOM     16  C   UNL     1       1.232   3.449  20.836  0.00  0.00    +0.000 A 
ATOM     17  C   UNL     1       0.751   2.722  19.749  0.00  0.00    +0.000 A 
ATOM     18  C   UNL     1       1.076   3.107  18.452  0.00  0.00    +0.000 A 
ATOM     19  C   UNL     1       1.884   4.221  18.235  0.00  0.00    +0.000 A 
ENDBRANCH  13  14
ENDBRANCH  12  13
ENDBRANCH  11  12
ENDBRANCH   3  11
TORSDOF 5
ENDMDL
MODEL 4
REMARK VINA RESULT:      -6.7      1.323      1.769
REMARK  Name = 
REMARK  6 active torsions:
REMARK  status: ('A' for Active; 'I' for Inactive)
REMARK    1  A    between atoms: C_1  and  C_2
REMARK    2  A    between atoms: C_5  and  C_6
REMARK    3  A    between atoms: N_8  and  C_9
REMARK    4  A    between atoms: C_9  and  C_10
REMARK    5  A    between atoms: C_10  and  C_11
REMARK    6  A    between atoms: C_11  and  C_12
REMARK                            x       y       z     vdW  Elec       q    Type
REMARK                         _______ _______ _______ _____ _____    ______ ____
ROOT
ATOM      1  C   UNL     1       5.918   4.898  16.035  0.00  0.00    +0.000 C 
ATOM      2  C   UNL     1       6.808   5.381  17.198  0.00  0.00    +0.000 C 
ATOM      3  N   UNL     1       5.732   6.311  17.627  0.00  0.00    +0.000 NA
ATOM      4  C   UNL     1       5.209   6.263  16.236  0.00  0.00    +0.000 C 
ENDROOT
BRANCH   1   9
ATOM      5  C   UNL     1       6.972   3.404  11.488  0.00  0.00    +0.000 C 
ATOM      6  C   UNL     1       7.069   4.137  12.761  0.00  0.00    +0.000 A 
ATOM      7  N   UNL     1       7.908   5.161  12.955  0.00  0.00    +0.000 NA
ATOM      8  O   UNL     1       7.591   5.590  14.245  0.00  0.00    +0.000 OA
ATOM      9  C   UNL     1       6.596   4.767  14.697  0.00  0.00    +0.000 A 
ATOM     10  N   UNL     1       6.256   3.845  13.822  0.00  0.00    +0.000 NA
ENDBRANCH   1   9
BRANCH   3  11
ATOM     11  C   UNL     1       4.776   5.687  18.559  0.00  0.00    +0.000 C 
BRANCH  11  12
ATOM     12  C   UNL     1       3.586   6.589  18.905  0.00  0.00    +0.000 C 
BRANCH  12  13
ATOM     13  C   UNL     1       2.275   6.113  18.279  0.00  0.00    +0.000 C 
BRANCH  13  14
ATOM     14  C   UNL     1       1.814   4.818  18.897  0.00  0.00    +0.000 A 
ATOM     15  C   UNL     1       1.662   4.710  20.285  0.00  0.00    +0.000 A 
ATOM     16  C   UNL     1       1.244   3.511  20.860  0.00  0.00    +0.000 A 
ATOM     17  C   UNL     1       0.985   2.407  20.050  0.00  0.00    +0.000 A 
ATOM     18  C   UNL     1       1.142   2.500  18.670  0.00  0.00    +0.000 A 
ATOM     19  C   UNL     1       1.559   3.698  18.093  0.00  0.00    +0.000 A 
ENDBRANCH  13  14
ENDBRANCH  12  13
ENDBRANCH  11  12
ENDBRANCH   3  11
TORSDOF 5
ENDMDL
MODEL 5
REMARK VINA RESULT:      -6.6      1.517      2.119
REMARK  Name = 
REMARK  6 active torsions:
REMARK  status: ('A' for Active; 'I' for Inactive)
REMARK    1  A    between atoms: C_1  and  C_2
REMARK    2  A    between atoms: C_5  and  C_6
REMARK    3  A    between atoms: N_8  and  C_9
REMARK    4  A    between atoms: C_9  and  C_10
REMARK    5  A    between atoms: C_10  and  C_11
REMARK    6  A    between atoms: C_11  and  C_12
REMARK                            x       y       z     vdW  Elec       q    Type
REMARK                         _______ _______ _______ _____ _____    ______ ____
ROOT
ATOM      1  C   UNL     1       6.435   5.092  15.493  0.00  0.00    +0.000 C 
ATOM      2  C   UNL     1       5.299   6.118  15.679  0.00  0.00    +0.000 C 
ATOM      3  N   UNL     1       4.843   5.383  16.887  0.00  0.00    +0.000 NA
ATOM      4  C   UNL     1       5.516   4.175  16.342  0.00  0.00    +0.000 C 
ENDROOT
BRANCH   1   9
ATOM      5  C   UNL     1       5.954   2.498  11.363  0.00  0.00    +0.000 C 
ATOM      6  C   UNL     1       6.465   3.491  12.321  0.00  0.00    +0.000 A 
ATOM      7  N   UNL     1       7.339   4.447  11.989  0.00  0.00    +0.000 NA
ATOM      8  O   UNL     1       7.460   5.190  13.164  0.00  0.00    +0.000 OA
ATOM      9  C   UNL     1       6.647   4.592  14.088  0.00  0.00    +0.000 A 
ATOM     10  N   UNL     1       6.030   3.530  13.617  0.00  0.00    +0.000 NA
ENDBRANCH   1   9
BRANCH   3  11
ATOM     11  C   UNL     1       5.514   5.836  18.118  0.00  0.00    +0.000 C 
BRANCH  11  12
ATOM     12  C   UNL     1       4.685   5.601  19.386  0.00  0.00    +0.000 C 
BRANCH  12  13
ATOM     13  C   UNL     1       4.617   4.128  19.789  0.00  0.00    +0.000 C 
BRANCH  13  14
ATOM     14  C   UNL     1       3.218   3.588  19.652  0.00  0.00    +0.000 A 
ATOM     15  C   UNL     1       2.886   2.743  18.585  0.00  0.00    +0.000 A 
ATOM     16  C   UNL     1       1.589   2.249  18.450  0.00  0.00    +0.000 A 
ATOM     17  C   UNL     1       0.612   2.605  19.377  0.00  0.00    +0.000 A 
ATOM     18  C   UNL     1       0.927   3.453  20.436  0.00  0.00    +0.000 A 
ATOM     19  C   UNL     1       2.223   3.947  20.572  0.00  0.00    +0.000 A 
ENDBRANCH  13  14
ENDBRANCH  12  13
ENDBRANCH  11  12
ENDBRANCH   3  11
TORSDOF 5
ENDMDL
MODEL 6
REMARK VINA RESULT:      -6.5      0.965      1.456
REMARK  Name = 
REMARK  6 active torsions:
REMARK  status: ('A' for Active; 'I' for Inactive)
REMARK    1  A    between atoms: C_1  and  C_2
REMARK    2  A    between atoms: C_5  and  C_6
REMARK    3  A    between atoms: N_8  and  C_9
REMARK    4  A    between atoms: C_9  and  C_10
REMARK    5  A    between atoms: C_10  and  C_11
REMARK    6  A    between atoms: C_11  and  C_12
REMARK                            x       y       z     vdW  Elec       q    Type
REMARK                         _______ _______ _______ _____ _____    ______ ____
ROOT
ATOM      1  C   UNL     1       5.365   5.028  16.585  0.00  0.00    +0.000 C 
ATOM      2  C   UNL     1       6.122   5.410  17.873  0.00  0.00    +0.000 C 
ATOM      3  N   UNL     1       5.046   6.376  18.211  0.00  0.00    +0.000 NA
ATOM      4  C   UNL     1       4.702   6.419  16.766  0.00  0.00    +0.000 C 
ENDROOT
BRANCH   1   9
ATOM      5  C   UNL     1       6.859   3.781  12.087  0.00  0.00    +0.000 C 
ATOM      6  C   UNL     1       6.861   4.393  13.425  0.00  0.00    +0.000 A 
ATOM      7  N   UNL     1       7.774   5.288  13.820  0.00  0.00    +0.000 NA
ATOM      8  O   UNL     1       7.334   5.650  15.094  0.00  0.00    +0.000 OA
ATOM      9  C   UNL     1       6.201   4.921  15.337  0.00  0.00    +0.000 A 
ATOM     10  N   UNL     1       5.884   4.120  14.343  0.00  0.00    +0.000 NA
ENDBRANCH   1   9
BRANCH   3  11
ATOM     11  C   UNL     1       3.951   5.763  18.984  0.00  0.00    +0.000 C 
BRANCH  11  12
ATOM     12  C   UNL     1       2.851   6.756  19.376  0.00  0.00    +0.000 C 
BRANCH  12  13
ATOM     13  C   UNL     1       1.816   6.155  20.327  0.00  0.00    +0.000 C 
BRANCH  13  14
ATOM     14  C   UNL     1       1.660   4.674  20.099  0.00  0.00    +0.000 A 
ATOM     15  C   UNL     1       1.332   4.184  18.828  0.00  0.00    +0.000 A 
ATOM     16  C   UNL     1       1.178   2.815  18.616  0.00  0.00    +0.000 A 
ATOM     17  C   UNL     1       1.339   1.927  19.677  0.00  0.00    +0.000 A 
ATOM     18  C   UNL     1       1.653   2.403  20.947  0.00  0.00    +0.000 A 
ATOM     19  C   UNL     1       1.809   3.771  21.161  0.00  0.00    +0.000 A 
ENDBRANCH  13  14
ENDBRANCH  12  13
ENDBRANCH  11  12
ENDBRANCH   3  11
TORSDOF 5
ENDMDL
MODEL 7
REMARK VINA RESULT:      -6.5      1.839      2.629
REMARK  Name = 
REMARK  6 active torsions:
REMARK  status: ('A' for Active; 'I' for Inactive)
REMARK    1  A    between atoms: C_1  and  C_2
REMARK    2  A    between atoms: C_5  and  C_6
REMARK    3  A    between atoms: N_8  and  C_9
REMARK    4  A    between atoms: C_9  and  C_10
REMARK    5  A    between atoms: C_10  and  C_11
REMARK    6  A    between atoms: C_11  and  C_12
REMARK                            x       y       z     vdW  Elec       q    Type
REMARK                         _______ _______ _______ _____ _____    ______ ____
ROOT
ATOM      1  C   UNL     1       5.642   4.784  15.044  0.00  0.00    +0.000 C 
ATOM      2  C   UNL     1       4.805   4.074  16.127  0.00  0.00    +0.000 C 
ATOM      3  N   UNL     1       5.883   4.327  17.117  0.00  0.00    +0.000 NA
ATOM      4  C   UNL     1       6.832   4.436  15.977  0.00  0.00    +0.000 C 
ENDROOT
BRANCH   1   9
ATOM      5  C   UNL     1       7.352   2.320  11.168  0.00  0.00    +0.000 C 
ATOM      6  C   UNL     1       6.420   3.054  12.040  0.00  0.00    +0.000 A 
ATOM      7  N   UNL     1       5.110   3.153  11.793  0.00  0.00    +0.000 NA
ATOM      8  O   UNL     1       4.627   3.842  12.907  0.00  0.00    +0.000 OA
ATOM      9  C   UNL     1       5.709   4.095  13.706  0.00  0.00    +0.000 A 
ATOM     10  N   UNL     1       6.837   3.644  13.202  0.00  0.00    +0.000 NA
ENDBRANCH   1   9
BRANCH   3  11
ATOM     11  C   UNL     1       5.741   5.628  17.796  0.00  0.00    +0.000 C 
BRANCH  11  12
ATOM     12  C   UNL     1       5.028   5.534  19.149  0.00  0.00    +0.000 C 
BRANCH  12  13
ATOM     13  C   UNL     1       3.594   6.062  19.105  0.00  0.00    +0.000 C 
BRANCH  13  14
ATOM     14  C   UNL     1       2.597   4.956  19.327  0.00  0.00    +0.000 A 
ATOM     15  C   UNL     1       2.202   4.608  20.626  0.00  0.00    +0.000 A 
ATOM     16  C   UNL     1       1.286   3.578  20.836  0.00  0.00    +0.000 A 
ATOM     17  C   UNL     1       0.766   2.881  19.747  0.00  0.00    +0.000 A 
ATOM     18  C   UNL     1       1.160   3.210  18.453  0.00  0.00    +0.000 A 
ATOM     19  C   UNL     1       2.074   4.240  18.241  0.00  0.00    +0.000 A 
ENDBRANCH  13  14
ENDBRANCH  12  13
ENDBRANCH  11  12
ENDBRANCH   3  11
TORSDOF 5
ENDMDL
MODEL 8
REMARK VINA RESULT:      -6.5      1.378      2.020
REMARK  Name = 
REMARK  6 active torsions:
REMARK  status: ('A' for Active; 'I' for Inactive)
REMARK    1  A    between atoms: C_1  and  C_2
REMARK    2  A    between atoms: C_5  and  C_6
REMARK    3  A    between atoms: N_8  and  C_9
REMARK    4  A    between atoms: C_9  and  C_10
REMARK    5  A    between atoms: C_10  and  C_11
REMARK    6  A    between atoms: C_11  and  C_12
REMARK                            x       y       z     vdW  Elec       q    Type
REMARK                         _______ _______ _______ _____ _____    ______ ____
ROOT
ATOM      1  C   UNL     1       5.937   5.332  15.688  0.00  0.00    +0.000 C 
ATOM      2  C   UNL     1       4.672   4.673  16.273  0.00  0.00    +0.000 C 
ATOM      3  N   UNL     1       5.322   4.622  17.607  0.00  0.00    +0.000 NA
ATOM      4  C   UNL     1       6.635   4.680  16.911  0.00  0.00    +0.000 C 
ENDROOT
BRANCH   1   9
ATOM      5  C   UNL     1       6.230   2.628  11.612  0.00  0.00    +0.000 C 
ATOM      6  C   UNL     1       6.562   3.640  12.627  0.00  0.00    +0.000 A 
ATOM      7  N   UNL     1       7.505   4.572  12.451  0.00  0.00    +0.000 NA
ATOM      8  O   UNL     1       7.406   5.347  13.608  0.00  0.00    +0.000 OA
ATOM      9  C   UNL     1       6.413   4.788  14.367  0.00  0.00    +0.000 A 
ATOM     10  N   UNL     1       5.879   3.724  13.810  0.00  0.00    +0.000 NA
ENDBRANCH   1   9
BRANCH   3  11
ATOM     11  C   UNL     1       5.103   5.847  18.396  0.00  0.00    +0.000 C 
BRANCH  11  12
ATOM     12  C   UNL     1       3.707   6.453  18.207  0.00  0.00    +0.000 C 
BRANCH  12  13
ATOM     13  C   UNL     1       2.844   6.368  19.465  0.00  0.00    +0.000 C 
BRANCH  13  14
ATOM     14  C   UNL     1       2.172   5.024  19.577  0.00  0.00    +0.000 A 
ATOM     15  C   UNL     1       1.750   4.346  18.426  0.00  0.00    +0.000 A 
ATOM     16  C   UNL     1       1.119   3.106  18.527  0.00  0.00    +0.000 A 
ATOM     17  C   UNL     1       0.898   2.541  19.782  0.00  0.00    +0.000 A 
ATOM     18  C   UNL     1       1.304   3.211  20.932  0.00  0.00    +0.000 A 
ATOM     19  C   UNL     1       1.935   4.450  20.834  0.00  0.00    +0.000 A 
ENDBRANCH  13  14
ENDBRANCH  12  13
ENDBRANCH  11  12
ENDBRANCH   3  11
TORSDOF 5
ENDMDL
MODEL 9
REMARK VINA RESULT:      -6.5      2.293      3.729
REMARK  Name = 
REMARK  6 active torsions:
REMARK  status: ('A' for Active; 'I' for Inactive)
REMARK    1  A    between atoms: C_1  and  C_2
REMARK    2  A    between atoms: C_5  and  C_6
REMARK    3  A    between atoms: N_8  and  C_9
REMARK    4  A    between atoms: C_9  and  C_10
REMARK    5  A    between atoms: C_10  and  C_11
REMARK    6  A    between atoms: C_11  and  C_12
REMARK                            x       y       z     vdW  Elec       q    Type
REMARK                         _______ _______ _______ _____ _____    ______ ____
ROOT
ATOM      1  C   UNL     1       6.358   3.845  14.374  0.00  0.00    +0.000 C 
ATOM      2  C   UNL     1       7.150   5.167  14.315  0.00  0.00    +0.000 C 
ATOM      3  N   UNL     1       6.466   5.625  15.550  0.00  0.00    +0.000 NA
ATOM      4  C   UNL     1       5.367   4.676  15.231  0.00  0.00    +0.000 C 
ENDROOT
BRANCH   1   9
ATOM      5  C   UNL     1       3.402   3.433  10.487  0.00  0.00    +0.000 C 
ATOM      6  C   UNL     1       4.517   3.171  11.411  0.00  0.00    +0.000 A 
ATOM      7  N   UNL     1       5.529   2.345  11.123  0.00  0.00    +0.000 NA
ATOM      8  O   UNL     1       6.373   2.479  12.226  0.00  0.00    +0.000 OA
ATOM      9  C   UNL     1       5.770   3.370  13.072  0.00  0.00    +0.000 A 
ATOM     10  N   UNL     1       4.616   3.807  12.618  0.00  0.00    +0.000 NA
ENDBRANCH   1   9
BRANCH   3  11
ATOM     11  C   UNL     1       7.166   5.209  16.779  0.00  0.00    +0.000 C 
BRANCH  11  12
ATOM     12  C   UNL     1       6.847   6.093  17.991  0.00  0.00    +0.000 C 
BRANCH  12  13
ATOM     13  C   UNL     1       6.107   5.342  19.097  0.00  0.00    +0.000 C 
BRANCH  13  14
ATOM     14  C   UNL     1       4.678   5.065  18.708  0.00  0.00    +0.000 A 
ATOM     15  C   UNL     1       4.219   3.746  18.594  0.00  0.00    +0.000 A 
ATOM     16  C   UNL     1       2.900   3.486  18.225  0.00  0.00    +0.000 A 
ATOM     17  C   UNL     1       2.034   4.544  17.957  0.00  0.00    +0.000 A 
ATOM     18  C   UNL     1       2.482   5.858  18.057  0.00  0.00    +0.000 A 
ATOM     19  C   UNL     1       3.800   6.120  18.426  0.00  0.00    +0.000 A 
ENDBRANCH  13  14
ENDBRANCH  12  13
ENDBRANCH  11  12
ENDBRANCH   3  11
TORSDOF 5
ENDMDL
