MODEL 1
REMARK VINA RESULT:      -7.6      0.000      0.000
REMARK  Name = 
REMARK  8 active torsions:
REMARK  status: ('A' for Active; 'I' for Inactive)
REMARK    1  A    between atoms: C_1  and  C_2
REMARK    2  A    between atoms: N_4  and  C_5
REMARK    3  A    between atoms: C_10  and  C_11
REMARK    4  A    between atoms: C_16  and  O_17
REMARK    5  A    between atoms: C_18  and  N_19
REMARK    6  A    between atoms: C_20  and  C_22
REMARK    7  A    between atoms: C_22  and  C_23
REMARK    8  A    between atoms: C_23  and  N_24
REMARK                            x       y       z     vdW  Elec       q    Type
REMARK                         _______ _______ _______ _____ _____    ______ ____
ROOT
ATOM      1  C   UNL     1       0.345  10.269  19.821  0.00  0.00    +0.000 A 
ATOM      2  C   UNL     1      -0.469   9.765  18.838  0.00  0.00    +0.000 A 
ATOM      3  C   UNL     1       0.266   9.388  17.728  0.00  0.00    +0.000 A 
ATOM      4  N   UNL     1       1.588   9.125  17.785  0.00  0.00    +0.000 NA
ATOM      5  C   UNL     1       1.966   8.712  18.972  0.00  0.00    +0.000 A 
ATOM      6  C   UNL     1       2.576   7.452  18.833  0.00  0.00    +0.000 A 
ATOM      7  C   UNL     1       2.230   6.327  19.586  0.00  0.00    +0.000 A 
ATOM      8  C   UNL     1       1.559   6.663  20.781  0.00  0.00    +0.000 A 
ATOM      9  C   UNL     1       1.160   8.058  21.060  0.00  0.00    +0.000 A 
ATOM     10  C   UNL     1       1.290   9.178  20.106  0.00  0.00    +0.000 A 
ENDROOT
BRANCH   1  16
ATOM     11  C   UNL     1      -0.435  12.961  19.676  0.00  0.00    +0.000 A 
ATOM     12  C   UNL     1      -0.187  14.309  19.245  0.00  0.00    +0.000 A 
ATOM     13  C   UNL     1       1.045  14.725  18.781  0.00  0.00    +0.000 A 
ATOM     14  C   UNL     1       2.038  13.789  18.726  0.00  0.00    +0.000 A 
ATOM     15  C   UNL     1       1.755  12.432  19.031  0.00  0.00    +0.000 A 
ATOM     16  C   UNL     1       0.491  11.914  19.501  0.00  0.00    +0.000 A 
BRANCH  11  20
ATOM     17  C   UNL     1      -2.820  12.472  22.446  0.00  0.00    +0.000 C 
ATOM     18  C   UNL     1      -1.513  12.816  21.820  0.00  0.00    +0.000 C 
ATOM     19  O   UNL     1      -0.534  13.091  22.510  0.00  0.00    +0.000 OA
ATOM     20  N   UNL     1      -1.593  12.772  20.430  0.00  0.00    +0.000 N 
ATOM     21  H   UNL     1      -2.289  12.156  20.040  0.00  0.00    +0.000 HD
ENDBRANCH  11  20
ENDBRANCH   1  16
BRANCH   7  22
ATOM     22  N   UNL     1       2.569   5.034  19.045  0.00  0.00    +0.000 N 
ATOM     23  C   UNL     1       1.997   4.466  17.874  0.00  0.00    +0.000 C 
ATOM     24  O   UNL     1       0.922   4.819  17.384  0.00  0.00    +0.000 OA
ATOM     25  H   UNL     1       3.584   4.959  18.987  0.00  0.00    +0.000 HD
BRANCH  23  26
ATOM     26  C   UNL     1       2.873   3.277  17.234  0.00  0.00    +0.000 C 
BRANCH  26  27
ATOM     27  C   UNL     1       4.401   3.563  17.025  0.00  0.00    +0.000 C 
BRANCH  27  28
ATOM     28  N   UNL     1       4.913   4.957  16.779  0.00  0.00    +0.000 NA
ATOM     29  C   UNL     1       5.324   5.351  15.412  0.00  0.00    +0.000 C 
ATOM     30  C   UNL     1       6.675   4.788  14.915  0.00  0.00    +0.000 C 
ATOM     31  O   UNL     1       7.742   4.954  15.860  0.00  0.00    +0.000 OA
ATOM     32  C   UNL     1       7.360   4.490  17.160  0.00  0.00    +0.000 C 
ATOM     33  C   UNL     1       6.105   5.244  17.640  0.00  0.00    +0.000 C 
ENDBRANCH  27  28
ENDBRANCH  26  27
ENDBRANCH  23  26
ENDBRANCH   7  22
BRANCH   6  34
ATOM     34  O   UNL     1       3.277   7.206  17.659  0.00  0.00    +0.000 OA
ATOM     35  H   UNL     1       2.824   7.815  17.033  0.00  0.00    +0.000 HD
ENDBRANCH   6  34
TORSDOF 7
ENDMDL
MODEL 2
REMARK VINA RESULT:      -7.6      1.190      1.221
REMARK  Name = 
REMARK  8 active torsions:
REMARK  status: ('A' for Active; 'I' for Inactive)
REMARK    1  A    between atoms: C_1  and  C_2
REMARK    2  A    between atoms: N_4  and  C_5
REMARK    3  A    between atoms: C_10  and  C_11
REMARK    4  A    between atoms: C_16  and  O_17
REMARK    5  A    between atoms: C_18  and  N_19
REMARK    6  A    between atoms: C_20  and  C_22
REMARK    7  A    between atoms: C_22  and  C_23
REMARK    8  A    between atoms: C_23  and  N_24
REMARK                            x       y       z     vdW  Elec       q    Type
REMARK                         _______ _______ _______ _____ _____    ______ ____
ROOT
ATOM      1  C   UNL     1       0.391  10.202  19.658  0.00  0.00    +0.000 A 
ATOM      2  C   UNL     1      -0.388   9.684  18.654  0.00  0.00    +0.000 A 
ATOM      3  C   UNL     1       0.384   9.315  17.566  0.00  0.00    +0.000 A 
ATOM      4  N   UNL     1       1.707   9.070  17.662  0.00  0.00    +0.000 NA
ATOM      5  C   UNL     1       2.057   8.665  18.860  0.00  0.00    +0.000 A 
ATOM      6  C   UNL     1       2.687   7.414  18.743  0.00  0.00    +0.000 A 
ATOM      7  C   UNL     1       2.335   6.286  19.488  0.00  0.00    +0.000 A 
ATOM      8  C   UNL     1       1.626   6.616  20.663  0.00  0.00    +0.000 A 
ATOM      9  C   UNL     1       1.200   8.005  20.927  0.00  0.00    +0.000 A 
ATOM     10  C   UNL     1       1.342   9.125  19.973  0.00  0.00    +0.000 A 
ENDROOT
BRANCH   1  16
ATOM     11  C   UNL     1      -0.462  12.855  19.326  0.00  0.00    +0.000 A 
ATOM     12  C   UNL     1      -0.197  14.207  18.919  0.00  0.00    +0.000 A 
ATOM     13  C   UNL     1       1.080  14.673  18.674  0.00  0.00    +0.000 A 
ATOM     14  C   UNL     1       2.104  13.780  18.814  0.00  0.00    +0.000 A 
ATOM     15  C   UNL     1       1.828  12.416  19.090  0.00  0.00    +0.000 A 
ATOM     16  C   UNL     1       0.523  11.848  19.337  0.00  0.00    +0.000 A 
BRANCH  11  20
ATOM     17  C   UNL     1      -4.055  12.146  19.755  0.00  0.00    +0.000 C 
ATOM     18  C   UNL     1      -2.762  12.223  19.021  0.00  0.00    +0.000 C 
ATOM     19  O   UNL     1      -2.696  11.953  17.824  0.00  0.00    +0.000 OA
ATOM     20  N   UNL     1      -1.727  12.624  19.864  0.00  0.00    +0.000 N 
ATOM     21  H   UNL     1      -1.989  13.187  20.659  0.00  0.00    +0.000 HD
ENDBRANCH  11  20
ENDBRANCH   1  16
BRANCH   7  22
ATOM     22  N   UNL     1       2.708   4.996  18.961  0.00  0.00    +0.000 N 
ATOM     23  C   UNL     1       2.073   4.352  17.864  0.00  0.00    +0.000 C 
ATOM     24  O   UNL     1       0.939   4.621  17.461  0.00  0.00    +0.000 OA
ATOM     25  H   UNL     1       3.716   4.981  18.815  0.00  0.00    +0.000 HD
BRANCH  23  26
ATOM     26  C   UNL     1       2.964   3.195  17.187  0.00  0.00    +0.000 C 
BRANCH  26  27
ATOM     27  C   UNL     1       4.486   3.509  16.980  0.00  0.00    +0.000 C 
BRANCH  27  28
ATOM     28  N   UNL     1       4.971   4.911  16.723  0.00  0.00    +0.000 NA
ATOM     29  C   UNL     1       5.354   5.309  15.349  0.00  0.00    +0.000 C 
ATOM     30  C   UNL     1       6.706   4.768  14.832  0.00  0.00    +0.000 C 
ATOM     31  O   UNL     1       7.785   4.954  15.760  0.00  0.00    +0.000 OA
ATOM     32  C   UNL     1       7.431   4.487  17.066  0.00  0.00    +0.000 C 
ATOM     33  C   UNL     1       6.171   5.220  17.565  0.00  0.00    +0.000 C 
ENDBRANCH  27  28
ENDBRANCH  26  27
ENDBRANCH  23  26
ENDBRANCH   7  22
BRANCH   6  34
ATOM     34  O   UNL     1       3.425   7.174  17.589  0.00  0.00    +0.000 OA
ATOM     35  H   UNL     1       2.966   6.383  17.229  0.00  0.00    +0.000 HD
ENDBRANCH   6  34
TORSDOF 7
ENDMDL
MODEL 3
REMARK VINA RESULT:      -7.4      1.211      1.388
REMARK  Name = 
REMARK  8 active torsions:
REMARK  status: ('A' for Active; 'I' for Inactive)
REMARK    1  A    between atoms: C_1  and  C_2
REMARK    2  A    between atoms: N_4  and  C_5
REMARK    3  A    between atoms: C_10  and  C_11
REMARK    4  A    between atoms: C_16  and  O_17
REMARK    5  A    between atoms: C_18  and  N_19
REMARK    6  A    between atoms: C_20  and  C_22
REMARK    7  A    between atoms: C_22  and  C_23
REMARK    8  A    between atoms: C_23  and  N_24
REMARK                            x       y       z     vdW  Elec       q    Type
REMARK                         _______ _______ _______ _____ _____    ______ ____
ROOT
ATOM      1  C   UNL     1      -0.332  10.715  20.219  0.00  0.00    +0.000 A 
ATOM      2  C   UNL     1      -1.176  10.130  19.310  0.00  0.00    +0.000 A 
ATOM      3  C   UNL     1      -0.572  10.015  18.071  0.00  0.00    +0.000 A 
ATOM      4  N   UNL     1       0.767  10.040  17.909  0.00  0.00    +0.000 NA
ATOM      5  C   UNL     1       1.409   9.621  18.974  0.00  0.00    +0.000 A 
ATOM      6  C   UNL     1       2.228   8.540  18.606  0.00  0.00    +0.000 A 
ATOM      7  C   UNL     1       2.243   7.307  19.265  0.00  0.00    +0.000 A 
ATOM      8  C   UNL     1       1.722   7.390  20.574  0.00  0.00    +0.000 A 
ATOM      9  C   UNL     1       1.102   8.637  21.066  0.00  0.00    +0.000 A 
ATOM     10  C   UNL     1       0.847   9.835  20.240  0.00  0.00    +0.000 A 
ENDROOT
BRANCH   1  16
ATOM     11  C   UNL     1      -1.326  13.257  20.872  0.00  0.00    +0.000 A 
ATOM     12  C   UNL     1      -1.519  14.642  20.542  0.00  0.00    +0.000 A 
ATOM     13  C   UNL     1      -0.840  15.262  19.511  0.00  0.00    +0.000 A 
ATOM     14  C   UNL     1       0.025  14.493  18.787  0.00  0.00    +0.000 A 
ATOM     15  C   UNL     1       0.117  13.098  19.032  0.00  0.00    +0.000 A 
ATOM     16  C   UNL     1      -0.573  12.374  20.074  0.00  0.00    +0.000 A 
BRANCH  11  20
ATOM     17  C   UNL     1      -3.488  12.288  23.699  0.00  0.00    +0.000 C 
ATOM     18  C   UNL     1      -3.154  12.569  22.275  0.00  0.00    +0.000 C 
ATOM     19  O   UNL     1      -4.017  12.527  21.402  0.00  0.00    +0.000 OA
ATOM     20  N   UNL     1      -1.800  12.863  22.123  0.00  0.00    +0.000 N 
ATOM     21  H   UNL     1      -1.334  13.255  22.926  0.00  0.00    +0.000 HD
ENDBRANCH  11  20
ENDBRANCH   1  16
BRANCH   7  22
ATOM     22  N   UNL     1       2.742   6.168  18.535  0.00  0.00    +0.000 N 
ATOM     23  C   UNL     1       2.216   4.850  18.624  0.00  0.00    +0.000 C 
ATOM     24  O   UNL     1       1.531   4.437  19.562  0.00  0.00    +0.000 OA
ATOM     25  H   UNL     1       2.832   6.423  17.553  0.00  0.00    +0.000 HD
BRANCH  23  26
ATOM     26  C   UNL     1       2.617   3.907  17.384  0.00  0.00    +0.000 C 
BRANCH  26  27
ATOM     27  C   UNL     1       4.126   3.908  16.958  0.00  0.00    +0.000 C 
BRANCH  27  28
ATOM     28  N   UNL     1       4.844   5.185  16.614  0.00  0.00    +0.000 NA
ATOM     29  C   UNL     1       5.445   5.344  15.269  0.00  0.00    +0.000 C 
ATOM     30  C   UNL     1       6.752   4.562  15.008  0.00  0.00    +0.000 C 
ATOM     31  O   UNL     1       7.727   4.721  16.049  0.00  0.00    +0.000 OA
ATOM     32  C   UNL     1       7.152   4.481  17.338  0.00  0.00    +0.000 C 
ATOM     33  C   UNL     1       5.967   5.437  17.573  0.00  0.00    +0.000 C 
ENDBRANCH  27  28
ENDBRANCH  26  27
ENDBRANCH  23  26
ENDBRANCH   7  22
BRANCH   6  34
ATOM     34  O   UNL     1       2.764   8.549  17.323  0.00  0.00    +0.000 OA
ATOM     35  H   UNL     1       2.742   9.510  17.113  0.00  0.00    +0.000 HD
ENDBRANCH   6  34
TORSDOF 7
ENDMDL
MODEL 4
REMARK VINA RESULT:      -7.4      2.164      3.211
REMARK  Name = 
REMARK  8 active torsions:
REMARK  status: ('A' for Active; 'I' for Inactive)
REMARK    1  A    between atoms: C_1  and  C_2
REMARK    2  A    between atoms: N_4  and  C_5
REMARK    3  A    between atoms: C_10  and  C_11
REMARK    4  A    between atoms: C_16  and  O_17
REMARK    5  A    between atoms: C_18  and  N_19
REMARK    6  A    between atoms: C_20  and  C_22
REMARK    7  A    between atoms: C_22  and  C_23
REMARK    8  A    between atoms: C_23  and  N_24
REMARK                            x       y       z     vdW  Elec       q    Type
REMARK                         _______ _______ _______ _____ _____    ______ ____
ROOT
ATOM      1  C   UNL     1       0.187  11.073  19.571  0.00  0.00    +0.000 A 
ATOM      2  C   UNL     1       1.185  11.417  20.449  0.00  0.00    +0.000 A 
ATOM      3  C   UNL     1       1.248  10.526  21.505  0.00  0.00    +0.000 A 
ATOM      4  N   UNL     1       0.735   9.280  21.438  0.00  0.00    +0.000 NA
ATOM      5  C   UNL     1       0.705   8.815  20.212  0.00  0.00    +0.000 A 
ATOM      6  C   UNL     1       1.431   7.612  20.172  0.00  0.00    +0.000 A 
ATOM      7  C   UNL     1       2.446   7.338  19.250  0.00  0.00    +0.000 A 
ATOM      8  C   UNL     1       2.369   8.159  18.106  0.00  0.00    +0.000 A 
ATOM      9  C   UNL     1       1.397   9.269  18.031  0.00  0.00    +0.000 A 
ATOM     10  C   UNL     1       0.532   9.708  19.146  0.00  0.00    +0.000 A 
ENDROOT
BRANCH   1  16
ATOM     11  C   UNL     1      -2.250  12.459  19.436  0.00  0.00    +0.000 A 
ATOM     12  C   UNL     1      -3.326  13.153  20.087  0.00  0.00    +0.000 A 
ATOM     13  C   UNL     1      -3.521  13.107  21.454  0.00  0.00    +0.000 A 
ATOM     14  C   UNL     1      -2.626  12.379  22.185  0.00  0.00    +0.000 A 
ATOM     15  C   UNL     1      -1.493  11.802  21.555  0.00  0.00    +0.000 A 
ATOM     16  C   UNL     1      -1.207  11.823  20.140  0.00  0.00    +0.000 A 
BRANCH  11  20
ATOM     17  C   UNL     1      -2.752  11.082  16.052  0.00  0.00    +0.000 C 
ATOM     18  C   UNL     1      -2.798  11.085  17.541  0.00  0.00    +0.000 C 
ATOM     19  O   UNL     1      -3.171  10.095  18.164  0.00  0.00    +0.000 OA
ATOM     20  N   UNL     1      -2.375  12.309  18.056  0.00  0.00    +0.000 N 
ATOM     21  H   UNL     1      -1.735  12.838  17.485  0.00  0.00    +0.000 HD
ENDBRANCH  11  20
ENDBRANCH   1  16
BRANCH   7  22
ATOM     22  N   UNL     1       3.403   6.317  19.598  0.00  0.00    +0.000 N 
ATOM     23  C   UNL     1       3.152   4.919  19.557  0.00  0.00    +0.000 C 
ATOM     24  O   UNL     1       2.028   4.413  19.570  0.00  0.00    +0.000 OA
ATOM     25  H   UNL     1       4.278   6.511  19.114  0.00  0.00    +0.000 HD
BRANCH  23  26
ATOM     26  C   UNL     1       4.487   4.021  19.516  0.00  0.00    +0.000 C 
BRANCH  26  27
ATOM     27  C   UNL     1       5.563   4.408  18.443  0.00  0.00    +0.000 C 
BRANCH  27  28
ATOM     28  N   UNL     1       5.187   5.130  17.178  0.00  0.00    +0.000 NA
ATOM     29  C   UNL     1       5.525   4.529  15.867  0.00  0.00    +0.000 C 
ATOM     30  C   UNL     1       7.010   4.603  15.444  0.00  0.00    +0.000 C 
ATOM     31  O   UNL     1       7.578   5.913  15.592  0.00  0.00    +0.000 OA
ATOM     32  C   UNL     1       7.315   6.448  16.894  0.00  0.00    +0.000 C 
ATOM     33  C   UNL     1       5.796   6.498  17.146  0.00  0.00    +0.000 C 
ENDBRANCH  27  28
ENDBRANCH  26  27
ENDBRANCH  23  26
ENDBRANCH   7  22
BRANCH   6  34
ATOM     34  O   UNL     1       1.414   6.816  21.311  0.00  0.00    +0.000 OA
ATOM     35  H   UNL     1       2.371   6.782  21.536  0.00  0.00    +0.000 HD
ENDBRANCH   6  34
TORSDOF 7
ENDMDL
MODEL 5
REMARK VINA RESULT:      -7.3      1.832      3.001
REMARK  Name = 
REMARK  8 active torsions:
REMARK  status: ('A' for Active; 'I' for Inactive)
REMARK    1  A    between atoms: C_1  and  C_2
REMARK    2  A    between atoms: N_4  and  C_5
REMARK    3  A    between atoms: C_10  and  C_11
REMARK    4  A    between atoms: C_16  and  O_17
REMARK    5  A    between atoms: C_18  and  N_19
REMARK    6  A    between atoms: C_20  and  C_22
REMARK    7  A    between atoms: C_22  and  C_23
REMARK    8  A    between atoms: C_23  and  N_24
REMARK                            x       y       z     vdW  Elec       q    Type
REMARK                         _______ _______ _______ _____ _____    ______ ____
ROOT
ATOM      1  C   UNL     1      -0.135  10.771  20.282  0.00  0.00    +0.000 A 
ATOM      2  C   UNL     1      -1.090  10.242  19.449  0.00  0.00    +0.000 A 
ATOM      3  C   UNL     1      -0.606  10.105  18.161  0.00  0.00    +0.000 A 
ATOM      4  N   UNL     1       0.713  10.056  17.880  0.00  0.00    +0.000 NA
ATOM      5  C   UNL     1       1.422   9.592  18.881  0.00  0.00    +0.000 A 
ATOM      6  C   UNL     1       2.143   8.470  18.436  0.00  0.00    +0.000 A 
ATOM      7  C   UNL     1       2.146   7.233  19.086  0.00  0.00    +0.000 A 
ATOM      8  C   UNL     1       1.750   7.333  20.437  0.00  0.00    +0.000 A 
ATOM      9  C   UNL     1       1.248   8.608  20.988  0.00  0.00    +0.000 A 
ATOM     10  C   UNL     1       0.988   9.825  20.192  0.00  0.00    +0.000 A 
ENDROOT
BRANCH   1  16
ATOM     11  C   UNL     1      -1.326  13.291  20.613  0.00  0.00    +0.000 A 
ATOM     12  C   UNL     1      -1.359  14.699  20.332  0.00  0.00    +0.000 A 
ATOM     13  C   UNL     1      -0.298  15.367  19.752  0.00  0.00    +0.000 A 
ATOM     14  C   UNL     1       0.801  14.624  19.429  0.00  0.00    +0.000 A 
ATOM     15  C   UNL     1       0.781  13.214  19.588  0.00  0.00    +0.000 A 
ATOM     16  C   UNL     1      -0.294  12.441  20.165  0.00  0.00    +0.000 A 
BRANCH  11  20
ATOM     17  C   UNL     1      -3.122  12.130  23.617  0.00  0.00    +0.000 C 
ATOM     18  C   UNL     1      -2.007  12.761  22.856  0.00  0.00    +0.000 C 
ATOM     19  O   UNL     1      -0.990  13.147  23.427  0.00  0.00    +0.000 OA
ATOM     20  N   UNL     1      -2.300  12.828  21.495  0.00  0.00    +0.000 N 
ATOM     21  H   UNL     1      -2.937  12.132  21.140  0.00  0.00    +0.000 HD
ENDBRANCH  11  20
ENDBRANCH   1  16
BRANCH   7  22
ATOM     22  N   UNL     1       2.512   6.074  18.310  0.00  0.00    +0.000 N 
ATOM     23  C   UNL     1       3.844   5.706  17.976  0.00  0.00    +0.000 C 
ATOM     24  O   UNL     1       4.804   6.481  17.989  0.00  0.00    +0.000 OA
ATOM     25  H   UNL     1       2.029   5.261  18.688  0.00  0.00    +0.000 HD
BRANCH  23  26
ATOM     26  C   UNL     1       4.003   4.164  17.543  0.00  0.00    +0.000 C 
BRANCH  26  27
ATOM     27  C   UNL     1       2.686   3.401  17.165  0.00  0.00    +0.000 C 
BRANCH  27  28
ATOM     28  N   UNL     1       2.190   2.239  17.983  0.00  0.00    +0.000 NA
ATOM     29  C   UNL     1       0.938   2.378  18.763  0.00  0.00    +0.000 C 
ATOM     30  C   UNL     1       1.028   3.223  20.054  0.00  0.00    +0.000 C 
ATOM     31  O   UNL     1       2.139   2.866  20.890  0.00  0.00    +0.000 OA
ATOM     32  C   UNL     1       3.357   2.818  20.139  0.00  0.00    +0.000 C 
ATOM     33  C   UNL     1       3.222   1.811  18.980  0.00  0.00    +0.000 C 
ENDBRANCH  27  28
ENDBRANCH  26  27
ENDBRANCH  23  26
ENDBRANCH   7  22
BRANCH   6  34
ATOM     34  O   UNL     1       2.561   8.461  17.111  0.00  0.00    +0.000 OA
ATOM     35  H   UNL     1       3.324   9.081  17.146  0.00  0.00    +0.000 HD
ENDBRANCH   6  34
TORSDOF 7
ENDMDL
MODEL 6
REMARK VINA RESULT:      -7.3      2.069      3.240
REMARK  Name = 
REMARK  8 active torsions:
REMARK  status: ('A' for Active; 'I' for Inactive)
REMARK    1  A    between atoms: C_1  and  C_2
REMARK    2  A    between atoms: N_4  and  C_5
REMARK    3  A    between atoms: C_10  and  C_11
REMARK    4  A    between atoms: C_16  and  O_17
REMARK    5  A    between atoms: C_18  and  N_19
REMARK    6  A    between atoms: C_20  and  C_22
REMARK    7  A    between atoms: C_22  and  C_23
REMARK    8  A    between atoms: C_23  and  N_24
REMARK                            x       y       z     vdW  Elec       q    Type
REMARK                         _______ _______ _______ _____ _____    ______ ____
ROOT
ATOM      1  C   UNL     1      -0.150  11.038  20.219  0.00  0.00    +0.000 A 
ATOM      2  C   UNL     1      -1.128  10.466  19.446  0.00  0.00    +0.000 A 
ATOM      3  C   UNL     1      -0.671  10.223  18.163  0.00  0.00    +0.000 A 
ATOM      4  N   UNL     1       0.640  10.130  17.863  0.00  0.00    +0.000 NA
ATOM      5  C   UNL     1       1.361   9.730  18.884  0.00  0.00    +0.000 A 
ATOM      6  C   UNL     1       2.055   8.565  18.512  0.00  0.00    +0.000 A 
ATOM      7  C   UNL     1       2.050   7.380  19.253  0.00  0.00    +0.000 A 
ATOM      8  C   UNL     1       1.682   7.588  20.599  0.00  0.00    +0.000 A 
ATOM      9  C   UNL     1       1.212   8.910  21.062  0.00  0.00    +0.000 A 
ATOM     10  C   UNL     1       0.956  10.069  20.181  0.00  0.00    +0.000 A 
ENDROOT
BRANCH   1  16
ATOM     11  C   UNL     1      -1.205  13.622  20.511  0.00  0.00    +0.000 A 
ATOM     12  C   UNL     1      -1.248  15.002  20.114  0.00  0.00    +0.000 A 
ATOM     13  C   UNL     1      -0.282  15.575  19.311  0.00  0.00    +0.000 A 
ATOM     14  C   UNL     1       0.729  14.764  18.881  0.00  0.00    +0.000 A 
ATOM     15  C   UNL     1       0.700  13.375  19.168  0.00  0.00    +0.000 A 
ATOM     16  C   UNL     1      -0.284  12.697  19.980  0.00  0.00    +0.000 A 
BRANCH  11  20
ATOM     17  C   UNL     1      -4.095  12.653  22.586  0.00  0.00    +0.000 C 
ATOM     18  C   UNL     1      -3.336  12.861  21.322  0.00  0.00    +0.000 C 
ATOM     19  O   UNL     1      -3.865  12.672  20.228  0.00  0.00    +0.000 OA
ATOM     20  N   UNL     1      -2.031  13.275  21.579  0.00  0.00    +0.000 N 
ATOM     21  H   UNL     1      -1.880  13.768  22.445  0.00  0.00    +0.000 HD
ENDBRANCH  11  20
ENDBRANCH   1  16
BRANCH   7  22
ATOM     22  N   UNL     1       2.383   6.160  18.560  0.00  0.00    +0.000 N 
ATOM     23  C   UNL     1       3.699   5.763  18.198  0.00  0.00    +0.000 C 
ATOM     24  O   UNL     1       4.657   6.534  18.103  0.00  0.00    +0.000 OA
ATOM     25  H   UNL     1       1.919   5.382  19.026  0.00  0.00    +0.000 HD
BRANCH  23  26
ATOM     26  C   UNL     1       3.840   4.190  17.888  0.00  0.00    +0.000 C 
BRANCH  26  27
ATOM     27  C   UNL     1       4.284   3.275  19.081  0.00  0.00    +0.000 C 
BRANCH  27  28
ATOM     28  N   UNL     1       3.348   2.263  19.686  0.00  0.00    +0.000 NA
ATOM     29  C   UNL     1       2.016   2.046  19.075  0.00  0.00    +0.000 C 
ATOM     30  C   UNL     1       0.961   3.146  19.329  0.00  0.00    +0.000 C 
ATOM     31  O   UNL     1       0.858   3.526  20.710  0.00  0.00    +0.000 OA
ATOM     32  C   UNL     1       2.146   3.814  21.265  0.00  0.00    +0.000 C 
ATOM     33  C   UNL     1       3.068   2.589  21.120  0.00  0.00    +0.000 C 
ENDBRANCH  27  28
ENDBRANCH  26  27
ENDBRANCH  23  26
ENDBRANCH   7  22
BRANCH   6  34
ATOM     34  O   UNL     1       2.447   8.449  17.184  0.00  0.00    +0.000 OA
ATOM     35  H   UNL     1       1.745   8.967  16.730  0.00  0.00    +0.000 HD
ENDBRANCH   6  34
TORSDOF 7
ENDMDL
MODEL 7
REMARK VINA RESULT:      -7.3      1.571      2.619
REMARK  Name = 
REMARK  8 active torsions:
REMARK  status: ('A' for Active; 'I' for Inactive)
REMARK    1  A    between atoms: C_1  and  C_2
REMARK    2  A    between atoms: N_4  and  C_5
REMARK    3  A    between atoms: C_10  and  C_11
REMARK    4  A    between atoms: C_16  and  O_17
REMARK    5  A    between atoms: C_18  and  N_19
REMARK    6  A    between atoms: C_20  and  C_22
REMARK    7  A    between atoms: C_22  and  C_23
REMARK    8  A    between atoms: C_23  and  N_24
REMARK                            x       y       z     vdW  Elec       q    Type
REMARK                         _______ _______ _______ _____ _____    ______ ____
ROOT
ATOM      1  C   UNL     1      -0.683  11.284  20.494  0.00  0.00    +0.000 A 
ATOM      2  C   UNL     1      -1.593  10.640  19.693  0.00  0.00    +0.000 A 
ATOM      3  C   UNL     1      -1.129  10.538  18.394  0.00  0.00    +0.000 A 
ATOM      4  N   UNL     1       0.180  10.633  18.079  0.00  0.00    +0.000 NA
ATOM      5  C   UNL     1       0.961  10.266  19.067  0.00  0.00    +0.000 A 
ATOM      6  C   UNL     1       1.792   9.225  18.617  0.00  0.00    +0.000 A 
ATOM      7  C   UNL     1       1.950   8.005  19.282  0.00  0.00    +0.000 A 
ATOM      8  C   UNL     1       1.578   8.080  20.641  0.00  0.00    +0.000 A 
ATOM      9  C   UNL     1       0.951   9.299  21.190  0.00  0.00    +0.000 A 
ATOM     10  C   UNL     1       0.536  10.468  20.387  0.00  0.00    +0.000 A 
ENDROOT
BRANCH   1  16
ATOM     11  C   UNL     1      -0.317  13.957  19.722  0.00  0.00    +0.000 A 
ATOM     12  C   UNL     1      -0.701  15.339  19.797  0.00  0.00    +0.000 A 
ATOM     13  C   UNL     1      -1.896  15.749  20.356  0.00  0.00    +0.000 A 
ATOM     14  C   UNL     1      -2.710  14.777  20.863  0.00  0.00    +0.000 A 
ATOM     15  C   UNL     1      -2.271  13.428  20.903  0.00  0.00    +0.000 A 
ATOM     16  C   UNL     1      -1.031  12.924  20.361  0.00  0.00    +0.000 A 
BRANCH  11  20
ATOM     17  C   UNL     1       3.009  13.468  18.206  0.00  0.00    +0.000 C 
ATOM     18  C   UNL     1       2.036  13.680  19.313  0.00  0.00    +0.000 C 
ATOM     19  O   UNL     1       2.418  13.839  20.470  0.00  0.00    +0.000 OA
ATOM     20  N   UNL     1       0.724  13.667  18.842  0.00  0.00    +0.000 N 
ATOM     21  H   UNL     1       0.592  13.938  17.880  0.00  0.00    +0.000 HD
ENDBRANCH  11  20
ENDBRANCH   1  16
BRANCH   7  22
ATOM     22  N   UNL     1       2.425   6.883  18.510  0.00  0.00    +0.000 N 
ATOM     23  C   UNL     1       2.615   5.569  19.017  0.00  0.00    +0.000 C 
ATOM     24  O   UNL     1       2.744   5.297  20.213  0.00  0.00    +0.000 OA
ATOM     25  H   UNL     1       1.888   6.831  17.646  0.00  0.00    +0.000 HD
BRANCH  23  26
ATOM     26  C   UNL     1       2.675   4.436  17.876  0.00  0.00    +0.000 C 
BRANCH  26  27
ATOM     27  C   UNL     1       3.997   4.354  17.035  0.00  0.00    +0.000 C 
BRANCH  27  28
ATOM     28  N   UNL     1       4.856   5.567  16.802  0.00  0.00    +0.000 NA
ATOM     29  C   UNL     1       5.501   5.760  15.483  0.00  0.00    +0.000 C 
ATOM     30  C   UNL     1       6.721   4.861  15.180  0.00  0.00    +0.000 C 
ATOM     31  O   UNL     1       7.684   4.834  16.244  0.00  0.00    +0.000 OA
ATOM     32  C   UNL     1       7.058   4.562  17.502  0.00  0.00    +0.000 C 
ATOM     33  C   UNL     1       5.978   5.621  17.793  0.00  0.00    +0.000 C 
ENDBRANCH  27  28
ENDBRANCH  26  27
ENDBRANCH  23  26
ENDBRANCH   7  22
BRANCH   6  34
ATOM     34  O   UNL     1       2.176   9.243  17.282  0.00  0.00    +0.000 OA
ATOM     35  H   UNL     1       1.683   8.468  16.930  0.00  0.00    +0.000 HD
ENDBRANCH   6  34
TORSDOF 7
ENDMDL
MODEL 8
REMARK VINA RESULT:      -7.3      1.725      2.578
REMARK  Name = 
REMARK  8 active torsions:
REMARK  status: ('A' for Active; 'I' for Inactive)
REMARK    1  A    between atoms: C_1  and  C_2
REMARK    2  A    between atoms: N_4  and  C_5
REMARK    3  A    between atoms: C_10  and  C_11
REMARK    4  A    between atoms: C_16  and  O_17
REMARK    5  A    between atoms: C_18  and  N_19
REMARK    6  A    between atoms: C_20  and  C_22
REMARK    7  A    between atoms: C_22  and  C_23
REMARK    8  A    between atoms: C_23  and  N_24
REMARK                            x       y       z     vdW  Elec       q    Type
REMARK                         _______ _______ _______ _____ _____    ______ ____
ROOT
ATOM      1  C   UNL     1       0.457  12.115  18.988  0.00  0.00    +0.000 A 
ATOM      2  C   UNL     1       1.731  12.456  19.367  0.00  0.00    +0.000 A 
ATOM      3  C   UNL     1       2.043  11.920  20.603  0.00  0.00    +0.000 A 
ATOM      4  N   UNL     1       1.386  10.864  21.125  0.00  0.00    +0.000 NA
ATOM      5  C   UNL     1       0.876  10.084  20.202  0.00  0.00    +0.000 A 
ATOM      6  C   UNL     1       1.386   8.786  20.381  0.00  0.00    +0.000 A 
ATOM      7  C   UNL     1       1.977   8.029  19.365  0.00  0.00    +0.000 A 
ATOM      8  C   UNL     1       1.612   8.477  18.078  0.00  0.00    +0.000 A 
ATOM      9  C   UNL     1       0.822   9.712  17.900  0.00  0.00    +0.000 A 
ATOM     10  C   UNL     1       0.459  10.644  18.988  0.00  0.00    +0.000 A 
ENDROOT
BRANCH   1  16
ATOM     11  C   UNL     1      -1.570  13.203  20.595  0.00  0.00    +0.000 A 
ATOM     12  C   UNL     1      -2.417  14.306  20.955  0.00  0.00    +0.000 A 
ATOM     13  C   UNL     1      -2.188  15.595  20.513  0.00  0.00    +0.000 A 
ATOM     14  C   UNL     1      -1.117  15.787  19.688  0.00  0.00    +0.000 A 
ATOM     15  C   UNL     1      -0.360  14.677  19.232  0.00  0.00    +0.000 A 
ATOM     16  C   UNL     1      -0.549  13.301  19.629  0.00  0.00    +0.000 A 
BRANCH  11  20
ATOM     17  C   UNL     1      -1.287  10.678  23.268  0.00  0.00    +0.000 C 
ATOM     18  C   UNL     1      -1.137  12.022  22.644  0.00  0.00    +0.000 C 
ATOM     19  O   UNL     1      -0.567  12.936  23.237  0.00  0.00    +0.000 OA
ATOM     20  N   UNL     1      -1.710  12.056  21.374  0.00  0.00    +0.000 N 
ATOM     21  H   UNL     1      -1.755  11.178  20.880  0.00  0.00    +0.000 HD
ENDBRANCH  11  20
ENDBRANCH   1  16
BRANCH   7  22
ATOM     22  N   UNL     1       2.859   6.958  19.760  0.00  0.00    +0.000 N 
ATOM     23  C   UNL     1       2.533   5.575  19.711  0.00  0.00    +0.000 C 
ATOM     24  O   UNL     1       1.383   5.133  19.673  0.00  0.00    +0.000 OA
ATOM     25  H   UNL     1       3.765   7.101  19.318  0.00  0.00    +0.000 HD
BRANCH  23  26
ATOM     26  C   UNL     1       3.817   4.605  19.736  0.00  0.00    +0.000 C 
BRANCH  26  27
ATOM     27  C   UNL     1       5.039   5.032  18.851  0.00  0.00    +0.000 C 
BRANCH  27  28
ATOM     28  N   UNL     1       4.849   5.587  17.465  0.00  0.00    +0.000 NA
ATOM     29  C   UNL     1       5.253   4.776  16.293  0.00  0.00    +0.000 C 
ATOM     30  C   UNL     1       6.771   4.674  16.023  0.00  0.00    +0.000 C 
ATOM     31  O   UNL     1       7.439   5.944  16.047  0.00  0.00    +0.000 OA
ATOM     32  C   UNL     1       7.105   6.683  17.227  0.00  0.00    +0.000 C 
ATOM     33  C   UNL     1       5.580   6.885  17.308  0.00  0.00    +0.000 C 
ENDBRANCH  27  28
ENDBRANCH  26  27
ENDBRANCH  23  26
ENDBRANCH   7  22
BRANCH   6  34
ATOM     34  O   UNL     1       1.664   8.381  21.681  0.00  0.00    +0.000 OA
ATOM     35  H   UNL     1       2.183   7.561  21.520  0.00  0.00    +0.000 HD
ENDBRANCH   6  34
TORSDOF 7
ENDMDL
MODEL 9
REMARK VINA RESULT:      -7.2      1.008      1.382
REMARK  Name = 
REMARK  8 active torsions:
REMARK  status: ('A' for Active; 'I' for Inactive)
REMARK    1  A    between atoms: C_1  and  C_2
REMARK    2  A    between atoms: N_4  and  C_5
REMARK    3  A    between atoms: C_10  and  C_11
REMARK    4  A    between atoms: C_16  and  O_17
REMARK    5  A    between atoms: C_18  and  N_19
REMARK    6  A    between atoms: C_20  and  C_22
REMARK    7  A    between atoms: C_22  and  C_23
REMARK    8  A    between atoms: C_23  and  N_24
REMARK                            x       y       z     vdW  Elec       q    Type
REMARK                         _______ _______ _______ _____ _____    ______ ____
ROOT
ATOM      1  C   UNL     1      -0.272  10.569  20.187  0.00  0.00    +0.000 A 
ATOM      2  C   UNL     1      -1.068  10.000  19.224  0.00  0.00    +0.000 A 
ATOM      3  C   UNL     1      -0.381   9.855  18.032  0.00  0.00    +0.000 A 
ATOM      4  N   UNL     1       0.966   9.839  17.965  0.00  0.00    +0.000 NA
ATOM      5  C   UNL     1       1.518   9.412  19.076  0.00  0.00    +0.000 A 
ATOM      6  C   UNL     1       2.328   8.303  18.775  0.00  0.00    +0.000 A 
ATOM      7  C   UNL     1       2.259   7.077  19.442  0.00  0.00    +0.000 A 
ATOM      8  C   UNL     1       1.650   7.188  20.710  0.00  0.00    +0.000 A 
ATOM      9  C   UNL     1       1.035   8.457  21.148  0.00  0.00    +0.000 A 
ATOM     10  C   UNL     1       0.875   9.654  20.297  0.00  0.00    +0.000 A 
ENDROOT
BRANCH   1  16
ATOM     11  C   UNL     1      -1.472  13.090  20.469  0.00  0.00    +0.000 A 
ATOM     12  C   UNL     1      -1.531  14.486  20.136  0.00  0.00    +0.000 A 
ATOM     13  C   UNL     1      -0.501  15.139  19.486  0.00  0.00    +0.000 A 
ATOM     14  C   UNL     1       0.591  14.393  19.146  0.00  0.00    +0.000 A 
ATOM     15  C   UNL     1       0.591  12.990  19.361  0.00  0.00    +0.000 A 
ATOM     16  C   UNL     1      -0.452  12.232  20.012  0.00  0.00    +0.000 A 
BRANCH  11  20
ATOM     17  C   UNL     1      -3.163  12.137  23.604  0.00  0.00    +0.000 C 
ATOM     18  C   UNL     1      -2.103  12.763  22.765  0.00  0.00    +0.000 C 
ATOM     19  O   UNL     1      -1.118  13.289  23.278  0.00  0.00    +0.000 OA
ATOM     20  N   UNL     1      -2.404  12.654  21.409  0.00  0.00    +0.000 N 
ATOM     21  H   UNL     1      -2.986  11.875  21.140  0.00  0.00    +0.000 HD
ENDBRANCH  11  20
ENDBRANCH   1  16
BRANCH   7  22
ATOM     22  N   UNL     1       2.773   5.916  18.758  0.00  0.00    +0.000 N 
ATOM     23  C   UNL     1       2.115   4.658  18.681  0.00  0.00    +0.000 C 
ATOM     24  O   UNL     1       1.229   4.289  19.455  0.00  0.00    +0.000 OA
ATOM     25  H   UNL     1       3.070   6.192  17.824  0.00  0.00    +0.000 HD
BRANCH  23  26
ATOM     26  C   UNL     1       2.648   3.719  17.488  0.00  0.00    +0.000 C 
BRANCH  26  27
ATOM     27  C   UNL     1       3.852   4.267  16.645  0.00  0.00    +0.000 C 
BRANCH  27  28
ATOM     28  N   UNL     1       5.267   3.837  16.924  0.00  0.00    +0.000 NA
ATOM     29  C   UNL     1       6.120   4.668  17.804  0.00  0.00    +0.000 C 
ATOM     30  C   UNL     1       6.660   5.981  17.192  0.00  0.00    +0.000 C 
ATOM     31  O   UNL     1       7.248   5.802  15.894  0.00  0.00    +0.000 OA
ATOM     32  C   UNL     1       6.375   5.070  15.027  0.00  0.00    +0.000 C 
ATOM     33  C   UNL     1       6.041   3.701  15.649  0.00  0.00    +0.000 C 
ENDBRANCH  27  28
ENDBRANCH  26  27
ENDBRANCH  23  26
ENDBRANCH   7  22
BRANCH   6  34
ATOM     34  O   UNL     1       2.952   8.284  17.533  0.00  0.00    +0.000 OA
ATOM     35  H   UNL     1       3.166   9.236  17.411  0.00  0.00    +0.000 HD
ENDBRANCH   6  34
TORSDOF 7
ENDMDL
