MODEL 1
REMARK VINA RESULT:      -9.5      0.000      0.000
REMARK  Name = 
REMARK  5 active torsions:
REMARK  status: ('A' for Active; 'I' for Inactive)
REMARK    1  A    between atoms: C_1  and  C_2
REMARK    2  A    between atoms: C_6  and  C_7
REMARK    3  A    between atoms: C_7  and  N_8
REMARK    4  A    between atoms: C_17  and  C_18
REMARK    5  A    between atoms: C_19  and  C_20
REMARK                            x       y       z     vdW  Elec       q    Type
REMARK                         _______ _______ _______ _____ _____    ______ ____
ROOT
ATOM      1  C   UNL     1       7.363   4.773  13.283  0.00  0.00    +0.000 C 
ATOM      2  C   UNL     1       6.908   4.883  14.711  0.00  0.00    +0.000 A 
ATOM      3  C   UNL     1       6.067   3.972  15.248  0.00  0.00    +0.000 A 
ATOM      4  N   UNL     1       5.745   4.067  16.592  0.00  0.00    +0.000 N 
ATOM      5  C   UNL     1       4.848   3.367  17.367  0.00  0.00    +0.000 A 
ATOM      6  C   UNL     1       4.905   3.872  18.660  0.00  0.00    +0.000 A 
ATOM      7  C   UNL     1       5.988   4.808  18.676  0.00  0.00    +0.000 A 
ATOM      8  C   UNL     1       6.331   5.038  17.364  0.00  0.00    +0.000 A 
ATOM      9  C   UNL     1       7.097   6.050  16.692  0.00  0.00    +0.000 A 
ATOM     10  N   UNL     1       7.389   5.983  15.423  0.00  0.00    +0.000 NA
ENDROOT
BRANCH   9  11
ATOM     11  C   UNL     1       7.497   7.299  17.305  0.00  0.00    +0.000 C 
ATOM     12  C   UNL     1       7.915   8.343  17.741  0.00  0.00    +0.000 C 
BRANCH  12  13
ATOM     13  C   UNL     1       8.460   9.579  18.242  0.00  0.00    +0.000 A 
ATOM     14  C   UNL     1       8.319  10.768  17.519  0.00  0.00    +0.000 A 
ATOM     15  C   UNL     1       8.842  11.962  18.015  0.00  0.00    +0.000 A 
ATOM     16  C   UNL     1       9.517  11.984  19.237  0.00  0.00    +0.000 A 
ATOM     17  C   UNL     1       9.668  10.799  19.958  0.00  0.00    +0.000 A 
ATOM     18  C   UNL     1       9.144   9.601  19.464  0.00  0.00    +0.000 A 
ENDBRANCH  12  13
ENDBRANCH   9  11
BRANCH   6  19
ATOM     19  C   UNL     1       3.927   3.713  19.784  0.00  0.00    +0.000 C 
BRANCH  19  20
ATOM     20  N   UNL     1       2.849   4.713  19.832  0.00  0.00    +0.000 NA
ATOM     21  C   UNL     1       1.845   4.567  18.761  0.00  0.00    +0.000 C 
ATOM     22  C   UNL     1       1.147   3.199  18.756  0.00  0.00    +0.000 C 
ATOM     23  N   UNL     1       0.787   2.731  20.083  0.00  0.00    +0.000 N 
ATOM     24  C   UNL     1       1.357   3.219  21.233  0.00  0.00    +0.000 C 
ATOM     25  O   UNL     1       1.193   2.627  22.298  0.00  0.00    +0.000 OA
ATOM     26  C   UNL     1       2.126   4.548  21.131  0.00  0.00    +0.000 C 
ATOM     27  H   UNL     1       0.334   1.831  20.189  0.00  0.00    +0.000 HD
ENDBRANCH  19  20
ENDBRANCH   6  19
TORSDOF 4
ENDMDL
MODEL 2
REMARK VINA RESULT:      -9.3      1.085      1.780
REMARK  Name = 
REMARK  5 active torsions:
REMARK  status: ('A' for Active; 'I' for Inactive)
REMARK    1  A    between atoms: C_1  and  C_2
REMARK    2  A    between atoms: C_6  and  C_7
REMARK    3  A    between atoms: C_7  and  N_8
REMARK    4  A    between atoms: C_17  and  C_18
REMARK    5  A    between atoms: C_19  and  C_20
REMARK                            x       y       z     vdW  Elec       q    Type
REMARK                         _______ _______ _______ _____ _____    ______ ____
ROOT
ATOM      1  C   UNL     1       7.386   4.876  13.449  0.00  0.00    +0.000 C 
ATOM      2  C   UNL     1       6.917   5.001  14.871  0.00  0.00    +0.000 A 
ATOM      3  C   UNL     1       6.008   4.143  15.384  0.00  0.00    +0.000 A 
ATOM      4  N   UNL     1       5.671   4.245  16.724  0.00  0.00    +0.000 N 
ATOM      5  C   UNL     1       4.717   3.599  17.477  0.00  0.00    +0.000 A 
ATOM      6  C   UNL     1       4.787   4.086  18.776  0.00  0.00    +0.000 A 
ATOM      7  C   UNL     1       5.928   4.947  18.820  0.00  0.00    +0.000 A 
ATOM      8  C   UNL     1       6.307   5.168  17.516  0.00  0.00    +0.000 A 
ATOM      9  C   UNL     1       7.150   6.132  16.868  0.00  0.00    +0.000 A 
ATOM     10  N   UNL     1       7.458   6.059  15.603  0.00  0.00    +0.000 NA
ENDROOT
BRANCH   9  11
ATOM     11  C   UNL     1       7.622   7.346  17.501  0.00  0.00    +0.000 C 
ATOM     12  C   UNL     1       8.032   8.399  17.924  0.00  0.00    +0.000 C 
BRANCH  12  13
ATOM     13  C   UNL     1       8.545   9.663  18.386  0.00  0.00    +0.000 A 
ATOM     14  C   UNL     1       9.158   9.772  19.639  0.00  0.00    +0.000 A 
ATOM     15  C   UNL     1       9.659  10.998  20.075  0.00  0.00    +0.000 A 
ATOM     16  C   UNL     1       9.551  12.133  19.268  0.00  0.00    +0.000 A 
ATOM     17  C   UNL     1       8.933  12.031  18.021  0.00  0.00    +0.000 A 
ATOM     18  C   UNL     1       8.431  10.804  17.581  0.00  0.00    +0.000 A 
ENDBRANCH  12  13
ENDBRANCH   9  11
BRANCH   6  19
ATOM     19  C   UNL     1       3.781   3.981  19.884  0.00  0.00    +0.000 C 
BRANCH  19  20
ATOM     20  N   UNL     1       3.433   2.612  20.295  0.00  0.00    +0.000 NA
ATOM     21  C   UNL     1       2.724   2.534  21.587  0.00  0.00    +0.000 C 
ATOM     22  C   UNL     1       1.409   3.327  21.613  0.00  0.00    +0.000 C 
ATOM     23  N   UNL     1       0.620   3.176  20.403  0.00  0.00    +0.000 N 
ATOM     24  C   UNL     1       1.145   2.737  19.213  0.00  0.00    +0.000 C 
ATOM     25  O   UNL     1       0.497   2.856  18.175  0.00  0.00    +0.000 OA
ATOM     26  C   UNL     1       2.517   2.040  19.260  0.00  0.00    +0.000 C 
ATOM     27  H   UNL     1      -0.260   3.670  20.315  0.00  0.00    +0.000 HD
ENDBRANCH  19  20
ENDBRANCH   6  19
TORSDOF 4
ENDMDL
MODEL 3
REMARK VINA RESULT:      -8.7      1.240      1.743
REMARK  Name = 
REMARK  5 active torsions:
REMARK  status: ('A' for Active; 'I' for Inactive)
REMARK    1  A    between atoms: C_1  and  C_2
REMARK    2  A    between atoms: C_6  and  C_7
REMARK    3  A    between atoms: C_7  and  N_8
REMARK    4  A    between atoms: C_17  and  C_18
REMARK    5  A    between atoms: C_19  and  C_20
REMARK                            x       y       z     vdW  Elec       q    Type
REMARK                         _______ _______ _______ _____ _____    ______ ____
ROOT
ATOM      1  C   UNL     1       7.535   4.670  13.487  0.00  0.00    +0.000 C 
ATOM      2  C   UNL     1       6.864   4.991  14.792  0.00  0.00    +0.000 A 
ATOM      3  C   UNL     1       5.747   4.338  15.182  0.00  0.00    +0.000 A 
ATOM      4  N   UNL     1       5.213   4.607  16.432  0.00  0.00    +0.000 N 
ATOM      5  C   UNL     1       4.049   4.191  17.037  0.00  0.00    +0.000 A 
ATOM      6  C   UNL     1       3.985   4.768  18.298  0.00  0.00    +0.000 A 
ATOM      7  C   UNL     1       5.236   5.433  18.498  0.00  0.00    +0.000 A 
ATOM      8  C   UNL     1       5.860   5.478  17.273  0.00  0.00    +0.000 A 
ATOM      9  C   UNL     1       6.954   6.234  16.733  0.00  0.00    +0.000 A 
ATOM     10  N   UNL     1       7.451   6.005  15.550  0.00  0.00    +0.000 NA
ENDROOT
BRANCH   9  11
ATOM     11  C   UNL     1       7.519   7.405  17.373  0.00  0.00    +0.000 C 
ATOM     12  C   UNL     1       7.975   8.434  17.806  0.00  0.00    +0.000 C 
BRANCH  12  13
ATOM     13  C   UNL     1       8.530   9.676  18.277  0.00  0.00    +0.000 A 
ATOM     14  C   UNL     1       9.249   9.731  19.476  0.00  0.00    +0.000 A 
ATOM     15  C   UNL     1       9.790  10.936  19.921  0.00  0.00    +0.000 A 
ATOM     16  C   UNL     1       9.617  12.105  19.178  0.00  0.00    +0.000 A 
ATOM     17  C   UNL     1       8.894  12.059  17.985  0.00  0.00    +0.000 A 
ATOM     18  C   UNL     1       8.351  10.852  17.537  0.00  0.00    +0.000 A 
ENDBRANCH  12  13
ENDBRANCH   9  11
BRANCH   6  19
ATOM     19  C   UNL     1       2.806   4.922  19.212  0.00  0.00    +0.000 C 
BRANCH  19  20
ATOM     20  N   UNL     1       2.852   4.122  20.445  0.00  0.00    +0.000 NA
ATOM     21  C   UNL     1       1.526   3.710  20.945  0.00  0.00    +0.000 C 
ATOM     22  C   UNL     1       0.722   2.878  19.935  0.00  0.00    +0.000 C 
ATOM     23  N   UNL     1       1.520   1.880  19.245  0.00  0.00    +0.000 N 
ATOM     24  C   UNL     1       2.889   1.933  19.170  0.00  0.00    +0.000 C 
ATOM     25  O   UNL     1       3.489   1.206  18.381  0.00  0.00    +0.000 OA
ATOM     26  C   UNL     1       3.615   2.870  20.152  0.00  0.00    +0.000 C 
ATOM     27  H   UNL     1       1.084   1.288  18.547  0.00  0.00    +0.000 HD
ENDBRANCH  19  20
ENDBRANCH   6  19
TORSDOF 4
ENDMDL
MODEL 4
REMARK VINA RESULT:      -8.1      1.342      2.002
REMARK  Name = 
REMARK  5 active torsions:
REMARK  status: ('A' for Active; 'I' for Inactive)
REMARK    1  A    between atoms: C_1  and  C_2
REMARK    2  A    between atoms: C_6  and  C_7
REMARK    3  A    between atoms: C_7  and  N_8
REMARK    4  A    between atoms: C_17  and  C_18
REMARK    5  A    between atoms: C_19  and  C_20
REMARK                            x       y       z     vdW  Elec       q    Type
REMARK                         _______ _______ _______ _____ _____    ______ ____
ROOT
ATOM      1  C   UNL     1       7.466   4.976  13.064  0.00  0.00    +0.000 C 
ATOM      2  C   UNL     1       6.999   5.037  14.491  0.00  0.00    +0.000 A 
ATOM      3  C   UNL     1       6.081   4.165  14.963  0.00  0.00    +0.000 A 
ATOM      4  N   UNL     1       5.747   4.205  16.307  0.00  0.00    +0.000 N 
ATOM      5  C   UNL     1       4.786   3.534  17.029  0.00  0.00    +0.000 A 
ATOM      6  C   UNL     1       4.863   3.954  18.350  0.00  0.00    +0.000 A 
ATOM      7  C   UNL     1       6.015   4.798  18.434  0.00  0.00    +0.000 A 
ATOM      8  C   UNL     1       6.395   5.079  17.143  0.00  0.00    +0.000 A 
ATOM      9  C   UNL     1       7.249   6.064  16.542  0.00  0.00    +0.000 A 
ATOM     10  N   UNL     1       7.554   6.050  15.274  0.00  0.00    +0.000 NA
ENDROOT
BRANCH   9  11
ATOM     11  C   UNL     1       7.737   7.239  17.234  0.00  0.00    +0.000 C 
ATOM     12  C   UNL     1       8.082   8.279  17.737  0.00  0.00    +0.000 C 
BRANCH  12  13
ATOM     13  C   UNL     1       8.482   9.545  18.296  0.00  0.00    +0.000 A 
ATOM     14  C   UNL     1       9.096   9.611  19.551  0.00  0.00    +0.000 A 
ATOM     15  C   UNL     1       9.488  10.840  20.082  0.00  0.00    +0.000 A 
ATOM     16  C   UNL     1       9.267  12.020  19.369  0.00  0.00    +0.000 A 
ATOM     17  C   UNL     1       8.648  11.960  18.120  0.00  0.00    +0.000 A 
ATOM     18  C   UNL     1       8.255  10.731  17.585  0.00  0.00    +0.000 A 
ENDBRANCH  12  13
ENDBRANCH   9  11
BRANCH   6  19
ATOM     19  C   UNL     1       3.858   3.806  19.453  0.00  0.00    +0.000 C 
BRANCH  19  20
ATOM     20  N   UNL     1       2.448   3.859  19.035  0.00  0.00    +0.000 NA
ATOM     21  C   UNL     1       1.487   3.612  20.128  0.00  0.00    +0.000 C 
ATOM     22  C   UNL     1       1.617   4.605  21.293  0.00  0.00    +0.000 C 
ATOM     23  N   UNL     1       1.807   5.978  20.862  0.00  0.00    +0.000 N 
ATOM     24  C   UNL     1       2.243   6.319  19.606  0.00  0.00    +0.000 C 
ATOM     25  O   UNL     1       2.612   7.468  19.375  0.00  0.00    +0.000 OA
ATOM     26  C   UNL     1       2.174   5.234  18.516  0.00  0.00    +0.000 C 
ATOM     27  H   UNL     1       1.917   6.708  21.556  0.00  0.00    +0.000 HD
ENDBRANCH  19  20
ENDBRANCH   6  19
TORSDOF 4
ENDMDL
MODEL 5
REMARK VINA RESULT:      -7.9      5.583      9.634
REMARK  Name = 
REMARK  5 active torsions:
REMARK  status: ('A' for Active; 'I' for Inactive)
REMARK    1  A    between atoms: C_1  and  C_2
REMARK    2  A    between atoms: C_6  and  C_7
REMARK    3  A    between atoms: C_7  and  N_8
REMARK    4  A    between atoms: C_17  and  C_18
REMARK    5  A    between atoms: C_19  and  C_20
REMARK                            x       y       z     vdW  Elec       q    Type
REMARK                         _______ _______ _______ _____ _____    ______ ____
ROOT
ATOM      1  C   UNL     1      12.333  11.969  19.994  0.00  0.00    +0.000 C 
ATOM      2  C   UNL     1      10.975  12.148  19.375  0.00  0.00    +0.000 A 
ATOM      3  C   UNL     1      10.427  13.375  19.238  0.00  0.00    +0.000 A 
ATOM      4  N   UNL     1       9.212  13.498  18.584  0.00  0.00    +0.000 N 
ATOM      5  C   UNL     1       8.379  14.578  18.399  0.00  0.00    +0.000 A 
ATOM      6  C   UNL     1       7.270  14.154  17.679  0.00  0.00    +0.000 A 
ATOM      7  C   UNL     1       7.535  12.801  17.298  0.00  0.00    +0.000 A 
ATOM      8  C   UNL     1       8.621  12.388  18.034  0.00  0.00    +0.000 A 
ATOM      9  C   UNL     1       9.191  11.108  18.346  0.00  0.00    +0.000 A 
ATOM     10  N   UNL     1      10.323  10.978  18.980  0.00  0.00    +0.000 NA
ENDROOT
BRANCH   9  11
ATOM     11  C   UNL     1       8.514   9.847  18.123  0.00  0.00    +0.000 C 
ATOM     12  C   UNL     1       8.050   8.746  17.956  0.00  0.00    +0.000 C 
BRANCH  12  13
ATOM     13  C   UNL     1       7.542   7.415  17.746  0.00  0.00    +0.000 A 
ATOM     14  C   UNL     1       6.667   7.141  16.689  0.00  0.00    +0.000 A 
ATOM     15  C   UNL     1       6.186   5.848  16.488  0.00  0.00    +0.000 A 
ATOM     16  C   UNL     1       6.567   4.812  17.342  0.00  0.00    +0.000 A 
ATOM     17  C   UNL     1       7.434   5.081  18.402  0.00  0.00    +0.000 A 
ATOM     18  C   UNL     1       7.918   6.375  18.606  0.00  0.00    +0.000 A 
ENDBRANCH  12  13
ENDBRANCH   9  11
BRANCH   6  19
ATOM     19  C   UNL     1       5.938  14.821  17.509  0.00  0.00    +0.000 C 
BRANCH  19  20
ATOM     20  N   UNL     1       4.901  14.420  18.472  0.00  0.00    +0.000 NA
ATOM     21  C   UNL     1       5.138  14.903  19.846  0.00  0.00    +0.000 C 
ATOM     22  C   UNL     1       5.237  16.433  19.949  0.00  0.00    +0.000 C 
ATOM     23  N   UNL     1       4.243  17.130  19.153  0.00  0.00    +0.000 N 
ATOM     24  C   UNL     1       3.569  16.545  18.110  0.00  0.00    +0.000 C 
ATOM     25  O   UNL     1       2.925  17.241  17.328  0.00  0.00    +0.000 OA
ATOM     26  C   UNL     1       3.602  15.009  18.021  0.00  0.00    +0.000 C 
ATOM     27  H   UNL     1       4.233  18.143  19.142  0.00  0.00    +0.000 HD
ENDBRANCH  19  20
ENDBRANCH   6  19
TORSDOF 4
ENDMDL
MODEL 6
REMARK VINA RESULT:      -7.7      4.299      7.070
REMARK  Name = 
REMARK  5 active torsions:
REMARK  status: ('A' for Active; 'I' for Inactive)
REMARK    1  A    between atoms: C_1  and  C_2
REMARK    2  A    between atoms: C_6  and  C_7
REMARK    3  A    between atoms: C_7  and  N_8
REMARK    4  A    between atoms: C_17  and  C_18
REMARK    5  A    between atoms: C_19  and  C_20
REMARK                            x       y       z     vdW  Elec       q    Type
REMARK                         _______ _______ _______ _____ _____    ______ ____
ROOT
ATOM      1  C   UNL     1       3.682   2.242  20.629  0.00  0.00    +0.000 C 
ATOM      2  C   UNL     1       3.525   3.555  19.914  0.00  0.00    +0.000 A 
ATOM      3  C   UNL     1       2.756   4.540  20.426  0.00  0.00    +0.000 A 
ATOM      4  N   UNL     1       2.711   5.763  19.776  0.00  0.00    +0.000 N 
ATOM      5  C   UNL     1       1.946   6.886  19.996  0.00  0.00    +0.000 A 
ATOM      6  C   UNL     1       2.287   7.837  19.042  0.00  0.00    +0.000 A 
ATOM      7  C   UNL     1       3.403   7.301  18.325  0.00  0.00    +0.000 A 
ATOM      8  C   UNL     1       3.493   5.972  18.668  0.00  0.00    +0.000 A 
ATOM      9  C   UNL     1       4.169   4.837  18.108  0.00  0.00    +0.000 A 
ATOM     10  N   UNL     1       4.200   3.675  18.699  0.00  0.00    +0.000 NA
ENDROOT
BRANCH   9  11
ATOM     11  C   UNL     1       4.754   4.819  16.783  0.00  0.00    +0.000 C 
ATOM     12  C   UNL     1       5.260   4.693  15.695  0.00  0.00    +0.000 C 
BRANCH  12  13
ATOM     13  C   UNL     1       5.887   4.502  14.413  0.00  0.00    +0.000 A 
ATOM     14  C   UNL     1       7.091   5.144  14.102  0.00  0.00    +0.000 A 
ATOM     15  C   UNL     1       7.696   4.947  12.861  0.00  0.00    +0.000 A 
ATOM     16  C   UNL     1       7.104   4.112  11.911  0.00  0.00    +0.000 A 
ATOM     17  C   UNL     1       5.899   3.476  12.213  0.00  0.00    +0.000 A 
ATOM     18  C   UNL     1       5.291   3.671  13.456  0.00  0.00    +0.000 A 
ENDBRANCH  12  13
ENDBRANCH   9  11
BRANCH   6  19
ATOM     19  C   UNL     1       1.542   9.068  18.622  0.00  0.00    +0.000 C 
BRANCH  19  20
ATOM     20  N   UNL     1       0.886   9.813  19.708  0.00  0.00    +0.000 NA
ATOM     21  C   UNL     1       1.252  11.241  19.764  0.00  0.00    +0.000 C 
ATOM     22  C   UNL     1       0.926  12.008  18.474  0.00  0.00    +0.000 C 
ATOM     23  N   UNL     1      -0.368  11.667  17.911  0.00  0.00    +0.000 N 
ATOM     24  C   UNL     1      -1.046  10.516  18.226  0.00  0.00    +0.000 C 
ATOM     25  O   UNL     1      -2.010  10.166  17.549  0.00  0.00    +0.000 OA
ATOM     26  C   UNL     1      -0.591   9.750  19.482  0.00  0.00    +0.000 C 
ATOM     27  H   UNL     1      -0.671  12.110  17.051  0.00  0.00    +0.000 HD
ENDBRANCH  19  20
ENDBRANCH   6  19
TORSDOF 4
ENDMDL
MODEL 7
REMARK VINA RESULT:      -7.6      5.485      7.704
REMARK  Name = 
REMARK  5 active torsions:
REMARK  status: ('A' for Active; 'I' for Inactive)
REMARK    1  A    between atoms: C_1  and  C_2
REMARK    2  A    between atoms: C_6  and  C_7
REMARK    3  A    between atoms: C_7  and  N_8
REMARK    4  A    between atoms: C_17  and  C_18
REMARK    5  A    between atoms: C_19  and  C_20
REMARK                            x       y       z     vdW  Elec       q    Type
REMARK                         _______ _______ _______ _____ _____    ______ ____
ROOT
ATOM      1  C   UNL     1      -0.370   9.388  22.992  0.00  0.00    +0.000 C 
ATOM      2  C   UNL     1       0.419   9.317  21.715  0.00  0.00    +0.000 A 
ATOM      3  C   UNL     1       0.963   8.154  21.295  0.00  0.00    +0.000 A 
ATOM      4  N   UNL     1       1.607   8.118  20.069  0.00  0.00    +0.000 N 
ATOM      5  C   UNL     1       2.336   7.130  19.449  0.00  0.00    +0.000 A 
ATOM      6  C   UNL     1       2.780   7.618  18.227  0.00  0.00    +0.000 A 
ATOM      7  C   UNL     1       2.160   8.897  18.059  0.00  0.00    +0.000 A 
ATOM      8  C   UNL     1       1.626   9.241  19.279  0.00  0.00    +0.000 A 
ATOM      9  C   UNL     1       1.154  10.468  19.856  0.00  0.00    +0.000 A 
ATOM     10  N   UNL     1       0.566  10.517  21.018  0.00  0.00    +0.000 NA
ENDROOT
BRANCH   9  11
ATOM     11  C   UNL     1       1.406  11.776  19.287  0.00  0.00    +0.000 C 
ATOM     12  C   UNL     1       1.685  12.884  18.900  0.00  0.00    +0.000 C 
BRANCH  12  13
ATOM     13  C   UNL     1       2.032  14.218  18.485  0.00  0.00    +0.000 A 
ATOM     14  C   UNL     1       3.223  14.466  17.795  0.00  0.00    +0.000 A 
ATOM     15  C   UNL     1       3.548  15.760  17.389  0.00  0.00    +0.000 A 
ATOM     16  C   UNL     1       2.691  16.826  17.673  0.00  0.00    +0.000 A 
ATOM     17  C   UNL     1       1.506  16.585  18.368  0.00  0.00    +0.000 A 
ATOM     18  C   UNL     1       1.177  15.290  18.775  0.00  0.00    +0.000 A 
ENDBRANCH  12  13
ENDBRANCH   9  11
BRANCH   6  19
ATOM     19  C   UNL     1       3.867   7.097  17.335  0.00  0.00    +0.000 C 
BRANCH  19  20
ATOM     20  N   UNL     1       4.518   5.859  17.788  0.00  0.00    +0.000 NA
ATOM     21  C   UNL     1       4.603   4.810  16.754  0.00  0.00    +0.000 C 
ATOM     22  C   UNL     1       5.367   5.250  15.496  0.00  0.00    +0.000 C 
ATOM     23  N   UNL     1       6.573   6.004  15.788  0.00  0.00    +0.000 N 
ATOM     24  C   UNL     1       6.800   6.622  16.993  0.00  0.00    +0.000 C 
ATOM     25  O   UNL     1       7.714   7.436  17.102  0.00  0.00    +0.000 OA
ATOM     26  C   UNL     1       5.921   6.195  18.183  0.00  0.00    +0.000 C 
ATOM     27  H   UNL     1       7.142   6.352  15.025  0.00  0.00    +0.000 HD
ENDBRANCH  19  20
ENDBRANCH   6  19
TORSDOF 4
ENDMDL
MODEL 8
REMARK VINA RESULT:      -7.5      3.613      7.237
REMARK  Name = 
REMARK  5 active torsions:
REMARK  status: ('A' for Active; 'I' for Inactive)
REMARK    1  A    between atoms: C_1  and  C_2
REMARK    2  A    between atoms: C_6  and  C_7
REMARK    3  A    between atoms: C_7  and  N_8
REMARK    4  A    between atoms: C_17  and  C_18
REMARK    5  A    between atoms: C_19  and  C_20
REMARK                            x       y       z     vdW  Elec       q    Type
REMARK                         _______ _______ _______ _____ _____    ______ ____
ROOT
ATOM      1  C   UNL     1       1.443   2.088  22.387  0.00  0.00    +0.000 C 
ATOM      2  C   UNL     1       1.893   2.948  21.240  0.00  0.00    +0.000 A 
ATOM      3  C   UNL     1       2.606   2.429  20.217  0.00  0.00    +0.000 A 
ATOM      4  N   UNL     1       2.924   3.241  19.140  0.00  0.00    +0.000 N 
ATOM      5  C   UNL     1       3.717   3.026  18.036  0.00  0.00    +0.000 A 
ATOM      6  C   UNL     1       3.709   4.180  17.264  0.00  0.00    +0.000 A 
ATOM      7  C   UNL     1       2.753   5.057  17.866  0.00  0.00    +0.000 A 
ATOM      8  C   UNL     1       2.456   4.531  19.101  0.00  0.00    +0.000 A 
ATOM      9  C   UNL     1       1.830   5.047  20.285  0.00  0.00    +0.000 A 
ATOM     10  N   UNL     1       1.546   4.298  21.314  0.00  0.00    +0.000 NA
ENDROOT
BRANCH   9  11
ATOM     11  C   UNL     1       1.583   6.455  20.519  0.00  0.00    +0.000 C 
ATOM     12  C   UNL     1       1.267   7.603  20.713  0.00  0.00    +0.000 C 
BRANCH  12  13
ATOM     13  C   UNL     1       0.845   8.963  20.924  0.00  0.00    +0.000 A 
ATOM     14  C   UNL     1       0.966   9.917  19.908  0.00  0.00    +0.000 A 
ATOM     15  C   UNL     1       0.547  11.230  20.118  0.00  0.00    +0.000 A 
ATOM     16  C   UNL     1       0.007  11.611  21.348  0.00  0.00    +0.000 A 
ATOM     17  C   UNL     1      -0.109  10.666  22.367  0.00  0.00    +0.000 A 
ATOM     18  C   UNL     1       0.309   9.349  22.160  0.00  0.00    +0.000 A 
ENDBRANCH  12  13
ENDBRANCH   9  11
BRANCH   6  19
ATOM     19  C   UNL     1       4.648   4.596  16.171  0.00  0.00    +0.000 C 
BRANCH  19  20
ATOM     20  N   UNL     1       5.891   3.816  16.073  0.00  0.00    +0.000 NA
ATOM     21  C   UNL     1       6.623   4.006  14.806  0.00  0.00    +0.000 C 
ATOM     22  C   UNL     1       7.022   5.467  14.543  0.00  0.00    +0.000 C 
ATOM     23  N   UNL     1       7.529   6.147  15.722  0.00  0.00    +0.000 N 
ATOM     24  C   UNL     1       7.297   5.708  17.001  0.00  0.00    +0.000 C 
ATOM     25  O   UNL     1       7.541   6.443  17.956  0.00  0.00    +0.000 OA
ATOM     26  C   UNL     1       6.801   4.261  17.173  0.00  0.00    +0.000 C 
ATOM     27  H   UNL     1       7.807   7.119  15.656  0.00  0.00    +0.000 HD
ENDBRANCH  19  20
ENDBRANCH   6  19
TORSDOF 4
ENDMDL
MODEL 9
REMARK VINA RESULT:      -7.5      4.132      6.688
REMARK  Name = 
REMARK  5 active torsions:
REMARK  status: ('A' for Active; 'I' for Inactive)
REMARK    1  A    between atoms: C_1  and  C_2
REMARK    2  A    between atoms: C_6  and  C_7
REMARK    3  A    between atoms: C_7  and  N_8
REMARK    4  A    between atoms: C_17  and  C_18
REMARK    5  A    between atoms: C_19  and  C_20
REMARK                            x       y       z     vdW  Elec       q    Type
REMARK                         _______ _______ _______ _____ _____    ______ ____
ROOT
ATOM      1  C   UNL     1       4.042   2.158  20.619  0.00  0.00    +0.000 C 
ATOM      2  C   UNL     1       3.803   3.411  19.824  0.00  0.00    +0.000 A 
ATOM      3  C   UNL     1       3.028   4.407  20.307  0.00  0.00    +0.000 A 
ATOM      4  N   UNL     1       2.907   5.578  19.577  0.00  0.00    +0.000 N 
ATOM      5  C   UNL     1       2.117   6.690  19.758  0.00  0.00    +0.000 A 
ATOM      6  C   UNL     1       2.373   7.579  18.723  0.00  0.00    +0.000 A 
ATOM      7  C   UNL     1       3.468   7.028  17.985  0.00  0.00    +0.000 A 
ATOM      8  C   UNL     1       3.622   5.730  18.415  0.00  0.00    +0.000 A 
ATOM      9  C   UNL     1       4.306   4.579  17.899  0.00  0.00    +0.000 A 
ATOM     10  N   UNL     1       4.408   3.464  18.567  0.00  0.00    +0.000 NA
ENDROOT
BRANCH   9  11
ATOM     11  C   UNL     1       4.820   4.484  16.548  0.00  0.00    +0.000 C 
ATOM     12  C   UNL     1       5.353   4.410  15.468  0.00  0.00    +0.000 C 
BRANCH  12  13
ATOM     13  C   UNL     1       6.029   4.344  14.199  0.00  0.00    +0.000 A 
ATOM     14  C   UNL     1       7.167   5.119  13.952  0.00  0.00    +0.000 A 
ATOM     15  C   UNL     1       7.821   5.043  12.723  0.00  0.00    +0.000 A 
ATOM     16  C   UNL     1       7.344   4.196  11.721  0.00  0.00    +0.000 A 
ATOM     17  C   UNL     1       6.204   3.427  11.958  0.00  0.00    +0.000 A 
ATOM     18  C   UNL     1       5.548   3.500  13.189  0.00  0.00    +0.000 A 
ENDBRANCH  12  13
ENDBRANCH   9  11
BRANCH   6  19
ATOM     19  C   UNL     1       1.565   8.754  18.259  0.00  0.00    +0.000 C 
BRANCH  19  20
ATOM     20  N   UNL     1       1.768   9.999  19.015  0.00  0.00    +0.000 NA
ATOM     21  C   UNL     1       0.967  11.138  18.525  0.00  0.00    +0.000 C 
ATOM     22  C   UNL     1      -0.547  10.876  18.546  0.00  0.00    +0.000 C 
ATOM     23  N   UNL     1      -0.999  10.205  19.752  0.00  0.00    +0.000 N 
ATOM     24  C   UNL     1      -0.160   9.506  20.584  0.00  0.00    +0.000 C 
ATOM     25  O   UNL     1      -0.627   8.766  21.447  0.00  0.00    +0.000 OA
ATOM     26  C   UNL     1       1.352   9.751  20.430  0.00  0.00    +0.000 C 
ATOM     27  H   UNL     1      -1.980   9.975  19.857  0.00  0.00    +0.000 HD
ENDBRANCH  19  20
ENDBRANCH   6  19
TORSDOF 4
ENDMDL
