MODEL 1
REMARK VINA RESULT:      -8.0      0.000      0.000
REMARK  Name = 
REMARK  8 active torsions:
REMARK  status: ('A' for Active; 'I' for Inactive)
REMARK    1  A    between atoms: C_1  and  C_2
REMARK    2  A    between atoms: C_2  and  C_3
REMARK    3  A    between atoms: C_3  and  C_4
REMARK    4  A    between atoms: C_6  and  C_7
REMARK    5  A    between atoms: N_9  and  C_10
REMARK    6  A    between atoms: C_10  and  C_11
REMARK    7  A    between atoms: C_11  and  C_12
REMARK    8  A    between atoms: C_12  and  N_13
REMARK                            x       y       z     vdW  Elec       q    Type
REMARK                         _______ _______ _______ _____ _____    ______ ____
ROOT
ATOM      1  C   UNL     1       6.338   5.516  15.203  0.00  0.00    +0.000 C 
ATOM      2  O   UNL     1       5.483   6.386  15.385  0.00  0.00    +0.000 OA
ATOM      3  N   UNL     1       7.313   5.229  16.138  0.00  0.00    +0.000 N 
ATOM      4  H   UNL     1       7.986   4.501  15.909  0.00  0.00    +0.000 HD
ENDROOT
BRANCH   1   7
ATOM      5  C   UNL     1       5.954   3.252  12.370  0.00  0.00    +0.000 A 
ATOM      6  C   UNL     1       5.458   3.716  13.561  0.00  0.00    +0.000 A 
ATOM      7  C   UNL     1       6.381   4.705  13.984  0.00  0.00    +0.000 A 
ATOM      8  N   UNL     1       7.381   4.828  13.087  0.00  0.00    +0.000 NA
ATOM      9  O   UNL     1       7.101   3.924  12.077  0.00  0.00    +0.000 OA
BRANCH   5  10
ATOM     10  C   UNL     1       5.497   2.210  11.418  0.00  0.00    +0.000 C 
BRANCH  10  12
ATOM     11  C   UNL     1       6.181  -0.213  11.314  0.00  0.00    +0.000 C 
ATOM     12  C   UNL     1       6.615   1.226  11.082  0.00  0.00    +0.000 C 
ENDBRANCH  10  12
ENDBRANCH   5  10
ENDBRANCH   1   7
BRANCH   3  13
ATOM     13  C   UNL     1       7.395   5.924  17.405  0.00  0.00    +0.000 C 
BRANCH  13  14
ATOM     14  C   UNL     1       6.930   5.050  18.569  0.00  0.00    +0.000 C 
BRANCH  14  15
ATOM     15  C   UNL     1       5.477   5.354  18.937  0.00  0.00    +0.000 C 
BRANCH  15  16
ATOM     16  N   UNL     1       4.697   4.173  19.226  0.00  0.00    +0.000 N 
ATOM     17  N   UNL     1       5.240   3.147  19.910  0.00  0.00    +0.000 NA
ATOM     18  N   UNL     1       4.314   2.199  20.005  0.00  0.00    +0.000 NA
ATOM     19  C   UNL     1       3.183   2.640  19.371  0.00  0.00    +0.000 A 
ATOM     20  C   UNL     1       1.931   2.033  19.192  0.00  0.00    +0.000 A 
ATOM     21  C   UNL     1       0.940   2.738  18.496  0.00  0.00    +0.000 A 
ATOM     22  C   UNL     1       1.191   4.017  17.990  0.00  0.00    +0.000 A 
ATOM     23  C   UNL     1       2.434   4.635  18.156  0.00  0.00    +0.000 A 
ATOM     24  C   UNL     1       3.405   3.912  18.856  0.00  0.00    +0.000 A 
ENDBRANCH  15  16
ENDBRANCH  14  15
ENDBRANCH  13  14
ENDBRANCH   3  13
TORSDOF 7
ENDMDL
MODEL 2
REMARK VINA RESULT:      -8.0      1.627      2.088
REMARK  Name = 
REMARK  8 active torsions:
REMARK  status: ('A' for Active; 'I' for Inactive)
REMARK    1  A    between atoms: C_1  and  C_2
REMARK    2  A    between atoms: C_2  and  C_3
REMARK    3  A    between atoms: C_3  and  C_4
REMARK    4  A    between atoms: C_6  and  C_7
REMARK    5  A    between atoms: N_9  and  C_10
REMARK    6  A    between atoms: C_10  and  C_11
REMARK    7  A    between atoms: C_11  and  C_12
REMARK    8  A    between atoms: C_12  and  N_13
REMARK                            x       y       z     vdW  Elec       q    Type
REMARK                         _______ _______ _______ _____ _____    ______ ____
ROOT
ATOM      1  C   UNL     1       6.985   5.030  15.562  0.00  0.00    +0.000 C 
ATOM      2  O   UNL     1       7.828   4.506  16.295  0.00  0.00    +0.000 OA
ATOM      3  N   UNL     1       6.265   6.146  15.941  0.00  0.00    +0.000 N 
ATOM      4  H   UNL     1       5.583   6.513  15.281  0.00  0.00    +0.000 HD
ENDROOT
BRANCH   1   7
ATOM      5  C   UNL     1       5.757   3.541  12.467  0.00  0.00    +0.000 A 
ATOM      6  C   UNL     1       5.547   3.790  13.799  0.00  0.00    +0.000 A 
ATOM      7  C   UNL     1       6.687   4.517  14.222  0.00  0.00    +0.000 A 
ATOM      8  N   UNL     1       7.539   4.695  13.192  0.00  0.00    +0.000 NA
ATOM      9  O   UNL     1       6.946   4.091  12.096  0.00  0.00    +0.000 OA
BRANCH   5  10
ATOM     10  C   UNL     1       4.976   2.815  11.435  0.00  0.00    +0.000 C 
BRANCH  10  12
ATOM     11  C   UNL     1       2.785   2.953  10.199  0.00  0.00    +0.000 C 
ATOM     12  C   UNL     1       3.974   3.733  10.739  0.00  0.00    +0.000 C 
ENDBRANCH  10  12
ENDBRANCH   5  10
ENDBRANCH   1   7
BRANCH   3  13
ATOM     13  C   UNL     1       6.457   6.788  17.224  0.00  0.00    +0.000 C 
BRANCH  13  14
ATOM     14  C   UNL     1       5.210   6.695  18.102  0.00  0.00    +0.000 C 
BRANCH  14  15
ATOM     15  C   UNL     1       5.165   5.363  18.852  0.00  0.00    +0.000 C 
BRANCH  15  16
ATOM     16  N   UNL     1       4.082   4.503  18.433  0.00  0.00    +0.000 N 
ATOM     17  N   UNL     1       4.057   3.996  17.186  0.00  0.00    +0.000 NA
ATOM     18  N   UNL     1       2.948   3.273  17.074  0.00  0.00    +0.000 NA
ATOM     19  C   UNL     1       2.275   3.333  18.265  0.00  0.00    +0.000 A 
ATOM     20  C   UNL     1       1.068   2.746  18.672  0.00  0.00    +0.000 A 
ATOM     21  C   UNL     1       0.619   2.979  19.979  0.00  0.00    +0.000 A 
ATOM     22  C   UNL     1       1.354   3.779  20.859  0.00  0.00    +0.000 A 
ATOM     23  C   UNL     1       2.558   4.375  20.468  0.00  0.00    +0.000 A 
ATOM     24  C   UNL     1       2.985   4.124  19.161  0.00  0.00    +0.000 A 
ENDBRANCH  15  16
ENDBRANCH  14  15
ENDBRANCH  13  14
ENDBRANCH   3  13
TORSDOF 7
ENDMDL
MODEL 3
REMARK VINA RESULT:      -8.0      1.149      1.219
REMARK  Name = 
REMARK  8 active torsions:
REMARK  status: ('A' for Active; 'I' for Inactive)
REMARK    1  A    between atoms: C_1  and  C_2
REMARK    2  A    between atoms: C_2  and  C_3
REMARK    3  A    between atoms: C_3  and  C_4
REMARK    4  A    between atoms: C_6  and  C_7
REMARK    5  A    between atoms: N_9  and  C_10
REMARK    6  A    between atoms: C_10  and  C_11
REMARK    7  A    between atoms: C_11  and  C_12
REMARK    8  A    between atoms: C_12  and  N_13
REMARK                            x       y       z     vdW  Elec       q    Type
REMARK                         _______ _______ _______ _____ _____    ______ ____
ROOT
ATOM      1  C   UNL     1       7.540   4.996  16.103  0.00  0.00    +0.000 C 
ATOM      2  O   UNL     1       8.064   4.146  16.828  0.00  0.00    +0.000 OA
ATOM      3  N   UNL     1       7.289   6.283  16.535  0.00  0.00    +0.000 N 
ATOM      4  H   UNL     1       6.847   6.923  15.878  0.00  0.00    +0.000 HD
ENDROOT
BRANCH   1   7
ATOM      5  C   UNL     1       6.207   3.903  12.889  0.00  0.00    +0.000 A 
ATOM      6  C   UNL     1       6.173   3.800  14.256  0.00  0.00    +0.000 A 
ATOM      7  C   UNL     1       7.154   4.712  14.719  0.00  0.00    +0.000 A 
ATOM      8  N   UNL     1       7.745   5.333  13.678  0.00  0.00    +0.000 NA
ATOM      9  O   UNL     1       7.141   4.829  12.539  0.00  0.00    +0.000 OA
BRANCH   5  10
ATOM     10  C   UNL     1       5.465   3.220  11.802  0.00  0.00    +0.000 C 
BRANCH  10  12
ATOM     11  C   UNL     1       7.033   1.492  10.851  0.00  0.00    +0.000 C 
ATOM     12  C   UNL     1       5.815   1.735  11.727  0.00  0.00    +0.000 C 
ENDBRANCH  10  12
ENDBRANCH   5  10
ENDBRANCH   1   7
BRANCH   3  13
ATOM     13  C   UNL     1       7.632   6.730  17.869  0.00  0.00    +0.000 C 
BRANCH  13  14
ATOM     14  C   UNL     1       6.660   6.194  18.920  0.00  0.00    +0.000 C 
BRANCH  14  15
ATOM     15  C   UNL     1       5.316   5.828  18.288  0.00  0.00    +0.000 C 
BRANCH  15  16
ATOM     16  N   UNL     1       4.787   4.567  18.754  0.00  0.00    +0.000 N 
ATOM     17  N   UNL     1       5.569   3.706  19.431  0.00  0.00    +0.000 NA
ATOM     18  N   UNL     1       4.835   2.635  19.708  0.00  0.00    +0.000 NA
ATOM     19  C   UNL     1       3.580   2.832  19.196  0.00  0.00    +0.000 A 
ATOM     20  C   UNL     1       2.437   2.019  19.220  0.00  0.00    +0.000 A 
ATOM     21  C   UNL     1       1.267   2.493  18.610  0.00  0.00    +0.000 A 
ATOM     22  C   UNL     1       1.238   3.746  17.990  0.00  0.00    +0.000 A 
ATOM     23  C   UNL     1       2.370   4.567  17.953  0.00  0.00    +0.000 A 
ATOM     24  C   UNL     1       3.523   4.072  18.571  0.00  0.00    +0.000 A 
ENDBRANCH  15  16
ENDBRANCH  14  15
ENDBRANCH  13  14
ENDBRANCH   3  13
TORSDOF 7
ENDMDL
MODEL 4
REMARK VINA RESULT:      -7.9      1.790      1.998
REMARK  Name = 
REMARK  8 active torsions:
REMARK  status: ('A' for Active; 'I' for Inactive)
REMARK    1  A    between atoms: C_1  and  C_2
REMARK    2  A    between atoms: C_2  and  C_3
REMARK    3  A    between atoms: C_3  and  C_4
REMARK    4  A    between atoms: C_6  and  C_7
REMARK    5  A    between atoms: N_9  and  C_10
REMARK    6  A    between atoms: C_10  and  C_11
REMARK    7  A    between atoms: C_11  and  C_12
REMARK    8  A    between atoms: C_12  and  N_13
REMARK                            x       y       z     vdW  Elec       q    Type
REMARK                         _______ _______ _______ _____ _____    ______ ____
ROOT
ATOM      1  C   UNL     1       6.726   5.295  15.354  0.00  0.00    +0.000 C 
ATOM      2  O   UNL     1       7.651   5.092  16.145  0.00  0.00    +0.000 OA
ATOM      3  N   UNL     1       5.715   6.199  15.613  0.00  0.00    +0.000 N 
ATOM      4  H   UNL     1       4.986   6.303  14.911  0.00  0.00    +0.000 HD
ENDROOT
BRANCH   1   7
ATOM      5  C   UNL     1       6.066   3.262  12.398  0.00  0.00    +0.000 A 
ATOM      6  C   UNL     1       5.734   3.572  13.692  0.00  0.00    +0.000 A 
ATOM      7  C   UNL     1       6.634   4.601  14.066  0.00  0.00    +0.000 A 
ATOM      8  N   UNL     1       7.463   4.894  13.044  0.00  0.00    +0.000 NA
ATOM      9  O   UNL     1       7.095   4.060  12.003  0.00  0.00    +0.000 OA
BRANCH   5  10
ATOM     10  C   UNL     1       5.544   2.270  11.427  0.00  0.00    +0.000 C 
BRANCH  10  12
ATOM     11  C   UNL     1       6.157  -0.168  11.262  0.00  0.00    +0.000 C 
ATOM     12  C   UNL     1       6.615   1.261  11.021  0.00  0.00    +0.000 C 
ENDBRANCH  10  12
ENDBRANCH   5  10
ENDBRANCH   1   7
BRANCH   3  13
ATOM     13  C   UNL     1       5.674   6.981  16.830  0.00  0.00    +0.000 C 
BRANCH  13  14
ATOM     14  C   UNL     1       4.925   6.259  17.949  0.00  0.00    +0.000 C 
BRANCH  14  15
ATOM     15  C   UNL     1       3.493   6.781  18.077  0.00  0.00    +0.000 C 
BRANCH  15  16
ATOM     16  N   UNL     1       2.665   5.980  18.948  0.00  0.00    +0.000 N 
ATOM     17  N   UNL     1       2.170   6.499  20.088  0.00  0.00    +0.000 NA
ATOM     18  N   UNL     1       1.476   5.542  20.693  0.00  0.00    +0.000 NA
ATOM     19  C   UNL     1       1.541   4.413  19.921  0.00  0.00    +0.000 A 
ATOM     20  C   UNL     1       0.980   3.140  20.100  0.00  0.00    +0.000 A 
ATOM     21  C   UNL     1       1.212   2.163  19.122  0.00  0.00    +0.000 A 
ATOM     22  C   UNL     1       1.985   2.448  17.992  0.00  0.00    +0.000 A 
ATOM     23  C   UNL     1       2.554   3.711  17.799  0.00  0.00    +0.000 A 
ATOM     24  C   UNL     1       2.306   4.668  18.788  0.00  0.00    +0.000 A 
ENDBRANCH  15  16
ENDBRANCH  14  15
ENDBRANCH  13  14
ENDBRANCH   3  13
TORSDOF 7
ENDMDL
MODEL 5
REMARK VINA RESULT:      -7.9      3.256      4.226
REMARK  Name = 
REMARK  8 active torsions:
REMARK  status: ('A' for Active; 'I' for Inactive)
REMARK    1  A    between atoms: C_1  and  C_2
REMARK    2  A    between atoms: C_2  and  C_3
REMARK    3  A    between atoms: C_3  and  C_4
REMARK    4  A    between atoms: C_6  and  C_7
REMARK    5  A    between atoms: N_9  and  C_10
REMARK    6  A    between atoms: C_10  and  C_11
REMARK    7  A    between atoms: C_11  and  C_12
REMARK    8  A    between atoms: C_12  and  N_13
REMARK                            x       y       z     vdW  Elec       q    Type
REMARK                         _______ _______ _______ _____ _____    ______ ____
ROOT
ATOM      1  C   UNL     1       6.506   4.315  17.285  0.00  0.00    +0.000 C 
ATOM      2  O   UNL     1       7.427   4.405  18.101  0.00  0.00    +0.000 OA
ATOM      3  N   UNL     1       5.208   4.031  17.662  0.00  0.00    +0.000 N 
ATOM      4  H   UNL     1       4.508   3.967  16.926  0.00  0.00    +0.000 HD
ENDROOT
BRANCH   1   7
ATOM      5  C   UNL     1       6.728   4.317  13.644  0.00  0.00    +0.000 A 
ATOM      6  C   UNL     1       6.269   3.700  14.780  0.00  0.00    +0.000 A 
ATOM      7  C   UNL     1       6.713   4.517  15.849  0.00  0.00    +0.000 A 
ATOM      8  N   UNL     1       7.402   5.575  15.376  0.00  0.00    +0.000 NA
ATOM      9  O   UNL     1       7.399   5.448  13.997  0.00  0.00    +0.000 OA
BRANCH   5  10
ATOM     10  C   UNL     1       6.638   3.985  12.202  0.00  0.00    +0.000 C 
BRANCH  10  12
ATOM     11  C   UNL     1       4.297   3.386  11.488  0.00  0.00    +0.000 C 
ATOM     12  C   UNL     1       5.645   2.853  11.945  0.00  0.00    +0.000 C 
ENDBRANCH  10  12
ENDBRANCH   5  10
ENDBRANCH   1   7
BRANCH   3  13
ATOM     13  C   UNL     1       4.834   3.826  19.045  0.00  0.00    +0.000 C 
BRANCH  13  14
ATOM     14  C   UNL     1       4.296   5.104  19.687  0.00  0.00    +0.000 C 
BRANCH  14  15
ATOM     15  C   UNL     1       3.238   5.761  18.799  0.00  0.00    +0.000 C 
BRANCH  15  16
ATOM     16  N   UNL     1       2.446   6.754  19.487  0.00  0.00    +0.000 N 
ATOM     17  N   UNL     1       1.918   6.488  20.697  0.00  0.00    +0.000 NA
ATOM     18  N   UNL     1       1.227   7.559  21.073  0.00  0.00    +0.000 NA
ATOM     19  C   UNL     1       1.326   8.501  20.085  0.00  0.00    +0.000 A 
ATOM     20  C   UNL     1       0.795   9.796  19.990  0.00  0.00    +0.000 A 
ATOM     21  C   UNL     1       1.075  10.551  18.842  0.00  0.00    +0.000 A 
ATOM     22  C   UNL     1       1.863  10.026  17.813  0.00  0.00    +0.000 A 
ATOM     23  C   UNL     1       2.398   8.736  17.890  0.00  0.00    +0.000 A 
ATOM     24  C   UNL     1       2.107   8.006  19.047  0.00  0.00    +0.000 A 
ENDBRANCH  15  16
ENDBRANCH  14  15
ENDBRANCH  13  14
ENDBRANCH   3  13
TORSDOF 7
ENDMDL
MODEL 6
REMARK VINA RESULT:      -7.8      3.225      4.288
REMARK  Name = 
REMARK  8 active torsions:
REMARK  status: ('A' for Active; 'I' for Inactive)
REMARK    1  A    between atoms: C_1  and  C_2
REMARK    2  A    between atoms: C_2  and  C_3
REMARK    3  A    between atoms: C_3  and  C_4
REMARK    4  A    between atoms: C_6  and  C_7
REMARK    5  A    between atoms: N_9  and  C_10
REMARK    6  A    between atoms: C_10  and  C_11
REMARK    7  A    between atoms: C_11  and  C_12
REMARK    8  A    between atoms: C_12  and  N_13
REMARK                            x       y       z     vdW  Elec       q    Type
REMARK                         _______ _______ _______ _____ _____    ______ ____
ROOT
ATOM      1  C   UNL     1       6.503   4.477  17.463  0.00  0.00    +0.000 C 
ATOM      2  O   UNL     1       7.411   4.476  18.299  0.00  0.00    +0.000 OA
ATOM      3  N   UNL     1       5.173   4.357  17.814  0.00  0.00    +0.000 N 
ATOM      4  H   UNL     1       4.486   4.360  17.063  0.00  0.00    +0.000 HD
ENDROOT
BRANCH   1   7
ATOM      5  C   UNL     1       6.810   4.363  13.830  0.00  0.00    +0.000 A 
ATOM      6  C   UNL     1       6.263   3.825  14.967  0.00  0.00    +0.000 A 
ATOM      7  C   UNL     1       6.763   4.620  16.028  0.00  0.00    +0.000 A 
ATOM      8  N   UNL     1       7.569   5.590  15.549  0.00  0.00    +0.000 NA
ATOM      9  O   UNL     1       7.585   5.428  14.174  0.00  0.00    +0.000 OA
BRANCH   5  10
ATOM     10  C   UNL     1       6.720   4.005  12.394  0.00  0.00    +0.000 C 
BRANCH  10  12
ATOM     11  C   UNL     1       5.746   1.878  11.458  0.00  0.00    +0.000 C 
ATOM     12  C   UNL     1       5.442   3.229  12.086  0.00  0.00    +0.000 C 
ENDBRANCH  10  12
ENDBRANCH   5  10
ENDBRANCH   1   7
BRANCH   3  13
ATOM     13  C   UNL     1       4.747   4.230  19.192  0.00  0.00    +0.000 C 
BRANCH  13  14
ATOM     14  C   UNL     1       3.229   4.325  19.332  0.00  0.00    +0.000 C 
BRANCH  14  15
ATOM     15  C   UNL     1       2.832   5.515  20.208  0.00  0.00    +0.000 C 
BRANCH  15  16
ATOM     16  N   UNL     1       2.524   6.707  19.453  0.00  0.00    +0.000 N 
ATOM     17  N   UNL     1       2.960   6.845  18.186  0.00  0.00    +0.000 NA
ATOM     18  N   UNL     1       2.555   8.034  17.754  0.00  0.00    +0.000 NA
ATOM     19  C   UNL     1       1.861   8.644  18.764  0.00  0.00    +0.000 A 
ATOM     20  C   UNL     1       1.225   9.892  18.822  0.00  0.00    +0.000 A 
ATOM     21  C   UNL     1       0.572  10.256  20.008  0.00  0.00    +0.000 A 
ATOM     22  C   UNL     1       0.555   9.395  21.110  0.00  0.00    +0.000 A 
ATOM     23  C   UNL     1       1.187   8.148  21.070  0.00  0.00    +0.000 A 
ATOM     24  C   UNL     1       1.828   7.809  19.875  0.00  0.00    +0.000 A 
ENDBRANCH  15  16
ENDBRANCH  14  15
ENDBRANCH  13  14
ENDBRANCH   3  13
TORSDOF 7
ENDMDL
MODEL 7
REMARK VINA RESULT:      -7.8      1.211      1.590
REMARK  Name = 
REMARK  8 active torsions:
REMARK  status: ('A' for Active; 'I' for Inactive)
REMARK    1  A    between atoms: C_1  and  C_2
REMARK    2  A    between atoms: C_2  and  C_3
REMARK    3  A    between atoms: C_3  and  C_4
REMARK    4  A    between atoms: C_6  and  C_7
REMARK    5  A    between atoms: N_9  and  C_10
REMARK    6  A    between atoms: C_10  and  C_11
REMARK    7  A    between atoms: C_11  and  C_12
REMARK    8  A    between atoms: C_12  and  N_13
REMARK                            x       y       z     vdW  Elec       q    Type
REMARK                         _______ _______ _______ _____ _____    ______ ____
ROOT
ATOM      1  C   UNL     1       6.780   5.174  15.703  0.00  0.00    +0.000 C 
ATOM      2  O   UNL     1       7.581   4.687  16.505  0.00  0.00    +0.000 OA
ATOM      3  N   UNL     1       5.944   6.222  16.034  0.00  0.00    +0.000 N 
ATOM      4  H   UNL     1       5.308   6.562  15.317  0.00  0.00    +0.000 HD
ENDROOT
BRANCH   1   7
ATOM      5  C   UNL     1       6.016   3.675  12.467  0.00  0.00    +0.000 A 
ATOM      6  C   UNL     1       5.672   3.829  13.785  0.00  0.00    +0.000 A 
ATOM      7  C   UNL     1       6.662   4.688  14.325  0.00  0.00    +0.000 A 
ATOM      8  N   UNL     1       7.554   5.033  13.375  0.00  0.00    +0.000 NA
ATOM      9  O   UNL     1       7.138   4.403  12.214  0.00  0.00    +0.000 OA
BRANCH   5  10
ATOM     10  C   UNL     1       5.427   2.896  11.350  0.00  0.00    +0.000 C 
BRANCH  10  12
ATOM     11  C   UNL     1       3.480   3.794  10.027  0.00  0.00    +0.000 C 
ATOM     12  C   UNL     1       3.911   3.060  11.287  0.00  0.00    +0.000 C 
ENDBRANCH  10  12
ENDBRANCH   5  10
ENDBRANCH   1   7
BRANCH   3  13
ATOM     13  C   UNL     1       5.954   6.830  17.348  0.00  0.00    +0.000 C 
BRANCH  13  14
ATOM     14  C   UNL     1       4.886   6.234  18.263  0.00  0.00    +0.000 C 
BRANCH  14  15
ATOM     15  C   UNL     1       5.491   5.197  19.210  0.00  0.00    +0.000 C 
BRANCH  15  16
ATOM     16  N   UNL     1       4.670   4.020  19.374  0.00  0.00    +0.000 N 
ATOM     17  N   UNL     1       5.180   2.903  19.927  0.00  0.00    +0.000 NA
ATOM     18  N   UNL     1       4.220   1.985  19.928  0.00  0.00    +0.000 NA
ATOM     19  C   UNL     1       3.099   2.537  19.366  0.00  0.00    +0.000 A 
ATOM     20  C   UNL     1       1.824   2.002  19.138  0.00  0.00    +0.000 A 
ATOM     21  C   UNL     1       0.852   2.818  18.543  0.00  0.00    +0.000 A 
ATOM     22  C   UNL     1       1.146   4.136  18.182  0.00  0.00    +0.000 A 
ATOM     23  C   UNL     1       2.414   4.685  18.399  0.00  0.00    +0.000 A 
ATOM     24  C   UNL     1       3.364   3.851  18.997  0.00  0.00    +0.000 A 
ENDBRANCH  15  16
ENDBRANCH  14  15
ENDBRANCH  13  14
ENDBRANCH   3  13
TORSDOF 7
ENDMDL
MODEL 8
REMARK VINA RESULT:      -7.7      1.678      2.008
REMARK  Name = 
REMARK  8 active torsions:
REMARK  status: ('A' for Active; 'I' for Inactive)
REMARK    1  A    between atoms: C_1  and  C_2
REMARK    2  A    between atoms: C_2  and  C_3
REMARK    3  A    between atoms: C_3  and  C_4
REMARK    4  A    between atoms: C_6  and  C_7
REMARK    5  A    between atoms: N_9  and  C_10
REMARK    6  A    between atoms: C_10  and  C_11
REMARK    7  A    between atoms: C_11  and  C_12
REMARK    8  A    between atoms: C_12  and  N_13
REMARK                            x       y       z     vdW  Elec       q    Type
REMARK                         _______ _______ _______ _____ _____    ______ ____
ROOT
ATOM      1  C   UNL     1       7.018   5.104  16.118  0.00  0.00    +0.000 C 
ATOM      2  O   UNL     1       7.674   6.012  16.637  0.00  0.00    +0.000 OA
ATOM      3  N   UNL     1       6.189   4.278  16.851  0.00  0.00    +0.000 N 
ATOM      4  H   UNL     1       5.688   3.548  16.349  0.00  0.00    +0.000 HD
ENDROOT
BRANCH   1   7
ATOM      5  C   UNL     1       6.718   4.025  12.647  0.00  0.00    +0.000 A 
ATOM      6  C   UNL     1       6.311   3.878  13.949  0.00  0.00    +0.000 A 
ATOM      7  C   UNL     1       7.055   4.838  14.678  0.00  0.00    +0.000 A 
ATOM      8  N   UNL     1       7.867   5.529  13.852  0.00  0.00    +0.000 NA
ATOM      9  O   UNL     1       7.643   5.021  12.584  0.00  0.00    +0.000 OA
BRANCH   5  10
ATOM     10  C   UNL     1       6.360   3.328  11.388  0.00  0.00    +0.000 C 
BRANCH  10  12
ATOM     11  C   UNL     1       6.252   0.829  11.088  0.00  0.00    +0.000 C 
ATOM     12  C   UNL     1       5.558   2.057  11.656  0.00  0.00    +0.000 C 
ENDBRANCH  10  12
ENDBRANCH   5  10
ENDBRANCH   1   7
BRANCH   3  13
ATOM     13  C   UNL     1       6.024   4.424  18.282  0.00  0.00    +0.000 C 
BRANCH  13  14
ATOM     14  C   UNL     1       5.410   5.774  18.652  0.00  0.00    +0.000 C 
BRANCH  14  15
ATOM     15  C   UNL     1       4.023   5.935  18.029  0.00  0.00    +0.000 C 
BRANCH  15  16
ATOM     16  N   UNL     1       3.203   4.751  18.137  0.00  0.00    +0.000 N 
ATOM     17  N   UNL     1       2.902   4.026  17.042  0.00  0.00    +0.000 NA
ATOM     18  N   UNL     1       2.125   3.023  17.431  0.00  0.00    +0.000 NA
ATOM     19  C   UNL     1       1.937   3.125  18.784  0.00  0.00    +0.000 A 
ATOM     20  C   UNL     1       1.214   2.322  19.677  0.00  0.00    +0.000 A 
ATOM     21  C   UNL     1       1.207   2.671  21.035  0.00  0.00    +0.000 A 
ATOM     22  C   UNL     1       1.905   3.794  21.491  0.00  0.00    +0.000 A 
ATOM     23  C   UNL     1       2.629   4.607  20.613  0.00  0.00    +0.000 A 
ATOM     24  C   UNL     1       2.622   4.236  19.265  0.00  0.00    +0.000 A 
ENDBRANCH  15  16
ENDBRANCH  14  15
ENDBRANCH  13  14
ENDBRANCH   3  13
TORSDOF 7
ENDMDL
MODEL 9
REMARK VINA RESULT:      -7.7      0.897      1.374
REMARK  Name = 
REMARK  8 active torsions:
REMARK  status: ('A' for Active; 'I' for Inactive)
REMARK    1  A    between atoms: C_1  and  C_2
REMARK    2  A    between atoms: C_2  and  C_3
REMARK    3  A    between atoms: C_3  and  C_4
REMARK    4  A    between atoms: C_6  and  C_7
REMARK    5  A    between atoms: N_9  and  C_10
REMARK    6  A    between atoms: C_10  and  C_11
REMARK    7  A    between atoms: C_11  and  C_12
REMARK    8  A    between atoms: C_12  and  N_13
REMARK                            x       y       z     vdW  Elec       q    Type
REMARK                         _______ _______ _______ _____ _____    ______ ____
ROOT
ATOM      1  C   UNL     1       6.043   5.354  15.495  0.00  0.00    +0.000 C 
ATOM      2  O   UNL     1       4.974   5.690  16.011  0.00  0.00    +0.000 OA
ATOM      3  N   UNL     1       7.263   5.589  16.098  0.00  0.00    +0.000 N 
ATOM      4  H   UNL     1       8.099   5.287  15.604  0.00  0.00    +0.000 HD
ENDROOT
BRANCH   1   7
ATOM      5  C   UNL     1       5.633   3.511  12.374  0.00  0.00    +0.000 A 
ATOM      6  C   UNL     1       5.060   3.987  13.526  0.00  0.00    +0.000 A 
ATOM      7  C   UNL     1       6.105   4.664  14.203  0.00  0.00    +0.000 A 
ATOM      8  N   UNL     1       7.247   4.599  13.491  0.00  0.00    +0.000 NA
ATOM      9  O   UNL     1       6.942   3.885  12.344  0.00  0.00    +0.000 OA
BRANCH   5  10
ATOM     10  C   UNL     1       5.115   2.705  11.242  0.00  0.00    +0.000 C 
BRANCH  10  12
ATOM     11  C   UNL     1       3.311   3.946   9.995  0.00  0.00    +0.000 C 
ATOM     12  C   UNL     1       3.612   2.898  11.055  0.00  0.00    +0.000 C 
ENDBRANCH  10  12
ENDBRANCH   5  10
ENDBRANCH   1   7
BRANCH   3  13
ATOM     13  C   UNL     1       7.373   6.240  17.387  0.00  0.00    +0.000 C 
BRANCH  13  14
ATOM     14  C   UNL     1       7.146   5.265  18.541  0.00  0.00    +0.000 C 
BRANCH  14  15
ATOM     15  C   UNL     1       5.790   5.506  19.205  0.00  0.00    +0.000 C 
BRANCH  15  16
ATOM     16  N   UNL     1       5.014   4.301  19.382  0.00  0.00    +0.000 N 
ATOM     17  N   UNL     1       5.547   3.230  20.000  0.00  0.00    +0.000 NA
ATOM     18  N   UNL     1       4.627   2.271  19.997  0.00  0.00    +0.000 NA
ATOM     19  C   UNL     1       3.509   2.751  19.369  0.00  0.00    +0.000 A 
ATOM     20  C   UNL     1       2.268   2.152  19.111  0.00  0.00    +0.000 A 
ATOM     21  C   UNL     1       1.289   2.901  18.444  0.00  0.00    +0.000 A 
ATOM     22  C   UNL     1       1.542   4.217  18.043  0.00  0.00    +0.000 A 
ATOM     23  C   UNL     1       2.775   4.829  18.290  0.00  0.00    +0.000 A 
ATOM     24  C   UNL     1       3.733   4.061  18.959  0.00  0.00    +0.000 A 
ENDBRANCH  15  16
ENDBRANCH  14  15
ENDBRANCH  13  14
ENDBRANCH   3  13
TORSDOF 7
ENDMDL
