MODEL 1
REMARK VINA RESULT:      -8.8      0.000      0.000
REMARK  Name = 
REMARK  5 active torsions:
REMARK  status: ('A' for Active; 'I' for Inactive)
REMARK    1  A    between atoms: C_1  and  C_2
REMARK    2  A    between atoms: N_5  and  C_6
REMARK    3  A    between atoms: N_9  and  C_10
REMARK    4  A    between atoms: N_20  and  C_21
REMARK    5  A    between atoms: N_34  and  C_35
REMARK                            x       y       z     vdW  Elec       q    Type
REMARK                         _______ _______ _______ _____ _____    ______ ____
ROOT
ATOM      1  C   UNL     1      -0.412   9.655  23.247  0.00  0.00    +0.000 C 
ATOM      2  C   UNL     1       0.248   9.311  21.948  0.00  0.00    +0.000 A 
ATOM      3  N   UNL     1       0.891   8.132  21.921  0.00  0.00    +0.000 NA
ATOM      4  C   UNL     1       1.593   7.833  20.828  0.00  0.00    +0.000 A 
ATOM      5  N   UNL     1       2.124   6.553  20.816  0.00  0.00    +0.000 N 
ATOM      6  N   UNL     1       1.748   8.673  19.779  0.00  0.00    +0.000 NA
ATOM      7  C   UNL     1       1.154   9.885  19.834  0.00  0.00    +0.000 A 
ATOM      8  C   UNL     1       0.305  10.203  20.889  0.00  0.00    +0.000 A 
ATOM      9  N   UNL     1      -0.386  11.433  20.882  0.00  0.00    +0.000 N 
ATOM     10  C   UNL     1      -1.811  11.456  21.165  0.00  0.00    +0.000 C 
ATOM     11  C   UNL     1       0.357  12.571  21.075  0.00  0.00    +0.000 C 
ATOM     12  O   UNL     1      -0.104  13.547  21.707  0.00  0.00    +0.000 OA
ATOM     13  C   UNL     1       1.668  12.724  20.396  0.00  0.00    +0.000 A 
ATOM     14  C   UNL     1       2.486  13.761  20.862  0.00  0.00    +0.000 A 
ATOM     15  C   UNL     1       3.211  14.496  19.932  0.00  0.00    +0.000 A 
ATOM     16  C   UNL     1       3.870  15.649  20.338  0.00  0.00    +0.000 A 
ATOM     17  C   UNL     1       3.871  16.754  19.514  0.00  0.00    +0.000 A 
ATOM     18  C   UNL     1       3.693  16.547  18.152  0.00  0.00    +0.000 A 
ATOM     19  C   UNL     1       3.439  15.254  17.671  0.00  0.00    +0.000 A 
ATOM     20  C   UNL     1       3.072  14.232  18.554  0.00  0.00    +0.000 A 
ATOM     21  C   UNL     1       2.533  12.975  18.179  0.00  0.00    +0.000 A 
ATOM     22  C   UNL     1       1.838  12.167  19.106  0.00  0.00    +0.000 A 
ATOM     23  N   UNL     1       1.451  10.842  18.835  0.00  0.00    +0.000 N 
ATOM     24  C   UNL     1       0.839  10.511  17.558  0.00  0.00    +0.000 C 
ATOM     25  H   UNL     1       1.865   6.110  21.686  0.00  0.00    +0.000 HD
ENDROOT
BRANCH   5  26
ATOM     26  C   UNL     1       2.537   5.828  19.762  0.00  0.00    +0.000 A 
ATOM     27  C   UNL     1       1.778   5.101  18.829  0.00  0.00    +0.000 A 
ATOM     28  N   UNL     1       2.554   4.438  17.970  0.00  0.00    +0.000 NA
ATOM     29  N   UNL     1       3.805   4.756  18.339  0.00  0.00    +0.000 N 
ATOM     30  C   UNL     1       3.847   5.619  19.408  0.00  0.00    +0.000 A 
BRANCH  29  31
ATOM     31  C   UNL     1       4.959   4.169  17.660  0.00  0.00    +0.000 C 
ATOM     32  C   UNL     1       6.282   4.692  18.232  0.00  0.00    +0.000 C 
ATOM     33  C   UNL     1       6.638   6.093  17.724  0.00  0.00    +0.000 C 
ATOM     34  N   UNL     1       6.630   6.162  16.263  0.00  0.00    +0.000 NA
ATOM     35  C   UNL     1       5.327   5.781  15.713  0.00  0.00    +0.000 C 
ATOM     36  C   UNL     1       4.910   4.372  16.141  0.00  0.00    +0.000 C 
ATOM     37  H   UNL     1       7.354   5.554  15.886  0.00  0.00    +0.000 HD
ENDBRANCH  29  31
ENDBRANCH   5  26
TORSDOF 2
ENDMDL
MODEL 2
REMARK VINA RESULT:      -8.3      1.013      1.309
REMARK  Name = 
REMARK  5 active torsions:
REMARK  status: ('A' for Active; 'I' for Inactive)
REMARK    1  A    between atoms: C_1  and  C_2
REMARK    2  A    between atoms: N_5  and  C_6
REMARK    3  A    between atoms: N_9  and  C_10
REMARK    4  A    between atoms: N_20  and  C_21
REMARK    5  A    between atoms: N_34  and  C_35
REMARK                            x       y       z     vdW  Elec       q    Type
REMARK                         _______ _______ _______ _____ _____    ______ ____
ROOT
ATOM      1  C   UNL     1      -0.987  10.493  23.410  0.00  0.00    +0.000 C 
ATOM      2  C   UNL     1      -0.309   9.982  22.176  0.00  0.00    +0.000 A 
ATOM      3  N   UNL     1       0.213   8.748  22.274  0.00  0.00    +0.000 NA
ATOM      4  C   UNL     1       0.928   8.294  21.245  0.00  0.00    +0.000 A 
ATOM      5  N   UNL     1       1.327   6.972  21.359  0.00  0.00    +0.000 N 
ATOM      6  N   UNL     1       1.212   9.026  20.143  0.00  0.00    +0.000 NA
ATOM      7  C   UNL     1       0.742  10.291  20.075  0.00  0.00    +0.000 A 
ATOM      8  C   UNL     1      -0.116  10.775  21.057  0.00  0.00    +0.000 A 
ATOM      9  N   UNL     1      -0.679  12.061  20.920  0.00  0.00    +0.000 N 
ATOM     10  C   UNL     1      -2.105  12.246  21.126  0.00  0.00    +0.000 C 
ATOM     11  C   UNL     1       0.166  13.134  21.062  0.00  0.00    +0.000 C 
ATOM     12  O   UNL     1      -0.221  14.198  21.592  0.00  0.00    +0.000 OA
ATOM     13  C   UNL     1       1.515  13.103  20.442  0.00  0.00    +0.000 A 
ATOM     14  C   UNL     1       2.411  14.091  20.867  0.00  0.00    +0.000 A 
ATOM     15  C   UNL     1       3.247  14.673  19.923  0.00  0.00    +0.000 A 
ATOM     16  C   UNL     1       4.000  15.786  20.271  0.00  0.00    +0.000 A 
ATOM     17  C   UNL     1       4.148  16.814  19.366  0.00  0.00    +0.000 A 
ATOM     18  C   UNL     1       4.010  16.516  18.017  0.00  0.00    +0.000 A 
ATOM     19  C   UNL     1       3.649  15.218  17.624  0.00  0.00    +0.000 A 
ATOM     20  C   UNL     1       3.142  14.312  18.563  0.00  0.00    +0.000 A 
ATOM     21  C   UNL     1       2.496  13.087  18.259  0.00  0.00    +0.000 A 
ATOM     22  C   UNL     1       1.683  12.428  19.208  0.00  0.00    +0.000 A 
ATOM     23  N   UNL     1       1.177  11.129  19.021  0.00  0.00    +0.000 N 
ATOM     24  C   UNL     1       0.591  10.756  17.744  0.00  0.00    +0.000 C 
ATOM     25  H   UNL     1       0.987   6.629  22.245  0.00  0.00    +0.000 HD
ENDROOT
BRANCH   5  26
ATOM     26  C   UNL     1       1.711   6.127  20.387  0.00  0.00    +0.000 A 
ATOM     27  C   UNL     1       1.367   4.778  20.192  0.00  0.00    +0.000 A 
ATOM     28  N   UNL     1       2.017   4.246  19.155  0.00  0.00    +0.000 NA
ATOM     29  N   UNL     1       2.758   5.257  18.675  0.00  0.00    +0.000 N 
ATOM     30  C   UNL     1       2.587   6.428  19.374  0.00  0.00    +0.000 A 
BRANCH  29  31
ATOM     31  C   UNL     1       3.671   5.049  17.552  0.00  0.00    +0.000 C 
ATOM     32  C   UNL     1       4.122   3.588  17.449  0.00  0.00    +0.000 C 
ATOM     33  C   UNL     1       5.214   3.229  18.461  0.00  0.00    +0.000 C 
ATOM     34  N   UNL     1       6.355   4.140  18.379  0.00  0.00    +0.000 NA
ATOM     35  C   UNL     1       5.950   5.531  18.601  0.00  0.00    +0.000 C 
ATOM     36  C   UNL     1       4.884   5.986  17.602  0.00  0.00    +0.000 C 
ATOM     37  H   UNL     1       6.802   4.053  17.470  0.00  0.00    +0.000 HD
ENDBRANCH  29  31
ENDBRANCH   5  26
TORSDOF 2
ENDMDL
MODEL 3
REMARK VINA RESULT:      -8.3      1.588      2.106
REMARK  Name = 
REMARK  5 active torsions:
REMARK  status: ('A' for Active; 'I' for Inactive)
REMARK    1  A    between atoms: C_1  and  C_2
REMARK    2  A    between atoms: N_5  and  C_6
REMARK    3  A    between atoms: N_9  and  C_10
REMARK    4  A    between atoms: N_20  and  C_21
REMARK    5  A    between atoms: N_34  and  C_35
REMARK                            x       y       z     vdW  Elec       q    Type
REMARK                         _______ _______ _______ _____ _____    ______ ____
ROOT
ATOM      1  C   UNL     1      -1.078  10.568  23.368  0.00  0.00    +0.000 C 
ATOM      2  C   UNL     1      -0.338  10.073  22.163  0.00  0.00    +0.000 A 
ATOM      3  N   UNL     1       0.195   8.846  22.277  0.00  0.00    +0.000 NA
ATOM      4  C   UNL     1       0.962   8.408  21.279  0.00  0.00    +0.000 A 
ATOM      5  N   UNL     1       1.373   7.090  21.404  0.00  0.00    +0.000 N 
ATOM      6  N   UNL     1       1.286   9.150  20.196  0.00  0.00    +0.000 NA
ATOM      7  C   UNL     1       0.802  10.409  20.113  0.00  0.00    +0.000 A 
ATOM      8  C   UNL     1      -0.106  10.875  21.058  0.00  0.00    +0.000 A 
ATOM      9  N   UNL     1      -0.680  12.155  20.902  0.00  0.00    +0.000 N 
ATOM     10  C   UNL     1      -2.116  12.319  21.045  0.00  0.00    +0.000 C 
ATOM     11  C   UNL     1       0.144  13.238  21.089  0.00  0.00    +0.000 C 
ATOM     12  O   UNL     1      -0.281  14.294  21.607  0.00  0.00    +0.000 OA
ATOM     13  C   UNL     1       1.519  13.229  20.530  0.00  0.00    +0.000 A 
ATOM     14  C   UNL     1       2.382  14.226  21.001  0.00  0.00    +0.000 A 
ATOM     15  C   UNL     1       3.252  14.825  20.099  0.00  0.00    +0.000 A 
ATOM     16  C   UNL     1       3.973  15.945  20.487  0.00  0.00    +0.000 A 
ATOM     17  C   UNL     1       4.148  16.981  19.595  0.00  0.00    +0.000 A 
ATOM     18  C   UNL     1       4.075  16.689  18.240  0.00  0.00    +0.000 A 
ATOM     19  C   UNL     1       3.749  15.390  17.824  0.00  0.00    +0.000 A 
ATOM     20  C   UNL     1       3.213  14.471  18.734  0.00  0.00    +0.000 A 
ATOM     21  C   UNL     1       2.598  13.239  18.394  0.00  0.00    +0.000 A 
ATOM     22  C   UNL     1       1.752  12.564  19.302  0.00  0.00    +0.000 A 
ATOM     23  N   UNL     1       1.273  11.260  19.085  0.00  0.00    +0.000 N 
ATOM     24  C   UNL     1       0.750  10.886  17.780  0.00  0.00    +0.000 C 
ATOM     25  H   UNL     1       0.998   6.737  22.272  0.00  0.00    +0.000 HD
ENDROOT
BRANCH   5  26
ATOM     26  C   UNL     1       1.812   6.256  20.445  0.00  0.00    +0.000 A 
ATOM     27  C   UNL     1       2.837   6.444  19.502  0.00  0.00    +0.000 A 
ATOM     28  N   UNL     1       2.924   5.417  18.655  0.00  0.00    +0.000 NA
ATOM     29  N   UNL     1       1.972   4.566  19.067  0.00  0.00    +0.000 N 
ATOM     30  C   UNL     1       1.285   5.019  20.168  0.00  0.00    +0.000 A 
BRANCH  29  31
ATOM     31  C   UNL     1       1.713   3.323  18.342  0.00  0.00    +0.000 C 
ATOM     32  C   UNL     1       1.865   2.095  19.246  0.00  0.00    +0.000 C 
ATOM     33  C   UNL     1       3.328   1.706  19.481  0.00  0.00    +0.000 C 
ATOM     34  N   UNL     1       4.055   1.529  18.225  0.00  0.00    +0.000 NA
ATOM     35  C   UNL     1       4.019   2.744  17.407  0.00  0.00    +0.000 C 
ATOM     36  C   UNL     1       2.587   3.183  17.090  0.00  0.00    +0.000 C 
ATOM     37  H   UNL     1       3.658   0.751  17.703  0.00  0.00    +0.000 HD
ENDBRANCH  29  31
ENDBRANCH   5  26
TORSDOF 2
ENDMDL
MODEL 4
REMARK VINA RESULT:      -8.0      1.468      1.954
REMARK  Name = 
REMARK  5 active torsions:
REMARK  status: ('A' for Active; 'I' for Inactive)
REMARK    1  A    between atoms: C_1  and  C_2
REMARK    2  A    between atoms: N_5  and  C_6
REMARK    3  A    between atoms: N_9  and  C_10
REMARK    4  A    between atoms: N_20  and  C_21
REMARK    5  A    between atoms: N_34  and  C_35
REMARK                            x       y       z     vdW  Elec       q    Type
REMARK                         _______ _______ _______ _____ _____    ______ ____
ROOT
ATOM      1  C   UNL     1      -1.073  10.627  23.342  0.00  0.00    +0.000 C 
ATOM      2  C   UNL     1      -0.371  10.045  22.154  0.00  0.00    +0.000 A 
ATOM      3  N   UNL     1       0.103   8.799  22.317  0.00  0.00    +0.000 NA
ATOM      4  C   UNL     1       0.837   8.282  21.332  0.00  0.00    +0.000 A 
ATOM      5  N   UNL     1       1.184   6.952  21.510  0.00  0.00    +0.000 N 
ATOM      6  N   UNL     1       1.185   8.960  20.215  0.00  0.00    +0.000 NA
ATOM      7  C   UNL     1       0.762  10.236  20.082  0.00  0.00    +0.000 A 
ATOM      8  C   UNL     1      -0.111  10.787  21.013  0.00  0.00    +0.000 A 
ATOM      9  N   UNL     1      -0.624  12.086  20.807  0.00  0.00    +0.000 N 
ATOM     10  C   UNL     1      -2.049  12.327  20.954  0.00  0.00    +0.000 C 
ATOM     11  C   UNL     1       0.254  13.134  20.940  0.00  0.00    +0.000 C 
ATOM     12  O   UNL     1      -0.114  14.231  21.415  0.00  0.00    +0.000 OA
ATOM     13  C   UNL     1       1.621  13.033  20.370  0.00  0.00    +0.000 A 
ATOM     14  C   UNL     1       2.537  14.005  20.791  0.00  0.00    +0.000 A 
ATOM     15  C   UNL     1       3.425  14.521  19.856  0.00  0.00    +0.000 A 
ATOM     16  C   UNL     1       4.204  15.620  20.189  0.00  0.00    +0.000 A 
ATOM     17  C   UNL     1       4.421  16.607  19.252  0.00  0.00    +0.000 A 
ATOM     18  C   UNL     1       4.320  16.261  17.911  0.00  0.00    +0.000 A 
ATOM     19  C   UNL     1       3.926  14.963  17.554  0.00  0.00    +0.000 A 
ATOM     20  C   UNL     1       3.355  14.112  18.508  0.00  0.00    +0.000 A 
ATOM     21  C   UNL     1       2.677  12.898  18.227  0.00  0.00    +0.000 A 
ATOM     22  C   UNL     1       1.809  12.305  19.170  0.00  0.00    +0.000 A 
ATOM     23  N   UNL     1       1.264  11.018  19.014  0.00  0.00    +0.000 N 
ATOM     24  C   UNL     1       0.709  10.615  17.731  0.00  0.00    +0.000 C 
ATOM     25  H   UNL     1       0.801   6.656  22.397  0.00  0.00    +0.000 HD
ENDROOT
BRANCH   5  26
ATOM     26  C   UNL     1       1.571   6.057  20.585  0.00  0.00    +0.000 A 
ATOM     27  C   UNL     1       0.876   4.948  20.074  0.00  0.00    +0.000 A 
ATOM     28  N   UNL     1       1.626   4.243  19.224  0.00  0.00    +0.000 NA
ATOM     29  N   UNL     1       2.789   4.911  19.176  0.00  0.00    +0.000 N 
ATOM     30  C   UNL     1       2.796   6.035  19.967  0.00  0.00    +0.000 A 
BRANCH  29  31
ATOM     31  C   UNL     1       3.909   4.409  18.381  0.00  0.00    +0.000 C 
ATOM     32  C   UNL     1       3.433   3.515  17.230  0.00  0.00    +0.000 C 
ATOM     33  C   UNL     1       3.066   2.100  17.688  0.00  0.00    +0.000 C 
ATOM     34  N   UNL     1       4.153   1.468  18.434  0.00  0.00    +0.000 NA
ATOM     35  C   UNL     1       4.530   2.257  19.609  0.00  0.00    +0.000 C 
ATOM     36  C   UNL     1       4.953   3.680  19.235  0.00  0.00    +0.000 C 
ATOM     37  H   UNL     1       4.961   1.345  17.828  0.00  0.00    +0.000 HD
ENDBRANCH  29  31
ENDBRANCH   5  26
TORSDOF 2
ENDMDL
MODEL 5
REMARK VINA RESULT:      -7.8      4.082      8.886
REMARK  Name = 
REMARK  5 active torsions:
REMARK  status: ('A' for Active; 'I' for Inactive)
REMARK    1  A    between atoms: C_1  and  C_2
REMARK    2  A    between atoms: N_5  and  C_6
REMARK    3  A    between atoms: N_9  and  C_10
REMARK    4  A    between atoms: N_20  and  C_21
REMARK    5  A    between atoms: N_34  and  C_35
REMARK                            x       y       z     vdW  Elec       q    Type
REMARK                         _______ _______ _______ _____ _____    ______ ____
ROOT
ATOM      1  C   UNL     1      -1.409   9.721  17.201  0.00  0.00    +0.000 C 
ATOM      2  C   UNL     1      -1.749  10.726  18.258  0.00  0.00    +0.000 A 
ATOM      3  N   UNL     1      -3.012  11.182  18.236  0.00  0.00    +0.000 NA
ATOM      4  C   UNL     1      -3.332  12.163  19.079  0.00  0.00    +0.000 A 
ATOM      5  N   UNL     1      -4.678  12.496  19.093  0.00  0.00    +0.000 N 
ATOM      6  N   UNL     1      -2.446  12.767  19.904  0.00  0.00    +0.000 NA
ATOM      7  C   UNL     1      -1.161  12.352  19.879  0.00  0.00    +0.000 A 
ATOM      8  C   UNL     1      -0.795  11.249  19.115  0.00  0.00    +0.000 A 
ATOM      9  N   UNL     1       0.530  10.765  19.177  0.00  0.00    +0.000 N 
ATOM     10  C   UNL     1       0.767   9.344  19.361  0.00  0.00    +0.000 C 
ATOM     11  C   UNL     1       1.509  11.543  18.609  0.00  0.00    +0.000 C 
ATOM     12  O   UNL     1       2.492  11.029  18.033  0.00  0.00    +0.000 OA
ATOM     13  C   UNL     1       1.497  13.014  18.810  0.00  0.00    +0.000 A 
ATOM     14  C   UNL     1       2.341  13.757  17.976  0.00  0.00    +0.000 A 
ATOM     15  C   UNL     1       3.019  14.840  18.521  0.00  0.00    +0.000 A 
ATOM     16  C   UNL     1       4.008  15.469  17.778  0.00  0.00    +0.000 A 
ATOM     17  C   UNL     1       5.162  15.889  18.405  0.00  0.00    +0.000 A 
ATOM     18  C   UNL     1       5.102  16.151  19.767  0.00  0.00    +0.000 A 
ATOM     19  C   UNL     1       3.914  15.907  20.471  0.00  0.00    +0.000 A 
ATOM     20  C   UNL     1       2.897  15.135  19.895  0.00  0.00    +0.000 A 
ATOM     21  C   UNL     1       1.783  14.594  20.585  0.00  0.00    +0.000 A 
ATOM     22  C   UNL     1       1.028  13.531  20.043  0.00  0.00    +0.000 A 
ATOM     23  N   UNL     1      -0.187  13.087  20.595  0.00  0.00    +0.000 N 
ATOM     24  C   UNL     1      -0.305  12.899  22.033  0.00  0.00    +0.000 C 
ATOM     25  H   UNL     1      -5.142  11.906  18.417  0.00  0.00    +0.000 HD
ENDROOT
BRANCH   5  26
ATOM     26  C   UNL     1      -5.371  13.139  20.047  0.00  0.00    +0.000 A 
ATOM     27  C   UNL     1      -6.145  14.309  19.951  0.00  0.00    +0.000 A 
ATOM     28  N   UNL     1      -6.615  14.690  21.140  0.00  0.00    +0.000 NA
ATOM     29  N   UNL     1      -6.161  13.757  21.991  0.00  0.00    +0.000 N 
ATOM     30  C   UNL     1      -5.421  12.778  21.371  0.00  0.00    +0.000 A 
BRANCH  29  31
ATOM     31  C   UNL     1      -6.423  13.860  23.426  0.00  0.00    +0.000 C 
ATOM     32  C   UNL     1      -6.150  15.273  23.953  0.00  0.00    +0.000 C 
ATOM     33  C   UNL     1      -4.658  15.554  24.159  0.00  0.00    +0.000 C 
ATOM     34  N   UNL     1      -4.023  14.544  25.005  0.00  0.00    +0.000 NA
ATOM     35  C   UNL     1      -4.173  13.199  24.441  0.00  0.00    +0.000 C 
ATOM     36  C   UNL     1      -5.642  12.820  24.239  0.00  0.00    +0.000 C 
ATOM     37  H   UNL     1      -4.427  14.572  25.938  0.00  0.00    +0.000 HD
ENDBRANCH  29  31
ENDBRANCH   5  26
TORSDOF 2
ENDMDL
MODEL 6
REMARK VINA RESULT:      -7.7      3.060      6.394
REMARK  Name = 
REMARK  5 active torsions:
REMARK  status: ('A' for Active; 'I' for Inactive)
REMARK    1  A    between atoms: C_1  and  C_2
REMARK    2  A    between atoms: N_5  and  C_6
REMARK    3  A    between atoms: N_9  and  C_10
REMARK    4  A    between atoms: N_20  and  C_21
REMARK    5  A    between atoms: N_34  and  C_35
REMARK                            x       y       z     vdW  Elec       q    Type
REMARK                         _______ _______ _______ _____ _____    ______ ____
ROOT
ATOM      1  C   UNL     1       0.593  14.883  18.491  0.00  0.00    +0.000 C 
ATOM      2  C   UNL     1       0.343  13.631  19.273  0.00  0.00    +0.000 A 
ATOM      3  N   UNL     1       0.851  12.507  18.740  0.00  0.00    +0.000 NA
ATOM      4  C   UNL     1       0.557  11.351  19.334  0.00  0.00    +0.000 A 
ATOM      5  N   UNL     1       1.215  10.250  18.810  0.00  0.00    +0.000 N 
ATOM      6  N   UNL     1      -0.273  11.240  20.397  0.00  0.00    +0.000 NA
ATOM      7  C   UNL     1      -0.836  12.364  20.892  0.00  0.00    +0.000 A 
ATOM      8  C   UNL     1      -0.467  13.610  20.396  0.00  0.00    +0.000 A 
ATOM      9  N   UNL     1      -0.987  14.779  20.991  0.00  0.00    +0.000 N 
ATOM     10  C   UNL     1      -0.089  15.867  21.338  0.00  0.00    +0.000 C 
ATOM     11  C   UNL     1      -2.320  15.043  20.795  0.00  0.00    +0.000 C 
ATOM     12  O   UNL     1      -2.738  16.215  20.672  0.00  0.00    +0.000 OA
ATOM     13  C   UNL     1      -3.314  13.944  20.885  0.00  0.00    +0.000 A 
ATOM     14  C   UNL     1      -4.594  14.230  20.394  0.00  0.00    +0.000 A 
ATOM     15  C   UNL     1      -5.691  13.737  21.090  0.00  0.00    +0.000 A 
ATOM     16  C   UNL     1      -6.966  14.166  20.745  0.00  0.00    +0.000 A 
ATOM     17  C   UNL     1      -7.887  14.418  21.739  0.00  0.00    +0.000 A 
ATOM     18  C   UNL     1      -7.723  13.768  22.955  0.00  0.00    +0.000 A 
ATOM     19  C   UNL     1      -6.600  12.955  23.164  0.00  0.00    +0.000 A 
ATOM     20  C   UNL     1      -5.508  13.021  22.291  0.00  0.00    +0.000 A 
ATOM     21  C   UNL     1      -4.225  12.467  22.533  0.00  0.00    +0.000 A 
ATOM     22  C   UNL     1      -3.090  12.895  21.809  0.00  0.00    +0.000 A 
ATOM     23  N   UNL     1      -1.842  12.250  21.880  0.00  0.00    +0.000 N 
ATOM     24  C   UNL     1      -1.302  11.855  23.171  0.00  0.00    +0.000 C 
ATOM     25  H   UNL     1       1.789  10.576  18.046  0.00  0.00    +0.000 HD
ENDROOT
BRANCH   5  26
ATOM     26  C   UNL     1       1.435   9.055  19.385  0.00  0.00    +0.000 A 
ATOM     27  C   UNL     1       1.040   8.589  20.651  0.00  0.00    +0.000 A 
ATOM     28  N   UNL     1       1.519   7.370  20.902  0.00  0.00    +0.000 NA
ATOM     29  N   UNL     1       2.202   7.048  19.792  0.00  0.00    +0.000 N 
ATOM     30  C   UNL     1       2.159   8.029  18.830  0.00  0.00    +0.000 A 
BRANCH  29  31
ATOM     31  C   UNL     1       2.934   5.785  19.702  0.00  0.00    +0.000 C 
ATOM     32  C   UNL     1       2.979   5.255  18.265  0.00  0.00    +0.000 C 
ATOM     33  C   UNL     1       1.671   4.579  17.838  0.00  0.00    +0.000 C 
ATOM     34  N   UNL     1       1.267   3.532  18.775  0.00  0.00    +0.000 NA
ATOM     35  C   UNL     1       1.101   4.058  20.133  0.00  0.00    +0.000 C 
ATOM     36  C   UNL     1       2.380   4.718  20.654  0.00  0.00    +0.000 C 
ATOM     37  H   UNL     1       1.959   2.785  18.778  0.00  0.00    +0.000 HD
ENDBRANCH  29  31
ENDBRANCH   5  26
TORSDOF 2
ENDMDL
MODEL 7
REMARK VINA RESULT:      -7.7      2.178      5.146
REMARK  Name = 
REMARK  5 active torsions:
REMARK  status: ('A' for Active; 'I' for Inactive)
REMARK    1  A    between atoms: C_1  and  C_2
REMARK    2  A    between atoms: N_5  and  C_6
REMARK    3  A    between atoms: N_9  and  C_10
REMARK    4  A    between atoms: N_20  and  C_21
REMARK    5  A    between atoms: N_34  and  C_35
REMARK                            x       y       z     vdW  Elec       q    Type
REMARK                         _______ _______ _______ _____ _____    ______ ____
ROOT
ATOM      1  C   UNL     1       2.291  12.907  17.831  0.00  0.00    +0.000 C 
ATOM      2  C   UNL     1       1.967  11.693  18.645  0.00  0.00    +0.000 A 
ATOM      3  N   UNL     1       2.085  10.519  18.003  0.00  0.00    +0.000 NA
ATOM      4  C   UNL     1       1.696   9.419  18.646  0.00  0.00    +0.000 A 
ATOM      5  N   UNL     1       1.964   8.235  17.977  0.00  0.00    +0.000 N 
ATOM      6  N   UNL     1       1.131   9.424  19.876  0.00  0.00    +0.000 NA
ATOM      7  C   UNL     1       0.953  10.611  20.494  0.00  0.00    +0.000 A 
ATOM      8  C   UNL     1       1.454  11.779  19.929  0.00  0.00    +0.000 A 
ATOM      9  N   UNL     1       1.350  12.997  20.635  0.00  0.00    +0.000 N 
ATOM     10  C   UNL     1       2.515  13.855  20.762  0.00  0.00    +0.000 C 
ATOM     11  C   UNL     1       0.095  13.541  20.762  0.00  0.00    +0.000 C 
ATOM     12  O   UNL     1      -0.079  14.779  20.746  0.00  0.00    +0.000 OA
ATOM     13  C   UNL     1      -1.062  12.669  21.083  0.00  0.00    +0.000 A 
ATOM     14  C   UNL     1      -2.329  13.239  20.913  0.00  0.00    +0.000 A 
ATOM     15  C   UNL     1      -3.314  12.948  21.848  0.00  0.00    +0.000 A 
ATOM     16  C   UNL     1      -4.512  13.649  21.819  0.00  0.00    +0.000 A 
ATOM     17  C   UNL     1      -5.102  14.032  23.004  0.00  0.00    +0.000 A 
ATOM     18  C   UNL     1      -4.803  13.298  24.144  0.00  0.00    +0.000 A 
ATOM     19  C   UNL     1      -3.863  12.259  24.076  0.00  0.00    +0.000 A 
ATOM     20  C   UNL     1      -3.015  12.145  22.968  0.00  0.00    +0.000 A 
ATOM     21  C   UNL     1      -1.860  11.325  22.896  0.00  0.00    +0.000 A 
ATOM     22  C   UNL     1      -0.859  11.547  21.924  0.00  0.00    +0.000 A 
ATOM     23  N   UNL     1       0.203  10.656  21.693  0.00  0.00    +0.000 N 
ATOM     24  C   UNL     1       0.931  10.088  22.817  0.00  0.00    +0.000 C 
ATOM     25  H   UNL     1       2.401   8.476  17.099  0.00  0.00    +0.000 HD
ENDROOT
BRANCH   5  26
ATOM     26  C   UNL     1       2.050   6.991  18.479  0.00  0.00    +0.000 A 
ATOM     27  C   UNL     1       2.656   6.550  19.668  0.00  0.00    +0.000 A 
ATOM     28  N   UNL     1       2.609   5.222  19.784  0.00  0.00    +0.000 NA
ATOM     29  N   UNL     1       1.957   4.816  18.684  0.00  0.00    +0.000 N 
ATOM     30  C   UNL     1       1.573   5.856  17.871  0.00  0.00    +0.000 A 
BRANCH  29  31
ATOM     31  C   UNL     1       1.753   3.393  18.415  0.00  0.00    +0.000 C 
ATOM     32  C   UNL     1       2.019   2.537  19.659  0.00  0.00    +0.000 C 
ATOM     33  C   UNL     1       3.512   2.319  19.925  0.00  0.00    +0.000 C 
ATOM     34  N   UNL     1       4.202   1.779  18.755  0.00  0.00    +0.000 NA
ATOM     35  C   UNL     1       4.057   2.657  17.590  0.00  0.00    +0.000 C 
ATOM     36  C   UNL     1       2.588   2.895  17.230  0.00  0.00    +0.000 C 
ATOM     37  H   UNL     1       3.838   0.854  18.536  0.00  0.00    +0.000 HD
ENDBRANCH  29  31
ENDBRANCH   5  26
TORSDOF 2
ENDMDL
MODEL 8
REMARK VINA RESULT:      -7.5      1.632      2.273
REMARK  Name = 
REMARK  5 active torsions:
REMARK  status: ('A' for Active; 'I' for Inactive)
REMARK    1  A    between atoms: C_1  and  C_2
REMARK    2  A    between atoms: N_5  and  C_6
REMARK    3  A    between atoms: N_9  and  C_10
REMARK    4  A    between atoms: N_20  and  C_21
REMARK    5  A    between atoms: N_34  and  C_35
REMARK                            x       y       z     vdW  Elec       q    Type
REMARK                         _______ _______ _______ _____ _____    ______ ____
ROOT
ATOM      1  C   UNL     1      -1.395  11.232  23.080  0.00  0.00    +0.000 C 
ATOM      2  C   UNL     1      -0.458  10.852  21.975  0.00  0.00    +0.000 A 
ATOM      3  N   UNL     1      -0.023   9.582  21.999  0.00  0.00    +0.000 NA
ATOM      4  C   UNL     1       0.903   9.227  21.108  0.00  0.00    +0.000 A 
ATOM      5  N   UNL     1       1.211   7.875  21.104  0.00  0.00    +0.000 N 
ATOM      6  N   UNL     1       1.473  10.085  20.231  0.00  0.00    +0.000 NA
ATOM      7  C   UNL     1       1.082  11.378  20.253  0.00  0.00    +0.000 A 
ATOM      8  C   UNL     1       0.031  11.779  21.070  0.00  0.00    +0.000 A 
ATOM      9  N   UNL     1      -0.433  13.110  21.007  0.00  0.00    +0.000 N 
ATOM     10  C   UNL     1      -1.858  13.370  20.899  0.00  0.00    +0.000 C 
ATOM     11  C   UNL     1       0.393  14.087  21.509  0.00  0.00    +0.000 C 
ATOM     12  O   UNL     1      -0.071  15.090  22.093  0.00  0.00    +0.000 OA
ATOM     13  C   UNL     1       1.849  14.044  21.225  0.00  0.00    +0.000 A 
ATOM     14  C   UNL     1       2.653  14.891  21.997  0.00  0.00    +0.000 A 
ATOM     15  C   UNL     1       3.714  15.538  21.377  0.00  0.00    +0.000 A 
ATOM     16  C   UNL     1       4.402  16.531  22.062  0.00  0.00    +0.000 A 
ATOM     17  C   UNL     1       4.805  17.664  21.388  0.00  0.00    +0.000 A 
ATOM     18  C   UNL     1       4.987  17.571  20.015  0.00  0.00    +0.000 A 
ATOM     19  C   UNL     1       4.683  16.374  19.351  0.00  0.00    +0.000 A 
ATOM     20  C   UNL     1       3.929  15.384  19.992  0.00  0.00    +0.000 A 
ATOM     21  C   UNL     1       3.330  14.265  19.358  0.00  0.00    +0.000 A 
ATOM     22  C   UNL     1       2.286  13.541  19.976  0.00  0.00    +0.000 A 
ATOM     23  N   UNL     1       1.792  12.323  19.475  0.00  0.00    +0.000 N 
ATOM     24  C   UNL     1       1.520  12.180  18.053  0.00  0.00    +0.000 C 
ATOM     25  H   UNL     1       0.653   7.436  21.822  0.00  0.00    +0.000 HD
ENDROOT
BRANCH   5  26
ATOM     26  C   UNL     1       1.787   7.151  20.129  0.00  0.00    +0.000 A 
ATOM     27  C   UNL     1       2.421   7.586  18.953  0.00  0.00    +0.000 A 
ATOM     28  N   UNL     1       2.797   6.562  18.186  0.00  0.00    +0.000 NA
ATOM     29  N   UNL     1       2.423   5.475  18.878  0.00  0.00    +0.000 N 
ATOM     30  C   UNL     1       1.828   5.780  20.078  0.00  0.00    +0.000 A 
BRANCH  29  31
ATOM     31  C   UNL     1       2.616   4.133  18.328  0.00  0.00    +0.000 C 
ATOM     32  C   UNL     1       2.657   3.068  19.431  0.00  0.00    +0.000 C 
ATOM     33  C   UNL     1       4.005   3.014  20.157  0.00  0.00    +0.000 C 
ATOM     34  N   UNL     1       5.121   2.853  19.225  0.00  0.00    +0.000 NA
ATOM     35  C   UNL     1       5.162   3.938  18.242  0.00  0.00    +0.000 C 
ATOM     36  C   UNL     1       3.862   4.038  17.440  0.00  0.00    +0.000 C 
ATOM     37  H   UNL     1       5.044   1.958  18.747  0.00  0.00    +0.000 HD
ENDBRANCH  29  31
ENDBRANCH   5  26
TORSDOF 2
ENDMDL
MODEL 9
REMARK VINA RESULT:      -7.4      2.036      4.958
REMARK  Name = 
REMARK  5 active torsions:
REMARK  status: ('A' for Active; 'I' for Inactive)
REMARK    1  A    between atoms: C_1  and  C_2
REMARK    2  A    between atoms: N_5  and  C_6
REMARK    3  A    between atoms: N_9  and  C_10
REMARK    4  A    between atoms: N_20  and  C_21
REMARK    5  A    between atoms: N_34  and  C_35
REMARK                            x       y       z     vdW  Elec       q    Type
REMARK                         _______ _______ _______ _____ _____    ______ ____
ROOT
ATOM      1  C   UNL     1       2.183  13.212  17.955  0.00  0.00    +0.000 C 
ATOM      2  C   UNL     1       1.904  11.977  18.755  0.00  0.00    +0.000 A 
ATOM      3  N   UNL     1       2.082  10.816  18.105  0.00  0.00    +0.000 NA
ATOM      4  C   UNL     1       1.735   9.694  18.734  0.00  0.00    +0.000 A 
ATOM      5  N   UNL     1       2.064   8.529  18.058  0.00  0.00    +0.000 N 
ATOM      6  N   UNL     1       1.154   9.663  19.955  0.00  0.00    +0.000 NA
ATOM      7  C   UNL     1       0.914  10.836  20.581  0.00  0.00    +0.000 A 
ATOM      8  C   UNL     1       1.371  12.030  20.032  0.00  0.00    +0.000 A 
ATOM      9  N   UNL     1       1.202  13.235  20.746  0.00  0.00    +0.000 N 
ATOM     10  C   UNL     1       2.326  14.143  20.896  0.00  0.00    +0.000 C 
ATOM     11  C   UNL     1      -0.077  13.722  20.861  0.00  0.00    +0.000 C 
ATOM     12  O   UNL     1      -0.306  14.951  20.853  0.00  0.00    +0.000 OA
ATOM     13  C   UNL     1      -1.199  12.796  21.159  0.00  0.00    +0.000 A 
ATOM     14  C   UNL     1      -2.487  13.311  20.976  0.00  0.00    +0.000 A 
ATOM     15  C   UNL     1      -3.471  12.967  21.895  0.00  0.00    +0.000 A 
ATOM     16  C   UNL     1      -4.698  13.615  21.855  0.00  0.00    +0.000 A 
ATOM     17  C   UNL     1      -5.320  13.961  23.036  0.00  0.00    +0.000 A 
ATOM     18  C   UNL     1      -5.004  13.230  24.174  0.00  0.00    +0.000 A 
ATOM     19  C   UNL     1      -4.017  12.235  24.111  0.00  0.00    +0.000 A 
ATOM     20  C   UNL     1      -3.150  12.169  23.013  0.00  0.00    +0.000 A 
ATOM     21  C   UNL     1      -1.959  11.402  22.950  0.00  0.00    +0.000 A 
ATOM     22  C   UNL     1      -0.957  11.677  21.993  0.00  0.00    +0.000 A 
ATOM     23  N   UNL     1       0.148  10.836  21.770  0.00  0.00    +0.000 N 
ATOM     24  C   UNL     1       0.885  10.291  22.899  0.00  0.00    +0.000 C 
ATOM     25  H   UNL     1       2.501   8.797  17.189  0.00  0.00    +0.000 HD
ENDROOT
BRANCH   5  26
ATOM     26  C   UNL     1       2.199   7.285  18.551  0.00  0.00    +0.000 A 
ATOM     27  C   UNL     1       1.923   6.805  19.842  0.00  0.00    +0.000 A 
ATOM     28  N   UNL     1       2.265   5.522  19.977  0.00  0.00    +0.000 NA
ATOM     29  N   UNL     1       2.739   5.178  18.769  0.00  0.00    +0.000 N 
ATOM     30  C   UNL     1       2.695   6.208  17.860  0.00  0.00    +0.000 A 
BRANCH  29  31
ATOM     31  C   UNL     1       3.277   3.839  18.529  0.00  0.00    +0.000 C 
ATOM     32  C   UNL     1       4.589   3.610  19.287  0.00  0.00    +0.000 C 
ATOM     33  C   UNL     1       5.794   4.266  18.605  0.00  0.00    +0.000 C 
ATOM     34  N   UNL     1       5.916   3.862  17.205  0.00  0.00    +0.000 NA
ATOM     35  C   UNL     1       4.709   4.192  16.442  0.00  0.00    +0.000 C 
ATOM     36  C   UNL     1       3.457   3.540  17.036  0.00  0.00    +0.000 C 
ATOM     37  H   UNL     1       6.096   2.862  17.149  0.00  0.00    +0.000 HD
ENDBRANCH  29  31
ENDBRANCH   5  26
TORSDOF 2
ENDMDL
