MODEL 1
REMARK VINA RESULT:      -7.9      0.000      0.000
REMARK  Name = 
REMARK  4 active torsions:
REMARK  status: ('A' for Active; 'I' for Inactive)
REMARK    1  A    between atoms: C_2  and  C_5
REMARK    2  A    between atoms: N_3  and  O_4
REMARK    3  A    between atoms: N_10  and  C_11
REMARK    4  A    between atoms: C_11  and  C_12
REMARK                            x       y       z     vdW  Elec       q    Type
REMARK                         _______ _______ _______ _____ _____    ______ ____
ROOT
ATOM      1  C   UNL     1       5.823   4.763  17.226  0.00  0.00    +0.000 A 
ATOM      2  C   UNL     1       4.648   4.179  16.775  0.00  0.00    +0.000 A 
ATOM      3  C   UNL     1       3.538   4.283  17.619  0.00  0.00    +0.000 A 
ATOM      4  C   UNL     1       2.196   3.831  17.524  0.00  0.00    +0.000 A 
ATOM      5  C   UNL     1       1.527   4.271  18.640  0.00  0.00    +0.000 A 
ATOM      6  N   UNL     1       2.411   4.985  19.416  0.00  0.00    +0.000 N 
ATOM      7  C   UNL     1       3.666   4.967  18.833  0.00  0.00    +0.000 A 
ATOM      8  C   UNL     1       4.891   5.494  19.239  0.00  0.00    +0.000 A 
ATOM      9  N   UNL     1       5.969   5.386  18.427  0.00  0.00    +0.000 NA
ENDROOT
BRANCH   1  11
ATOM     10  O   UNL     1       8.079   4.210  16.646  0.00  0.00    +0.000 OA
ATOM     11  C   UNL     1       7.019   4.746  16.329  0.00  0.00    +0.000 C 
ATOM     12  N   UNL     1       6.848   5.375  15.122  0.00  0.00    +0.000 N 
ATOM     13  H   UNL     1       6.008   5.896  14.888  0.00  0.00    +0.000 HD
BRANCH  12  14
ATOM     14  O   UNL     1       7.961   5.429  14.256  0.00  0.00    +0.000 OA
ATOM     15  H   UNL     1       8.711   5.424  14.889  0.00  0.00    +0.000 HD
ENDBRANCH  12  14
ENDBRANCH   1  11
BRANCH   6  16
ATOM     16  C   UNL     1       2.015   5.742  20.603  0.00  0.00    +0.000 C 
BRANCH  16  17
ATOM     17  C   UNL     1       1.703   7.178  20.265  0.00  0.00    +0.000 A 
ATOM     18  C   UNL     1       1.048   8.002  21.193  0.00  0.00    +0.000 A 
ATOM     19  C   UNL     1       0.697   9.310  20.854  0.00  0.00    +0.000 A 
ATOM     20  C   UNL     1       1.010   9.797  19.591  0.00  0.00    +0.000 A 
ATOM     21  F   UNL     1       0.650  11.043  19.259  0.00  0.00    +0.000 F 
ATOM     22  C   UNL     1       1.686   9.012  18.668  0.00  0.00    +0.000 A 
ATOM     23  C   UNL     1       2.036   7.702  19.004  0.00  0.00    +0.000 A 
ENDBRANCH  16  17
ENDBRANCH   6  16
TORSDOF 4
ENDMDL
MODEL 2
REMARK VINA RESULT:      -7.9      3.008      4.151
REMARK  Name = 
REMARK  4 active torsions:
REMARK  status: ('A' for Active; 'I' for Inactive)
REMARK    1  A    between atoms: C_2  and  C_5
REMARK    2  A    between atoms: N_3  and  O_4
REMARK    3  A    between atoms: N_10  and  C_11
REMARK    4  A    between atoms: C_11  and  C_12
REMARK                            x       y       z     vdW  Elec       q    Type
REMARK                         _______ _______ _______ _____ _____    ______ ____
ROOT
ATOM      1  C   UNL     1       6.599   5.160  14.858  0.00  0.00    +0.000 A 
ATOM      2  C   UNL     1       7.231   4.665  15.989  0.00  0.00    +0.000 A 
ATOM      3  C   UNL     1       6.652   4.994  17.219  0.00  0.00    +0.000 A 
ATOM      4  C   UNL     1       6.987   4.691  18.565  0.00  0.00    +0.000 A 
ATOM      5  C   UNL     1       6.020   5.244  19.369  0.00  0.00    +0.000 A 
ATOM      6  N   UNL     1       5.098   5.871  18.562  0.00  0.00    +0.000 N 
ATOM      7  C   UNL     1       5.489   5.772  17.239  0.00  0.00    +0.000 A 
ATOM      8  C   UNL     1       4.932   6.269  16.062  0.00  0.00    +0.000 A 
ATOM      9  N   UNL     1       5.497   5.959  14.870  0.00  0.00    +0.000 NA
ENDROOT
BRANCH   1  11
ATOM     10  O   UNL     1       7.971   5.447  12.916  0.00  0.00    +0.000 OA
ATOM     11  C   UNL     1       7.133   4.776  13.515  0.00  0.00    +0.000 C 
ATOM     12  N   UNL     1       6.616   3.616  12.996  0.00  0.00    +0.000 N 
ATOM     13  H   UNL     1       5.861   3.103  13.441  0.00  0.00    +0.000 HD
BRANCH  12  14
ATOM     14  O   UNL     1       7.051   3.231  11.710  0.00  0.00    +0.000 OA
ATOM     15  H   UNL     1       6.232   2.854  11.323  0.00  0.00    +0.000 HD
ENDBRANCH  12  14
ENDBRANCH   1  11
BRANCH   6  16
ATOM     16  C   UNL     1       3.841   6.432  19.058  0.00  0.00    +0.000 C 
BRANCH  16  17
ATOM     17  C   UNL     1       2.774   5.374  19.184  0.00  0.00    +0.000 A 
ATOM     18  C   UNL     1       2.279   5.008  20.444  0.00  0.00    +0.000 A 
ATOM     19  C   UNL     1       1.342   3.980  20.565  0.00  0.00    +0.000 A 
ATOM     20  C   UNL     1       0.893   3.325  19.425  0.00  0.00    +0.000 A 
ATOM     21  F   UNL     1       0.015   2.322  19.546  0.00  0.00    +0.000 F 
ATOM     22  C   UNL     1       1.345   3.691  18.165  0.00  0.00    +0.000 A 
ATOM     23  C   UNL     1       2.284   4.717  18.041  0.00  0.00    +0.000 A 
ENDBRANCH  16  17
ENDBRANCH   6  16
TORSDOF 4
ENDMDL
MODEL 3
REMARK VINA RESULT:      -7.9      4.310      6.479
REMARK  Name = 
REMARK  4 active torsions:
REMARK  status: ('A' for Active; 'I' for Inactive)
REMARK    1  A    between atoms: C_2  and  C_5
REMARK    2  A    between atoms: N_3  and  O_4
REMARK    3  A    between atoms: N_10  and  C_11
REMARK    4  A    between atoms: C_11  and  C_12
REMARK                            x       y       z     vdW  Elec       q    Type
REMARK                         _______ _______ _______ _____ _____    ______ ____
ROOT
ATOM      1  C   UNL     1       1.506   7.208  20.515  0.00  0.00    +0.000 A 
ATOM      2  C   UNL     1       1.508   5.850  20.796  0.00  0.00    +0.000 A 
ATOM      3  C   UNL     1       2.206   5.031  19.903  0.00  0.00    +0.000 A 
ATOM      4  C   UNL     1       2.437   3.632  19.841  0.00  0.00    +0.000 A 
ATOM      5  C   UNL     1       3.246   3.390  18.757  0.00  0.00    +0.000 A 
ATOM      6  N   UNL     1       3.526   4.595  18.155  0.00  0.00    +0.000 N 
ATOM      7  C   UNL     1       2.860   5.614  18.812  0.00  0.00    +0.000 A 
ATOM      8  C   UNL     1       2.781   6.985  18.570  0.00  0.00    +0.000 A 
ATOM      9  N   UNL     1       2.097   7.778  19.429  0.00  0.00    +0.000 NA
ENDROOT
BRANCH   1  11
ATOM     10  O   UNL     1      -0.383   8.253  21.550  0.00  0.00    +0.000 OA
ATOM     11  C   UNL     1       0.838   8.136  21.478  0.00  0.00    +0.000 C 
ATOM     12  N   UNL     1       1.691   8.853  22.280  0.00  0.00    +0.000 N 
ATOM     13  H   UNL     1       2.701   8.829  22.167  0.00  0.00    +0.000 HD
BRANCH  12  14
ATOM     14  O   UNL     1       1.115   9.778  23.175  0.00  0.00    +0.000 OA
ATOM     15  H   UNL     1       0.192   9.448  23.243  0.00  0.00    +0.000 HD
ENDBRANCH  12  14
ENDBRANCH   1  11
BRANCH   6  16
ATOM     16  C   UNL     1       4.491   4.747  17.066  0.00  0.00    +0.000 C 
BRANCH  16  17
ATOM     17  C   UNL     1       5.704   5.527  17.505  0.00  0.00    +0.000 A 
ATOM     18  C   UNL     1       6.500   5.068  18.565  0.00  0.00    +0.000 A 
ATOM     19  C   UNL     1       7.583   5.826  19.018  0.00  0.00    +0.000 A 
ATOM     20  C   UNL     1       7.873   7.038  18.404  0.00  0.00    +0.000 A 
ATOM     21  F   UNL     1       8.895   7.776  18.857  0.00  0.00    +0.000 F 
ATOM     22  C   UNL     1       7.119   7.497  17.334  0.00  0.00    +0.000 A 
ATOM     23  C   UNL     1       6.035   6.743  16.881  0.00  0.00    +0.000 A 
ENDBRANCH  16  17
ENDBRANCH   6  16
TORSDOF 4
ENDMDL
MODEL 4
REMARK VINA RESULT:      -7.8      1.164      1.585
REMARK  Name = 
REMARK  4 active torsions:
REMARK  status: ('A' for Active; 'I' for Inactive)
REMARK    1  A    between atoms: C_2  and  C_5
REMARK    2  A    between atoms: N_3  and  O_4
REMARK    3  A    between atoms: N_10  and  C_11
REMARK    4  A    between atoms: C_11  and  C_12
REMARK                            x       y       z     vdW  Elec       q    Type
REMARK                         _______ _______ _______ _____ _____    ______ ____
ROOT
ATOM      1  C   UNL     1       5.747   4.704  15.912  0.00  0.00    +0.000 A 
ATOM      2  C   UNL     1       4.582   3.950  15.935  0.00  0.00    +0.000 A 
ATOM      3  C   UNL     1       3.750   4.125  17.045  0.00  0.00    +0.000 A 
ATOM      4  C   UNL     1       2.508   3.556  17.430  0.00  0.00    +0.000 A 
ATOM      5  C   UNL     1       2.127   4.147  18.610  0.00  0.00    +0.000 A 
ATOM      6  N   UNL     1       3.089   5.066  18.959  0.00  0.00    +0.000 N 
ATOM      7  C   UNL     1       4.121   5.038  18.038  0.00  0.00    +0.000 A 
ATOM      8  C   UNL     1       5.328   5.732  17.967  0.00  0.00    +0.000 A 
ATOM      9  N   UNL     1       6.140   5.557  16.897  0.00  0.00    +0.000 NA
ENDROOT
BRANCH   1  11
ATOM     10  O   UNL     1       6.482   3.763  13.836  0.00  0.00    +0.000 OA
ATOM     11  C   UNL     1       6.635   4.611  14.713  0.00  0.00    +0.000 C 
ATOM     12  N   UNL     1       7.640   5.544  14.662  0.00  0.00    +0.000 N 
ATOM     13  H   UNL     1       7.828   6.190  15.423  0.00  0.00    +0.000 HD
BRANCH  12  14
ATOM     14  O   UNL     1       8.536   5.472  13.575  0.00  0.00    +0.000 OA
ATOM     15  H   UNL     1       9.383   5.258  14.023  0.00  0.00    +0.000 HD
ENDBRANCH  12  14
ENDBRANCH   1  11
BRANCH   6  16
ATOM     16  C   UNL     1       2.943   6.004  20.072  0.00  0.00    +0.000 C 
BRANCH  16  17
ATOM     17  C   UNL     1       2.233   7.264  19.647  0.00  0.00    +0.000 A 
ATOM     18  C   UNL     1       2.315   7.714  18.320  0.00  0.00    +0.000 A 
ATOM     19  C   UNL     1       1.716   8.918  17.943  0.00  0.00    +0.000 A 
ATOM     20  C   UNL     1       1.028   9.666  18.890  0.00  0.00    +0.000 A 
ATOM     21  F   UNL     1       0.477  10.833  18.533  0.00  0.00    +0.000 F 
ATOM     22  C   UNL     1       0.907   9.225  20.200  0.00  0.00    +0.000 A 
ATOM     23  C   UNL     1       1.507   8.023  20.581  0.00  0.00    +0.000 A 
ENDBRANCH  16  17
ENDBRANCH   6  16
TORSDOF 4
ENDMDL
MODEL 5
REMARK VINA RESULT:      -7.8      0.068      1.058
REMARK  Name = 
REMARK  4 active torsions:
REMARK  status: ('A' for Active; 'I' for Inactive)
REMARK    1  A    between atoms: C_2  and  C_5
REMARK    2  A    between atoms: N_3  and  O_4
REMARK    3  A    between atoms: N_10  and  C_11
REMARK    4  A    between atoms: C_11  and  C_12
REMARK                            x       y       z     vdW  Elec       q    Type
REMARK                         _______ _______ _______ _____ _____    ______ ____
ROOT
ATOM      1  C   UNL     1       5.816   4.767  17.206  0.00  0.00    +0.000 A 
ATOM      2  C   UNL     1       4.646   4.162  16.771  0.00  0.00    +0.000 A 
ATOM      3  C   UNL     1       3.539   4.267  17.620  0.00  0.00    +0.000 A 
ATOM      4  C   UNL     1       2.202   3.798  17.539  0.00  0.00    +0.000 A 
ATOM      5  C   UNL     1       1.534   4.248  18.652  0.00  0.00    +0.000 A 
ATOM      6  N   UNL     1       2.414   4.984  19.411  0.00  0.00    +0.000 N 
ATOM      7  C   UNL     1       3.666   4.971  18.822  0.00  0.00    +0.000 A 
ATOM      8  C   UNL     1       4.887   5.519  19.212  0.00  0.00    +0.000 A 
ATOM      9  N   UNL     1       5.962   5.411  18.396  0.00  0.00    +0.000 NA
ENDROOT
BRANCH   1  11
ATOM     10  O   UNL     1       8.068   4.209  16.612  0.00  0.00    +0.000 OA
ATOM     11  C   UNL     1       7.008   4.749  16.303  0.00  0.00    +0.000 C 
ATOM     12  N   UNL     1       6.833   5.383  15.099  0.00  0.00    +0.000 N 
ATOM     13  H   UNL     1       5.993   5.907  14.871  0.00  0.00    +0.000 HD
BRANCH  12  14
ATOM     14  O   UNL     1       7.941   5.436  14.228  0.00  0.00    +0.000 OA
ATOM     15  H   UNL     1       8.372   6.276  14.498  0.00  0.00    +0.000 HD
ENDBRANCH  12  14
ENDBRANCH   1  11
BRANCH   6  16
ATOM     16  C   UNL     1       2.015   5.755  20.588  0.00  0.00    +0.000 C 
BRANCH  16  17
ATOM     17  C   UNL     1       1.655   7.174  20.225  0.00  0.00    +0.000 A 
ATOM     18  C   UNL     1       1.969   7.686  18.957  0.00  0.00    +0.000 A 
ATOM     19  C   UNL     1       1.699   9.021  18.646  0.00  0.00    +0.000 A 
ATOM     20  C   UNL     1       1.106   9.839  19.599  0.00  0.00    +0.000 A 
ATOM     21  F   UNL     1       0.872  11.125  19.308  0.00  0.00    +0.000 F 
ATOM     22  C   UNL     1       0.758   9.346  20.848  0.00  0.00    +0.000 A 
ATOM     23  C   UNL     1       1.029   8.013  21.163  0.00  0.00    +0.000 A 
ENDBRANCH  16  17
ENDBRANCH   6  16
TORSDOF 4
ENDMDL
MODEL 6
REMARK VINA RESULT:      -7.8      3.373      4.645
REMARK  Name = 
REMARK  4 active torsions:
REMARK  status: ('A' for Active; 'I' for Inactive)
REMARK    1  A    between atoms: C_2  and  C_5
REMARK    2  A    between atoms: N_3  and  O_4
REMARK    3  A    between atoms: N_10  and  C_11
REMARK    4  A    between atoms: C_11  and  C_12
REMARK                            x       y       z     vdW  Elec       q    Type
REMARK                         _______ _______ _______ _____ _____    ______ ____
ROOT
ATOM      1  C   UNL     1       6.526   4.770  14.868  0.00  0.00    +0.000 A 
ATOM      2  C   UNL     1       7.465   4.683  15.885  0.00  0.00    +0.000 A 
ATOM      3  C   UNL     1       7.022   5.016  17.170  0.00  0.00    +0.000 A 
ATOM      4  C   UNL     1       7.657   5.054  18.438  0.00  0.00    +0.000 A 
ATOM      5  C   UNL     1       6.710   5.410  19.368  0.00  0.00    +0.000 A 
ATOM      6  N   UNL     1       5.512   5.584  18.713  0.00  0.00    +0.000 N 
ATOM      7  C   UNL     1       5.688   5.394  17.354  0.00  0.00    +0.000 A 
ATOM      8  C   UNL     1       4.811   5.498  16.276  0.00  0.00    +0.000 A 
ATOM      9  N   UNL     1       5.240   5.185  15.031  0.00  0.00    +0.000 NA
ENDROOT
BRANCH   1  11
ATOM     10  O   UNL     1       7.654   5.036  12.773  0.00  0.00    +0.000 OA
ATOM     11  C   UNL     1       6.926   4.353  13.489  0.00  0.00    +0.000 C 
ATOM     12  N   UNL     1       6.417   3.147  13.077  0.00  0.00    +0.000 N 
ATOM     13  H   UNL     1       5.745   2.618  13.626  0.00  0.00    +0.000 HD
BRANCH  12  14
ATOM     14  O   UNL     1       6.726   2.727  11.766  0.00  0.00    +0.000 OA
ATOM     15  H   UNL     1       5.874   2.337  11.472  0.00  0.00    +0.000 HD
ENDBRANCH  12  14
ENDBRANCH   1  11
BRANCH   6  16
ATOM     16  C   UNL     1       4.242   5.808  19.403  0.00  0.00    +0.000 C 
BRANCH  16  17
ATOM     17  C   UNL     1       3.267   4.687  19.147  0.00  0.00    +0.000 A 
ATOM     18  C   UNL     1       2.126   4.900  18.359  0.00  0.00    +0.000 A 
ATOM     19  C   UNL     1       1.188   3.881  18.180  0.00  0.00    +0.000 A 
ATOM     20  C   UNL     1       1.396   2.646  18.782  0.00  0.00    +0.000 A 
ATOM     21  F   UNL     1       0.483   1.679  18.632  0.00  0.00    +0.000 F 
ATOM     22  C   UNL     1       2.533   2.402  19.540  0.00  0.00    +0.000 A 
ATOM     23  C   UNL     1       3.471   3.420  19.722  0.00  0.00    +0.000 A 
ENDBRANCH  16  17
ENDBRANCH   6  16
TORSDOF 4
ENDMDL
MODEL 7
REMARK VINA RESULT:      -7.8      1.142      1.161
REMARK  Name = 
REMARK  4 active torsions:
REMARK  status: ('A' for Active; 'I' for Inactive)
REMARK    1  A    between atoms: C_2  and  C_5
REMARK    2  A    between atoms: N_3  and  O_4
REMARK    3  A    between atoms: N_10  and  C_11
REMARK    4  A    between atoms: C_11  and  C_12
REMARK                            x       y       z     vdW  Elec       q    Type
REMARK                         _______ _______ _______ _____ _____    ______ ____
ROOT
ATOM      1  C   UNL     1       5.713   4.735  15.971  0.00  0.00    +0.000 A 
ATOM      2  C   UNL     1       4.544   3.989  15.967  0.00  0.00    +0.000 A 
ATOM      3  C   UNL     1       3.692   4.162  17.062  0.00  0.00    +0.000 A 
ATOM      4  C   UNL     1       2.440   3.598  17.420  0.00  0.00    +0.000 A 
ATOM      5  C   UNL     1       2.040   4.184  18.597  0.00  0.00    +0.000 A 
ATOM      6  N   UNL     1       3.001   5.095  18.970  0.00  0.00    +0.000 N 
ATOM      7  C   UNL     1       4.050   5.066  18.068  0.00  0.00    +0.000 A 
ATOM      8  C   UNL     1       5.262   5.752  18.024  0.00  0.00    +0.000 A 
ATOM      9  N   UNL     1       6.093   5.579  16.969  0.00  0.00    +0.000 NA
ENDROOT
BRANCH   1  11
ATOM     10  O   UNL     1       6.483   3.801  13.905  0.00  0.00    +0.000 OA
ATOM     11  C   UNL     1       6.623   4.644  14.788  0.00  0.00    +0.000 C 
ATOM     12  N   UNL     1       7.632   5.573  14.760  0.00  0.00    +0.000 N 
ATOM     13  H   UNL     1       7.809   6.216  15.528  0.00  0.00    +0.000 HD
BRANCH  12  14
ATOM     14  O   UNL     1       8.548   5.503  13.690  0.00  0.00    +0.000 OA
ATOM     15  H   UNL     1       9.399   5.703  14.137  0.00  0.00    +0.000 HD
ENDBRANCH  12  14
ENDBRANCH   1  11
BRANCH   6  16
ATOM     16  C   UNL     1       2.840   6.026  20.086  0.00  0.00    +0.000 C 
BRANCH  16  17
ATOM     17  C   UNL     1       2.231   7.330  19.637  0.00  0.00    +0.000 A 
ATOM     18  C   UNL     1       1.530   8.139  20.544  0.00  0.00    +0.000 A 
ATOM     19  C   UNL     1       0.907   9.312  20.112  0.00  0.00    +0.000 A 
ATOM     20  C   UNL     1       0.992   9.679  18.775  0.00  0.00    +0.000 A 
ATOM     21  F   UNL     1       0.371  10.789  18.358  0.00  0.00    +0.000 F 
ATOM     22  C   UNL     1       1.706   8.911  17.866  0.00  0.00    +0.000 A 
ATOM     23  C   UNL     1       2.328   7.737  18.295  0.00  0.00    +0.000 A 
ENDBRANCH  16  17
ENDBRANCH   6  16
TORSDOF 4
ENDMDL
MODEL 8
REMARK VINA RESULT:      -7.7      4.469      6.694
REMARK  Name = 
REMARK  4 active torsions:
REMARK  status: ('A' for Active; 'I' for Inactive)
REMARK    1  A    between atoms: C_2  and  C_5
REMARK    2  A    between atoms: N_3  and  O_4
REMARK    3  A    between atoms: N_10  and  C_11
REMARK    4  A    between atoms: C_11  and  C_12
REMARK                            x       y       z     vdW  Elec       q    Type
REMARK                         _______ _______ _______ _____ _____    ______ ____
ROOT
ATOM      1  C   UNL     1       1.338   8.219  20.485  0.00  0.00    +0.000 A 
ATOM      2  C   UNL     1       1.270   6.966  21.077  0.00  0.00    +0.000 A 
ATOM      3  C   UNL     1       1.869   5.914  20.377  0.00  0.00    +0.000 A 
ATOM      4  C   UNL     1       2.009   4.526  20.638  0.00  0.00    +0.000 A 
ATOM      5  C   UNL     1       2.745   3.981  19.614  0.00  0.00    +0.000 A 
ATOM      6  N   UNL     1       3.068   4.989  18.735  0.00  0.00    +0.000 N 
ATOM      7  C   UNL     1       2.501   6.179  19.157  0.00  0.00    +0.000 A 
ATOM      8  C   UNL     1       2.495   7.458  18.603  0.00  0.00    +0.000 A 
ATOM      9  N   UNL     1       1.907   8.476  19.275  0.00  0.00    +0.000 NA
ENDROOT
BRANCH   1  11
ATOM     10  O   UNL     1       0.531  10.465  20.682  0.00  0.00    +0.000 OA
ATOM     11  C   UNL     1       0.780   9.391  21.226  0.00  0.00    +0.000 C 
ATOM     12  N   UNL     1       0.564   9.182  22.565  0.00  0.00    +0.000 N 
ATOM     13  H   UNL     1       0.848   8.330  23.040  0.00  0.00    +0.000 HD
BRANCH  12  14
ATOM     14  O   UNL     1       0.081  10.270  23.321  0.00  0.00    +0.000 OA
ATOM     15  H   UNL     1      -0.871  10.048  23.412  0.00  0.00    +0.000 HD
ENDBRANCH  12  14
ENDBRANCH   1  11
BRANCH   6  16
ATOM     16  C   UNL     1       3.983   4.814  17.607  0.00  0.00    +0.000 C 
BRANCH  16  17
ATOM     17  C   UNL     1       5.308   5.488  17.859  0.00  0.00    +0.000 A 
ATOM     18  C   UNL     1       6.126   5.076  18.922  0.00  0.00    +0.000 A 
ATOM     19  C   UNL     1       7.320   5.746  19.198  0.00  0.00    +0.000 A 
ATOM     20  C   UNL     1       7.699   6.822  18.405  0.00  0.00    +0.000 A 
ATOM     21  F   UNL     1       8.831   7.480  18.687  0.00  0.00    +0.000 F 
ATOM     22  C   UNL     1       6.922   7.227  17.329  0.00  0.00    +0.000 A 
ATOM     23  C   UNL     1       5.727   6.561  17.053  0.00  0.00    +0.000 A 
ENDBRANCH  16  17
ENDBRANCH   6  16
TORSDOF 4
ENDMDL
MODEL 9
REMARK VINA RESULT:      -7.7      4.337      6.528
REMARK  Name = 
REMARK  4 active torsions:
REMARK  status: ('A' for Active; 'I' for Inactive)
REMARK    1  A    between atoms: C_2  and  C_5
REMARK    2  A    between atoms: N_3  and  O_4
REMARK    3  A    between atoms: N_10  and  C_11
REMARK    4  A    between atoms: C_11  and  C_12
REMARK                            x       y       z     vdW  Elec       q    Type
REMARK                         _______ _______ _______ _____ _____    ______ ____
ROOT
ATOM      1  C   UNL     1       1.447   7.227  20.546  0.00  0.00    +0.000 A 
ATOM      2  C   UNL     1       1.389   5.866  20.807  0.00  0.00    +0.000 A 
ATOM      3  C   UNL     1       2.092   5.034  19.930  0.00  0.00    +0.000 A 
ATOM      4  C   UNL     1       2.275   3.628  19.858  0.00  0.00    +0.000 A 
ATOM      5  C   UNL     1       3.116   3.371  18.803  0.00  0.00    +0.000 A 
ATOM      6  N   UNL     1       3.462   4.572  18.228  0.00  0.00    +0.000 N 
ATOM      7  C   UNL     1       2.808   5.607  18.873  0.00  0.00    +0.000 A 
ATOM      8  C   UNL     1       2.787   6.982  18.648  0.00  0.00    +0.000 A 
ATOM      9  N   UNL     1       2.100   7.789  19.491  0.00  0.00    +0.000 NA
ENDROOT
BRANCH   1  11
ATOM     10  O   UNL     1      -0.444   8.310  21.538  0.00  0.00    +0.000 OA
ATOM     11  C   UNL     1       0.776   8.167  21.495  0.00  0.00    +0.000 C 
ATOM     12  N   UNL     1       1.624   8.863  22.320  0.00  0.00    +0.000 N 
ATOM     13  H   UNL     1       2.636   8.817  22.232  0.00  0.00    +0.000 HD
BRANCH  12  14
ATOM     14  O   UNL     1       1.046   9.798  23.204  0.00  0.00    +0.000 OA
ATOM     15  H   UNL     1       0.715   9.218  23.924  0.00  0.00    +0.000 HD
ENDBRANCH  12  14
ENDBRANCH   1  11
BRANCH   6  16
ATOM     16  C   UNL     1       4.473   4.703  17.179  0.00  0.00    +0.000 C 
BRANCH  16  17
ATOM     17  C   UNL     1       5.637   5.548  17.633  0.00  0.00    +0.000 A 
ATOM     18  C   UNL     1       5.951   6.743  16.970  0.00  0.00    +0.000 A 
ATOM     19  C   UNL     1       7.070   7.489  17.346  0.00  0.00    +0.000 A 
ATOM     20  C   UNL     1       7.869   7.043  18.391  0.00  0.00    +0.000 A 
ATOM     21  F   UNL     1       8.957   7.745  18.733  0.00  0.00    +0.000 F 
ATOM     22  C   UNL     1       7.561   5.880  19.082  0.00  0.00    +0.000 A 
ATOM     23  C   UNL     1       6.444   5.132  18.707  0.00  0.00    +0.000 A 
ENDBRANCH  16  17
ENDBRANCH   6  16
TORSDOF 4
ENDMDL
