MODEL 1
REMARK VINA RESULT:      -7.6      0.000      0.000
REMARK  Name = 
REMARK  5 active torsions:
REMARK  status: ('A' for Active; 'I' for Inactive)
REMARK    1  A    between atoms: C_1  and  C_2
REMARK    2  A    between atoms: C_2  and  C_3
REMARK    3  A    between atoms: C_8  and  C_9
REMARK    4  A    between atoms: C_13  and  N_14
REMARK    5  A    between atoms: C_21  and  O_22
REMARK                            x       y       z     vdW  Elec       q    Type
REMARK                         _______ _______ _______ _____ _____    ______ ____
ROOT
ATOM      1  C   UNL     1       8.083   6.853  18.566  0.00  0.00    +0.000 C 
ATOM      2  C   UNL     1       7.067   6.201  17.603  0.00  0.00    +0.000 C 
ATOM      3  C   UNL     1       5.856   7.145  17.552  0.00  0.00    +0.000 C 
ATOM      4  O   UNL     1       7.679   6.177  16.296  0.00  0.00    +0.000 OA
ATOM      5  C   UNL     1       7.119   5.326  15.379  0.00  0.00    +0.000 A 
ATOM      6  C   UNL     1       7.460   5.577  14.048  0.00  0.00    +0.000 A 
ATOM      7  C   UNL     1       6.940   4.785  13.022  0.00  0.00    +0.000 A 
ATOM      8  C   UNL     1       6.088   3.718  13.322  0.00  0.00    +0.000 A 
ATOM      9  C   UNL     1       5.763   3.454  14.660  0.00  0.00    +0.000 A 
ATOM     10  C   UNL     1       6.269   4.260  15.699  0.00  0.00    +0.000 A 
ATOM     11  C   UNL     1       5.853   3.983  17.130  0.00  0.00    +0.000 C 
ATOM     12  C   UNL     1       6.786   4.759  18.091  0.00  0.00    +0.000 C 
ENDROOT
BRANCH  11  13
ATOM     13  N   UNL     1       4.404   4.214  17.367  0.00  0.00    +0.000 N 
ATOM     14  N   UNL     1       3.966   5.525  17.411  0.00  0.00    +0.000 NA
ATOM     15  C   UNL     1       2.715   5.740  17.633  0.00  0.00    +0.000 A 
ATOM     16  C   UNL     1       1.693   4.708  17.812  0.00  0.00    +0.000 A 
ATOM     17  C   UNL     1       2.120   3.446  17.761  0.00  0.00    +0.000 A 
ATOM     18  C   UNL     1       3.550   3.130  17.547  0.00  0.00    +0.000 A 
ATOM     19  O   UNL     1       3.904   1.957  17.572  0.00  0.00    +0.000 OA
ENDBRANCH  11  13
BRANCH   8  20
ATOM     20  C   UNL     1       5.540   2.908  12.269  0.00  0.00    +0.000 C 
ATOM     21  N   UNL     1       5.094   2.257  11.417  0.00  0.00    +0.000 NA
ENDBRANCH   8  20
BRANCH  12  22
ATOM     22  O   UNL     1       6.400   4.715  19.466  0.00  0.00    +0.000 OA
ATOM     23  H   UNL     1       5.431   4.738  19.516  0.00  0.00    +0.000 HD
ENDBRANCH  12  22
TORSDOF 3
ENDMDL
MODEL 2
REMARK VINA RESULT:      -7.5      3.433      5.250
REMARK  Name = 
REMARK  5 active torsions:
REMARK  status: ('A' for Active; 'I' for Inactive)
REMARK    1  A    between atoms: C_1  and  C_2
REMARK    2  A    between atoms: C_2  and  C_3
REMARK    3  A    between atoms: C_8  and  C_9
REMARK    4  A    between atoms: C_13  and  N_14
REMARK    5  A    between atoms: C_21  and  O_22
REMARK                            x       y       z     vdW  Elec       q    Type
REMARK                         _______ _______ _______ _____ _____    ______ ____
ROOT
ATOM      1  C   UNL     1       2.765   2.029  18.088  0.00  0.00    +0.000 C 
ATOM      2  C   UNL     1       3.323   3.436  18.391  0.00  0.00    +0.000 C 
ATOM      3  C   UNL     1       3.077   3.683  19.887  0.00  0.00    +0.000 C 
ATOM      4  O   UNL     1       4.749   3.381  18.168  0.00  0.00    +0.000 OA
ATOM      5  C   UNL     1       5.387   4.586  18.022  0.00  0.00    +0.000 A 
ATOM      6  C   UNL     1       6.774   4.549  18.184  0.00  0.00    +0.000 A 
ATOM      7  C   UNL     1       7.532   5.717  18.072  0.00  0.00    +0.000 A 
ATOM      8  C   UNL     1       6.908   6.932  17.774  0.00  0.00    +0.000 A 
ATOM      9  C   UNL     1       5.519   6.964  17.590  0.00  0.00    +0.000 A 
ATOM     10  C   UNL     1       4.745   5.794  17.721  0.00  0.00    +0.000 A 
ATOM     11  C   UNL     1       3.238   5.873  17.572  0.00  0.00    +0.000 C 
ATOM     12  C   UNL     1       2.667   4.443  17.416  0.00  0.00    +0.000 C 
ENDROOT
BRANCH  11  13
ATOM     13  N   UNL     1       2.593   6.676  18.644  0.00  0.00    +0.000 N 
ATOM     14  N   UNL     1       2.350   6.049  19.852  0.00  0.00    +0.000 NA
ATOM     15  C   UNL     1       1.775   6.728  20.784  0.00  0.00    +0.000 A 
ATOM     16  C   UNL     1       1.380   8.134  20.691  0.00  0.00    +0.000 A 
ATOM     17  C   UNL     1       1.623   8.736  19.527  0.00  0.00    +0.000 A 
ATOM     18  C   UNL     1       2.247   8.002  18.402  0.00  0.00    +0.000 A 
ATOM     19  O   UNL     1       2.393   8.579  17.331  0.00  0.00    +0.000 OA
ENDBRANCH  11  13
BRANCH   8  20
ATOM     20  C   UNL     1       7.682   8.139  17.670  0.00  0.00    +0.000 C 
ATOM     21  N   UNL     1       8.306   9.114  17.581  0.00  0.00    +0.000 NA
ENDBRANCH   8  20
BRANCH  12  22
ATOM     22  O   UNL     1       1.240   4.364  17.433  0.00  0.00    +0.000 OA
ATOM     23  H   UNL     1       0.892   4.902  16.704  0.00  0.00    +0.000 HD
ENDBRANCH  12  22
TORSDOF 3
ENDMDL
MODEL 3
REMARK VINA RESULT:      -6.7      3.098      5.478
REMARK  Name = 
REMARK  5 active torsions:
REMARK  status: ('A' for Active; 'I' for Inactive)
REMARK    1  A    between atoms: C_1  and  C_2
REMARK    2  A    between atoms: C_2  and  C_3
REMARK    3  A    between atoms: C_8  and  C_9
REMARK    4  A    between atoms: C_13  and  N_14
REMARK    5  A    between atoms: C_21  and  O_22
REMARK                            x       y       z     vdW  Elec       q    Type
REMARK                         _______ _______ _______ _____ _____    ______ ____
ROOT
ATOM      1  C   UNL     1       5.610   3.427  16.286  0.00  0.00    +0.000 C 
ATOM      2  C   UNL     1       4.687   4.218  17.237  0.00  0.00    +0.000 C 
ATOM      3  C   UNL     1       5.269   4.042  18.648  0.00  0.00    +0.000 C 
ATOM      4  O   UNL     1       4.796   5.610  16.870  0.00  0.00    +0.000 OA
ATOM      5  C   UNL     1       3.804   6.439  17.328  0.00  0.00    +0.000 A 
ATOM      6  C   UNL     1       4.104   7.802  17.297  0.00  0.00    +0.000 A 
ATOM      7  C   UNL     1       3.177   8.743  17.751  0.00  0.00    +0.000 A 
ATOM      8  C   UNL     1       1.929   8.326  18.221  0.00  0.00    +0.000 A 
ATOM      9  C   UNL     1       1.619   6.959  18.232  0.00  0.00    +0.000 A 
ATOM     10  C   UNL     1       2.557   6.003  17.794  0.00  0.00    +0.000 A 
ATOM     11  C   UNL     1       2.213   4.528  17.872  0.00  0.00    +0.000 C 
ATOM     12  C   UNL     1       3.234   3.723  17.033  0.00  0.00    +0.000 C 
ENDROOT
BRANCH  11  13
ATOM     13  N   UNL     1       2.052   4.045  19.268  0.00  0.00    +0.000 N 
ATOM     14  N   UNL     1       2.759   4.704  20.257  0.00  0.00    +0.000 NA
ATOM     15  C   UNL     1       2.643   4.285  21.469  0.00  0.00    +0.000 A 
ATOM     16  C   UNL     1       1.792   3.178  21.909  0.00  0.00    +0.000 A 
ATOM     17  C   UNL     1       1.107   2.551  20.952  0.00  0.00    +0.000 A 
ATOM     18  C   UNL     1       1.225   2.959  19.534  0.00  0.00    +0.000 A 
ATOM     19  O   UNL     1       0.625   2.311  18.683  0.00  0.00    +0.000 OA
ENDBRANCH  11  13
BRANCH   8  20
ATOM     20  C   UNL     1       0.975   9.289  18.701  0.00  0.00    +0.000 C 
ATOM     21  N   UNL     1       0.202  10.065  19.086  0.00  0.00    +0.000 NA
ENDBRANCH   8  20
BRANCH  12  22
ATOM     22  O   UNL     1       3.122   2.303  17.155  0.00  0.00    +0.000 OA
ATOM     23  H   UNL     1       2.504   1.982  16.480  0.00  0.00    +0.000 HD
ENDBRANCH  12  22
TORSDOF 3
ENDMDL
MODEL 4
REMARK VINA RESULT:      -6.5      1.275      1.565
REMARK  Name = 
REMARK  5 active torsions:
REMARK  status: ('A' for Active; 'I' for Inactive)
REMARK    1  A    between atoms: C_1  and  C_2
REMARK    2  A    between atoms: C_2  and  C_3
REMARK    3  A    between atoms: C_8  and  C_9
REMARK    4  A    between atoms: C_13  and  N_14
REMARK    5  A    between atoms: C_21  and  O_22
REMARK                            x       y       z     vdW  Elec       q    Type
REMARK                         _______ _______ _______ _____ _____    ______ ____
ROOT
ATOM      1  C   UNL     1       8.436   5.381  19.232  0.00  0.00    +0.000 C 
ATOM      2  C   UNL     1       7.345   5.465  18.144  0.00  0.00    +0.000 C 
ATOM      3  C   UNL     1       6.945   6.945  18.049  0.00  0.00    +0.000 C 
ATOM      4  O   UNL     1       7.962   5.080  16.897  0.00  0.00    +0.000 OA
ATOM      5  C   UNL     1       7.111   4.732  15.880  0.00  0.00    +0.000 A 
ATOM      6  C   UNL     1       7.677   4.730  14.603  0.00  0.00    +0.000 A 
ATOM      7  C   UNL     1       6.905   4.405  13.485  0.00  0.00    +0.000 A 
ATOM      8  C   UNL     1       5.560   4.058  13.639  0.00  0.00    +0.000 A 
ATOM      9  C   UNL     1       4.998   4.040  14.923  0.00  0.00    +0.000 A 
ATOM     10  C   UNL     1       5.765   4.385  16.053  0.00  0.00    +0.000 A 
ATOM     11  C   UNL     1       5.112   4.410  17.422  0.00  0.00    +0.000 C 
ATOM     12  C   UNL     1       6.212   4.475  18.509  0.00  0.00    +0.000 C 
ENDROOT
BRANCH  11  13
ATOM     13  N   UNL     1       4.068   5.461  17.544  0.00  0.00    +0.000 N 
ATOM     14  N   UNL     1       4.308   6.674  16.926  0.00  0.00    +0.000 NA
ATOM     15  C   UNL     1       3.419   7.600  17.039  0.00  0.00    +0.000 A 
ATOM     16  C   UNL     1       2.143   7.472  17.745  0.00  0.00    +0.000 A 
ATOM     17  C   UNL     1       1.914   6.298  18.333  0.00  0.00    +0.000 A 
ATOM     18  C   UNL     1       2.911   5.205  18.273  0.00  0.00    +0.000 A 
ATOM     19  O   UNL     1       2.683   4.166  18.883  0.00  0.00    +0.000 OA
ENDBRANCH  11  13
BRANCH   8  20
ATOM     20  C   UNL     1       4.757   3.736  12.491  0.00  0.00    +0.000 C 
ATOM     21  N   UNL     1       4.106   3.479  11.565  0.00  0.00    +0.000 NA
ENDBRANCH   8  20
BRANCH  12  22
ATOM     22  O   UNL     1       5.727   4.670  19.839  0.00  0.00    +0.000 OA
ATOM     23  H   UNL     1       5.632   3.803  20.264  0.00  0.00    +0.000 HD
ENDBRANCH  12  22
TORSDOF 3
ENDMDL
MODEL 5
REMARK VINA RESULT:      -6.5      1.939      4.996
REMARK  Name = 
REMARK  5 active torsions:
REMARK  status: ('A' for Active; 'I' for Inactive)
REMARK    1  A    between atoms: C_1  and  C_2
REMARK    2  A    between atoms: C_2  and  C_3
REMARK    3  A    between atoms: C_8  and  C_9
REMARK    4  A    between atoms: C_13  and  N_14
REMARK    5  A    between atoms: C_21  and  O_22
REMARK                            x       y       z     vdW  Elec       q    Type
REMARK                         _______ _______ _______ _____ _____    ______ ____
ROOT
ATOM      1  C   UNL     1       8.200   6.389  19.388  0.00  0.00    +0.000 C 
ATOM      2  C   UNL     1       7.110   5.538  18.702  0.00  0.00    +0.000 C 
ATOM      3  C   UNL     1       7.849   4.440  17.922  0.00  0.00    +0.000 C 
ATOM      4  O   UNL     1       6.341   4.911  19.751  0.00  0.00    +0.000 OA
ATOM      5  C   UNL     1       5.116   4.413  19.391  0.00  0.00    +0.000 A 
ATOM      6  C   UNL     1       4.557   3.499  20.287  0.00  0.00    +0.000 A 
ATOM      7  C   UNL     1       3.317   2.913  20.021  0.00  0.00    +0.000 A 
ATOM      8  C   UNL     1       2.614   3.255  18.863  0.00  0.00    +0.000 A 
ATOM      9  C   UNL     1       3.165   4.188  17.974  0.00  0.00    +0.000 A 
ATOM     10  C   UNL     1       4.424   4.769  18.226  0.00  0.00    +0.000 A 
ATOM     11  C   UNL     1       5.018   5.732  17.217  0.00  0.00    +0.000 C 
ATOM     12  C   UNL     1       6.208   6.479  17.866  0.00  0.00    +0.000 C 
ENDROOT
BRANCH  11  13
ATOM     13  N   UNL     1       5.338   5.084  15.918  0.00  0.00    +0.000 N 
ATOM     14  N   UNL     1       5.649   3.737  15.937  0.00  0.00    +0.000 NA
ATOM     15  C   UNL     1       5.945   3.167  14.820  0.00  0.00    +0.000 A 
ATOM     16  C   UNL     1       5.951   3.816  13.508  0.00  0.00    +0.000 A 
ATOM     17  C   UNL     1       5.644   5.113  13.495  0.00  0.00    +0.000 A 
ATOM     18  C   UNL     1       5.329   5.838  14.748  0.00  0.00    +0.000 A 
ATOM     19  O   UNL     1       5.116   7.043  14.693  0.00  0.00    +0.000 OA
ENDBRANCH  11  13
BRANCH   8  20
ATOM     20  C   UNL     1       1.344   2.645  18.578  0.00  0.00    +0.000 C 
ATOM     21  N   UNL     1       0.320   2.149  18.348  0.00  0.00    +0.000 NA
ENDBRANCH   8  20
BRANCH  12  22
ATOM     22  O   UNL     1       6.962   7.298  16.969  0.00  0.00    +0.000 OA
ATOM     23  H   UNL     1       7.890   7.015  16.997  0.00  0.00    +0.000 HD
ENDBRANCH  12  22
TORSDOF 3
ENDMDL
MODEL 6
REMARK VINA RESULT:      -6.4      8.201     10.765
REMARK  Name = 
REMARK  5 active torsions:
REMARK  status: ('A' for Active; 'I' for Inactive)
REMARK    1  A    between atoms: C_1  and  C_2
REMARK    2  A    between atoms: C_2  and  C_3
REMARK    3  A    between atoms: C_8  and  C_9
REMARK    4  A    between atoms: C_13  and  N_14
REMARK    5  A    between atoms: C_21  and  O_22
REMARK                            x       y       z     vdW  Elec       q    Type
REMARK                         _______ _______ _______ _____ _____    ______ ____
ROOT
ATOM      1  C   UNL     1       1.912   8.742  18.752  0.00  0.00    +0.000 C 
ATOM      2  C   UNL     1       0.850   9.862  18.720  0.00  0.00    +0.000 C 
ATOM      3  C   UNL     1       1.586  11.139  18.287  0.00  0.00    +0.000 C 
ATOM      4  O   UNL     1      -0.100   9.514  17.690  0.00  0.00    +0.000 OA
ATOM      5  C   UNL     1      -1.307  10.163  17.734  0.00  0.00    +0.000 A 
ATOM      6  C   UNL     1      -2.055  10.109  16.555  0.00  0.00    +0.000 A 
ATOM      7  C   UNL     1      -3.296  10.745  16.474  0.00  0.00    +0.000 A 
ATOM      8  C   UNL     1      -3.810  11.425  17.582  0.00  0.00    +0.000 A 
ATOM      9  C   UNL     1      -3.069  11.460  18.771  0.00  0.00    +0.000 A 
ATOM     10  C   UNL     1      -1.807  10.837  18.855  0.00  0.00    +0.000 A 
ATOM     11  C   UNL     1      -1.005  10.942  20.137  0.00  0.00    +0.000 C 
ATOM     12  C   UNL     1       0.151   9.913  20.100  0.00  0.00    +0.000 C 
ENDROOT
BRANCH  11  13
ATOM     13  N   UNL     1      -0.577  12.333  20.439  0.00  0.00    +0.000 N 
ATOM     14  N   UNL     1      -0.420  13.197  19.372  0.00  0.00    +0.000 NA
ATOM     15  C   UNL     1      -0.031  14.401  19.617  0.00  0.00    +0.000 A 
ATOM     16  C   UNL     1       0.231  14.956  20.946  0.00  0.00    +0.000 A 
ATOM     17  C   UNL     1       0.071  14.120  21.972  0.00  0.00    +0.000 A 
ATOM     18  C   UNL     1      -0.337  12.713  21.756  0.00  0.00    +0.000 A 
ATOM     19  O   UNL     1      -0.409  11.965  22.725  0.00  0.00    +0.000 OA
ENDBRANCH  11  13
BRANCH   8  20
ATOM     20  C   UNL     1      -5.081  12.091  17.500  0.00  0.00    +0.000 C 
ATOM     21  N   UNL     1      -6.106  12.632  17.437  0.00  0.00    +0.000 NA
ENDBRANCH   8  20
BRANCH  12  22
ATOM     22  O   UNL     1       1.083  10.021  21.178  0.00  0.00    +0.000 OA
ATOM     23  H   UNL     1       1.276  10.961  21.327  0.00  0.00    +0.000 HD
ENDBRANCH  12  22
TORSDOF 3
ENDMDL
MODEL 7
REMARK VINA RESULT:      -6.3      7.426      9.956
REMARK  Name = 
REMARK  5 active torsions:
REMARK  status: ('A' for Active; 'I' for Inactive)
REMARK    1  A    between atoms: C_1  and  C_2
REMARK    2  A    between atoms: C_2  and  C_3
REMARK    3  A    between atoms: C_8  and  C_9
REMARK    4  A    between atoms: C_13  and  N_14
REMARK    5  A    between atoms: C_21  and  O_22
REMARK                            x       y       z     vdW  Elec       q    Type
REMARK                         _______ _______ _______ _____ _____    ______ ____
ROOT
ATOM      1  C   UNL     1      -0.780  13.178  22.717  0.00  0.00    +0.000 C 
ATOM      2  C   UNL     1      -0.855  12.172  21.550  0.00  0.00    +0.000 C 
ATOM      3  C   UNL     1      -0.987  10.781  22.189  0.00  0.00    +0.000 C 
ATOM      4  O   UNL     1      -2.070  12.455  20.824  0.00  0.00    +0.000 OA
ATOM      5  C   UNL     1      -2.156  11.937  19.557  0.00  0.00    +0.000 A 
ATOM      6  C   UNL     1      -3.444  11.890  19.019  0.00  0.00    +0.000 A 
ATOM      7  C   UNL     1      -3.660  11.369  17.741  0.00  0.00    +0.000 A 
ATOM      8  C   UNL     1      -2.581  10.910  16.980  0.00  0.00    +0.000 A 
ATOM      9  C   UNL     1      -1.287  10.977  17.512  0.00  0.00    +0.000 A 
ATOM     10  C   UNL     1      -1.063  11.483  18.808  0.00  0.00    +0.000 A 
ATOM     11  C   UNL     1       0.342  11.490  19.377  0.00  0.00    +0.000 C 
ATOM     12  C   UNL     1       0.377  12.387  20.637  0.00  0.00    +0.000 C 
ENDROOT
BRANCH  11  13
ATOM     13  N   UNL     1       0.889  10.123  19.584  0.00  0.00    +0.000 N 
ATOM     14  N   UNL     1       0.639   9.514  20.800  0.00  0.00    +0.000 NA
ATOM     15  C   UNL     1       1.122   8.336  21.000  0.00  0.00    +0.000 A 
ATOM     16  C   UNL     1       1.893   7.557  20.031  0.00  0.00    +0.000 A 
ATOM     17  C   UNL     1       2.125   8.147  18.857  0.00  0.00    +0.000 A 
ATOM     18  C   UNL     1       1.630   9.514  18.577  0.00  0.00    +0.000 A 
ATOM     19  O   UNL     1       1.923  10.038  17.508  0.00  0.00    +0.000 OA
ENDBRANCH  11  13
BRANCH   8  20
ATOM     20  C   UNL     1      -2.799  10.362  15.669  0.00  0.00    +0.000 C 
ATOM     21  N   UNL     1      -2.971   9.918  14.610  0.00  0.00    +0.000 NA
ENDBRANCH   8  20
BRANCH  12  22
ATOM     22  O   UNL     1       1.606  12.349  21.365  0.00  0.00    +0.000 OA
ATOM     23  H   UNL     1       2.001  11.469  21.259  0.00  0.00    +0.000 HD
ENDBRANCH  12  22
TORSDOF 3
ENDMDL
MODEL 8
REMARK VINA RESULT:      -6.3      9.919     12.109
REMARK  Name = 
REMARK  5 active torsions:
REMARK  status: ('A' for Active; 'I' for Inactive)
REMARK    1  A    between atoms: C_1  and  C_2
REMARK    2  A    between atoms: C_2  and  C_3
REMARK    3  A    between atoms: C_8  and  C_9
REMARK    4  A    between atoms: C_13  and  N_14
REMARK    5  A    between atoms: C_21  and  O_22
REMARK                            x       y       z     vdW  Elec       q    Type
REMARK                         _______ _______ _______ _____ _____    ______ ____
ROOT
ATOM      1  C   UNL     1      11.966  17.982  17.745  0.00  0.00    +0.000 C 
ATOM      2  C   UNL     1      10.899  16.982  18.238  0.00  0.00    +0.000 C 
ATOM      3  C   UNL     1      11.275  16.630  19.685  0.00  0.00    +0.000 C 
ATOM      4  O   UNL     1       9.638  17.685  18.255  0.00  0.00    +0.000 OA
ATOM      5  C   UNL     1       8.510  16.907  18.305  0.00  0.00    +0.000 A 
ATOM      6  C   UNL     1       7.345  17.572  18.695  0.00  0.00    +0.000 A 
ATOM      7  C   UNL     1       6.135  16.881  18.797  0.00  0.00    +0.000 A 
ATOM      8  C   UNL     1       6.077  15.520  18.487  0.00  0.00    +0.000 A 
ATOM      9  C   UNL     1       7.241  14.858  18.075  0.00  0.00    +0.000 A 
ATOM     10  C   UNL     1       8.470  15.544  17.989  0.00  0.00    +0.000 A 
ATOM     11  C   UNL     1       9.723  14.786  17.595  0.00  0.00    +0.000 C 
ATOM     12  C   UNL     1      10.839  15.798  17.242  0.00  0.00    +0.000 C 
ENDROOT
BRANCH  11  13
ATOM     13  N   UNL     1      10.119  13.763  18.598  0.00  0.00    +0.000 N 
ATOM     14  N   UNL     1       9.844  14.032  19.926  0.00  0.00    +0.000 NA
ATOM     15  C   UNL     1      10.198  13.162  20.808  0.00  0.00    +0.000 A 
ATOM     16  C   UNL     1      10.845  11.880  20.525  0.00  0.00    +0.000 A 
ATOM     17  C   UNL     1      11.102  11.623  19.243  0.00  0.00    +0.000 A 
ATOM     18  C   UNL     1      10.754  12.597  18.183  0.00  0.00    +0.000 A 
ATOM     19  O   UNL     1      11.068  12.344  17.025  0.00  0.00    +0.000 OA
ENDBRANCH  11  13
BRANCH   8  20
ATOM     20  C   UNL     1       4.837  14.802  18.602  0.00  0.00    +0.000 C 
ATOM     21  N   UNL     1       3.833  14.226  18.695  0.00  0.00    +0.000 NA
ENDBRANCH   8  20
BRANCH  12  22
ATOM     22  O   UNL     1      12.124  15.216  17.012  0.00  0.00    +0.000 OA
ATOM     23  H   UNL     1      12.011  14.426  16.460  0.00  0.00    +0.000 HD
ENDBRANCH  12  22
TORSDOF 3
ENDMDL
MODEL 9
REMARK VINA RESULT:      -6.2      3.458      4.657
REMARK  Name = 
REMARK  5 active torsions:
REMARK  status: ('A' for Active; 'I' for Inactive)
REMARK    1  A    between atoms: C_1  and  C_2
REMARK    2  A    between atoms: C_2  and  C_3
REMARK    3  A    between atoms: C_8  and  C_9
REMARK    4  A    between atoms: C_13  and  N_14
REMARK    5  A    between atoms: C_21  and  O_22
REMARK                            x       y       z     vdW  Elec       q    Type
REMARK                         _______ _______ _______ _____ _____    ______ ____
ROOT
ATOM      1  C   UNL     1       1.250   8.883  18.586  0.00  0.00    +0.000 C 
ATOM      2  C   UNL     1       2.117   7.616  18.429  0.00  0.00    +0.000 C 
ATOM      3  C   UNL     1       1.328   6.665  17.516  0.00  0.00    +0.000 C 
ATOM      4  O   UNL     1       3.322   8.012  17.740  0.00  0.00    +0.000 OA
ATOM      5  C   UNL     1       4.380   7.143  17.816  0.00  0.00    +0.000 A 
ATOM      6  C   UNL     1       5.383   7.340  16.864  0.00  0.00    +0.000 A 
ATOM      7  C   UNL     1       6.504   6.507  16.834  0.00  0.00    +0.000 A 
ATOM      8  C   UNL     1       6.641   5.481  17.773  0.00  0.00    +0.000 A 
ATOM      9  C   UNL     1       5.645   5.298  18.742  0.00  0.00    +0.000 A 
ATOM     10  C   UNL     1       4.501   6.122  18.767  0.00  0.00    +0.000 A 
ATOM     11  C   UNL     1       3.415   5.862  19.792  0.00  0.00    +0.000 C 
ATOM     12  C   UNL     1       2.459   7.078  19.840  0.00  0.00    +0.000 C 
ENDROOT
BRANCH  11  13
ATOM     13  N   UNL     1       2.733   4.556  19.593  0.00  0.00    +0.000 N 
ATOM     14  N   UNL     1       2.581   4.107  18.294  0.00  0.00    +0.000 NA
ATOM     15  C   UNL     1       1.976   2.986  18.105  0.00  0.00    +0.000 A 
ATOM     16  C   UNL     1       1.456   2.112  19.158  0.00  0.00    +0.000 A 
ATOM     17  C   UNL     1       1.611   2.547  20.409  0.00  0.00    +0.000 A 
ATOM     18  C   UNL     1       2.265   3.845  20.693  0.00  0.00    +0.000 A 
ATOM     19  O   UNL     1       2.327   4.231  21.854  0.00  0.00    +0.000 OA
ENDBRANCH  11  13
BRANCH   8  20
ATOM     20  C   UNL     1       7.787   4.613  17.739  0.00  0.00    +0.000 C 
ATOM     21  N   UNL     1       8.715   3.917  17.709  0.00  0.00    +0.000 NA
ENDBRANCH   8  20
BRANCH  12  22
ATOM     22  O   UNL     1       1.295   6.893  20.648  0.00  0.00    +0.000 OA
ATOM     23  H   UNL     1       0.901   6.033  20.430  0.00  0.00    +0.000 HD
ENDBRANCH  12  22
TORSDOF 3
ENDMDL
