MODEL 1
REMARK VINA RESULT:      -6.6      0.000      0.000
REMARK  Name = 
REMARK  10 active torsions:
REMARK  status: ('A' for Active; 'I' for Inactive)
REMARK    1  A    between atoms: C_1  and  S_2
REMARK    2  A    between atoms: S_2  and  N_5
REMARK    3  A    between atoms: C_6  and  C_8
REMARK    4  A    between atoms: C_10  and  N_11
REMARK    5  A    between atoms: N_11  and  C_12
REMARK    6  A    between atoms: N_11  and  C_15
REMARK    7  A    between atoms: C_12  and  C_13
REMARK    8  A    between atoms: C_15  and  C_16
REMARK    9  A    between atoms: C_18  and  N_19
REMARK   10  A    between atoms: C_23  and  N_24
REMARK                            x       y       z     vdW  Elec       q    Type
REMARK                         _______ _______ _______ _____ _____    ______ ____
ROOT
ATOM      1  C   UNL     1       2.307   7.378  19.336  0.00  0.00    +0.000 A 
ATOM      2  C   UNL     1       3.130   6.229  19.480  0.00  0.00    +0.000 A 
ATOM      3  C   UNL     1       4.099   5.802  18.542  0.00  0.00    +0.000 A 
ATOM      4  C   UNL     1       4.105   6.547  17.338  0.00  0.00    +0.000 A 
ATOM      5  C   UNL     1       3.293   7.685  17.140  0.00  0.00    +0.000 A 
ATOM      6  C   UNL     1       2.414   8.095  18.151  0.00  0.00    +0.000 A 
ENDROOT
BRANCH   1   8
ATOM      7  N   UNL     1       1.160   9.035  20.827  0.00  0.00    +0.000 N 
ATOM      8  C   UNL     1       1.525   7.716  20.559  0.00  0.00    +0.000 C 
ATOM      9  O   UNL     1       1.255   6.810  21.331  0.00  0.00    +0.000 OA
ATOM     10  H   UNL     1       1.353   9.840  20.226  0.00  0.00    +0.000 HD
BRANCH   7  12
ATOM     11  C   UNL     1      -0.600  10.957  21.519  0.00  0.00    +0.000 C 
ATOM     12  S   UNL     1       0.138   9.433  22.090  0.00  0.00    +0.000 S 
ATOM     13  O   UNL     1       0.931   9.682  23.272  0.00  0.00    +0.000 OA
ATOM     14  O   UNL     1      -0.891   8.416  22.086  0.00  0.00    +0.000 OA
ENDBRANCH   7  12
ENDBRANCH   1   8
BRANCH   4  15
ATOM     15  N   UNL     1       4.931   6.172  16.192  0.00  0.00    +0.000 N 
ATOM     16  O   UNL     1       4.890   5.000  15.812  0.00  0.00    +0.000 OA
ATOM     17  O   UNL     1       5.590   7.083  15.667  0.00  0.00    +0.000 OA
ENDBRANCH   4  15
BRANCH   6  18
ATOM     18  N   UNL     1       1.693   9.322  17.932  0.00  0.00    +0.000 N 
ATOM     19  O   UNL     1       0.488   9.223  17.664  0.00  0.00    +0.000 OA
ATOM     20  O   UNL     1       2.329  10.375  18.021  0.00  0.00    +0.000 OA
ENDBRANCH   6  18
BRANCH   3  21
ATOM     21  N   UNL     1       4.984   4.783  18.893  0.00  0.00    +0.000 N 
BRANCH  21  22
ATOM     22  C   UNL     1       4.515   3.398  19.212  0.00  0.00    +0.000 C 
BRANCH  22  23
ATOM     23  C   UNL     1       3.732   2.705  18.092  0.00  0.00    +0.000 C 
ATOM     24 CL   UNL     1       1.974   2.758  18.374  0.00  0.00    +0.000 Cl
ENDBRANCH  22  23
ENDBRANCH  21  22
BRANCH  21  25
ATOM     25  C   UNL     1       6.358   5.073  19.402  0.00  0.00    +0.000 C 
BRANCH  25  26
ATOM     26  C   UNL     1       7.460   5.324  18.366  0.00  0.00    +0.000 C 
ATOM     27 CL   UNL     1       7.902   7.043  18.230  0.00  0.00    +0.000 Cl
ENDBRANCH  25  26
ENDBRANCH  21  25
ENDBRANCH   3  21
TORSDOF 9
ENDMDL
MODEL 2
REMARK VINA RESULT:      -6.3      0.513      1.002
REMARK  Name = 
REMARK  10 active torsions:
REMARK  status: ('A' for Active; 'I' for Inactive)
REMARK    1  A    between atoms: C_1  and  S_2
REMARK    2  A    between atoms: S_2  and  N_5
REMARK    3  A    between atoms: C_6  and  C_8
REMARK    4  A    between atoms: C_10  and  N_11
REMARK    5  A    between atoms: N_11  and  C_12
REMARK    6  A    between atoms: N_11  and  C_15
REMARK    7  A    between atoms: C_12  and  C_13
REMARK    8  A    between atoms: C_15  and  C_16
REMARK    9  A    between atoms: C_18  and  N_19
REMARK   10  A    between atoms: C_23  and  N_24
REMARK                            x       y       z     vdW  Elec       q    Type
REMARK                         _______ _______ _______ _____ _____    ______ ____
ROOT
ATOM      1  C   UNL     1       2.467   7.130  19.178  0.00  0.00    +0.000 A 
ATOM      2  C   UNL     1       3.229   5.937  19.305  0.00  0.00    +0.000 A 
ATOM      3  C   UNL     1       4.180   5.479  18.363  0.00  0.00    +0.000 A 
ATOM      4  C   UNL     1       4.232   6.245  17.175  0.00  0.00    +0.000 A 
ATOM      5  C   UNL     1       3.481   7.428  16.994  0.00  0.00    +0.000 A 
ATOM      6  C   UNL     1       2.619   7.863  18.008  0.00  0.00    +0.000 A 
ENDROOT
BRANCH   1   8
ATOM      7  N   UNL     1       1.295   8.800  20.635  0.00  0.00    +0.000 N 
ATOM      8  C   UNL     1       1.696   7.484  20.403  0.00  0.00    +0.000 C 
ATOM      9  O   UNL     1       1.467   6.597  21.210  0.00  0.00    +0.000 OA
ATOM     10  H   UNL     1       1.453   9.590  20.005  0.00  0.00    +0.000 HD
BRANCH   7  12
ATOM     11  C   UNL     1      -0.406  10.764  21.356  0.00  0.00    +0.000 C 
ATOM     12  S   UNL     1       0.283   9.208  21.902  0.00  0.00    +0.000 S 
ATOM     13  O   UNL     1       1.081   9.413  23.090  0.00  0.00    +0.000 OA
ATOM     14  O   UNL     1      -0.777   8.224  21.880  0.00  0.00    +0.000 OA
ENDBRANCH   7  12
ENDBRANCH   1   8
BRANCH   4  15
ATOM     15  N   UNL     1       5.045   5.849  16.026  0.00  0.00    +0.000 N 
ATOM     16  O   UNL     1       5.843   6.674  15.574  0.00  0.00    +0.000 OA
ATOM     17  O   UNL     1       4.889   4.689  15.615  0.00  0.00    +0.000 OA
ENDBRANCH   4  15
BRANCH   6  18
ATOM     18  N   UNL     1       1.963   9.129  17.809  0.00  0.00    +0.000 N 
ATOM     19  O   UNL     1       2.652  10.147  17.960  0.00  0.00    +0.000 OA
ATOM     20  O   UNL     1       0.765   9.105  17.513  0.00  0.00    +0.000 OA
ENDBRANCH   6  18
BRANCH   3  21
ATOM     21  N   UNL     1       5.009   4.408  18.700  0.00  0.00    +0.000 N 
BRANCH  21  22
ATOM     22  C   UNL     1       4.520   3.249  19.508  0.00  0.00    +0.000 C 
BRANCH  22  23
ATOM     23  C   UNL     1       3.671   2.232  18.737  0.00  0.00    +0.000 C 
ATOM     24 CL   UNL     1       1.991   2.182  19.323  0.00  0.00    +0.000 Cl
ENDBRANCH  22  23
ENDBRANCH  21  22
BRANCH  21  25
ATOM     25  C   UNL     1       6.497   4.527  18.677  0.00  0.00    +0.000 C 
BRANCH  25  26
ATOM     26  C   UNL     1       7.127   5.708  19.426  0.00  0.00    +0.000 C 
ATOM     27 CL   UNL     1       7.862   6.906  18.334  0.00  0.00    +0.000 Cl
ENDBRANCH  25  26
ENDBRANCH  21  25
ENDBRANCH   3  21
TORSDOF 9
ENDMDL
MODEL 3
REMARK VINA RESULT:      -6.2      2.370      4.181
REMARK  Name = 
REMARK  10 active torsions:
REMARK  status: ('A' for Active; 'I' for Inactive)
REMARK    1  A    between atoms: C_1  and  S_2
REMARK    2  A    between atoms: S_2  and  N_5
REMARK    3  A    between atoms: C_6  and  C_8
REMARK    4  A    between atoms: C_10  and  N_11
REMARK    5  A    between atoms: N_11  and  C_12
REMARK    6  A    between atoms: N_11  and  C_15
REMARK    7  A    between atoms: C_12  and  C_13
REMARK    8  A    between atoms: C_15  and  C_16
REMARK    9  A    between atoms: C_18  and  N_19
REMARK   10  A    between atoms: C_23  and  N_24
REMARK                            x       y       z     vdW  Elec       q    Type
REMARK                         _______ _______ _______ _____ _____    ______ ____
ROOT
ATOM      1  C   UNL     1       2.832   7.395  18.710  0.00  0.00    +0.000 A 
ATOM      2  C   UNL     1       3.940   7.298  17.828  0.00  0.00    +0.000 A 
ATOM      3  C   UNL     1       4.842   6.210  17.775  0.00  0.00    +0.000 A 
ATOM      4  C   UNL     1       4.640   5.243  18.789  0.00  0.00    +0.000 A 
ATOM      5  C   UNL     1       3.564   5.304  19.701  0.00  0.00    +0.000 A 
ATOM      6  C   UNL     1       2.663   6.375  19.639  0.00  0.00    +0.000 A 
ENDROOT
BRANCH   1   8
ATOM      7  N   UNL     1       1.464   9.363  19.445  0.00  0.00    +0.000 N 
ATOM      8  C   UNL     1       1.927   8.542  18.417  0.00  0.00    +0.000 C 
ATOM      9  O   UNL     1       1.576   8.711  17.260  0.00  0.00    +0.000 OA
ATOM     10  H   UNL     1       1.715   9.280  20.433  0.00  0.00    +0.000 HD
BRANCH   7  12
ATOM     11  C   UNL     1       0.235  11.353  20.788  0.00  0.00    +0.000 C 
ATOM     12  S   UNL     1       0.593  10.759  19.141  0.00  0.00    +0.000 S 
ATOM     13  O   UNL     1      -0.636  10.405  18.468  0.00  0.00    +0.000 OA
ATOM     14  O   UNL     1       1.534  11.675  18.536  0.00  0.00    +0.000 OA
ENDBRANCH   7  12
ENDBRANCH   1   8
BRANCH   4  15
ATOM     15  N   UNL     1       5.556   4.121  18.990  0.00  0.00    +0.000 N 
ATOM     16  O   UNL     1       6.761   4.325  18.831  0.00  0.00    +0.000 OA
ATOM     17  O   UNL     1       5.042   3.048  19.343  0.00  0.00    +0.000 OA
ENDBRANCH   4  15
BRANCH   6  18
ATOM     18  N   UNL     1       1.528   6.326  20.523  0.00  0.00    +0.000 N 
ATOM     19  O   UNL     1       0.823   5.310  20.475  0.00  0.00    +0.000 OA
ATOM     20  O   UNL     1       1.340   7.302  21.255  0.00  0.00    +0.000 OA
ENDBRANCH   6  18
BRANCH   3  21
ATOM     21  N   UNL     1       5.761   6.138  16.728  0.00  0.00    +0.000 N 
BRANCH  21  22
ATOM     22  C   UNL     1       6.908   7.092  16.611  0.00  0.00    +0.000 C 
BRANCH  22  23
ATOM     23  C   UNL     1       7.695   7.323  17.905  0.00  0.00    +0.000 C 
ATOM     24 CL   UNL     1       8.273   9.001  18.045  0.00  0.00    +0.000 Cl
ENDBRANCH  22  23
ENDBRANCH  21  22
BRANCH  21  25
ATOM     25  C   UNL     1       5.447   5.432  15.450  0.00  0.00    +0.000 C 
BRANCH  25  26
ATOM     26  C   UNL     1       6.174   4.112  15.170  0.00  0.00    +0.000 C 
ATOM     27 CL   UNL     1       6.248   3.719  13.435  0.00  0.00    +0.000 Cl
ENDBRANCH  25  26
ENDBRANCH  21  25
ENDBRANCH   3  21
TORSDOF 9
ENDMDL
MODEL 4
REMARK VINA RESULT:      -6.2      5.505      7.018
REMARK  Name = 
REMARK  10 active torsions:
REMARK  status: ('A' for Active; 'I' for Inactive)
REMARK    1  A    between atoms: C_1  and  S_2
REMARK    2  A    between atoms: S_2  and  N_5
REMARK    3  A    between atoms: C_6  and  C_8
REMARK    4  A    between atoms: C_10  and  N_11
REMARK    5  A    between atoms: N_11  and  C_12
REMARK    6  A    between atoms: N_11  and  C_15
REMARK    7  A    between atoms: C_12  and  C_13
REMARK    8  A    between atoms: C_15  and  C_16
REMARK    9  A    between atoms: C_18  and  N_19
REMARK   10  A    between atoms: C_23  and  N_24
REMARK                            x       y       z     vdW  Elec       q    Type
REMARK                         _______ _______ _______ _____ _____    ______ ____
ROOT
ATOM      1  C   UNL     1       5.359   4.162  16.040  0.00  0.00    +0.000 A 
ATOM      2  C   UNL     1       5.098   3.683  14.728  0.00  0.00    +0.000 A 
ATOM      3  C   UNL     1       5.924   3.913  13.602  0.00  0.00    +0.000 A 
ATOM      4  C   UNL     1       7.003   4.796  13.848  0.00  0.00    +0.000 A 
ATOM      5  C   UNL     1       7.292   5.312  15.130  0.00  0.00    +0.000 A 
ATOM      6  C   UNL     1       6.472   4.974  16.214  0.00  0.00    +0.000 A 
ENDROOT
BRANCH   1   8
ATOM      7  N   UNL     1       4.955   3.013  18.231  0.00  0.00    +0.000 N 
ATOM      8  C   UNL     1       4.444   3.604  17.076  0.00  0.00    +0.000 C 
ATOM      9  O   UNL     1       3.243   3.647  16.859  0.00  0.00    +0.000 OA
ATOM     10  H   UNL     1       5.945   2.942  18.475  0.00  0.00    +0.000 HD
BRANCH   7  12
ATOM     11  C   UNL     1       3.197   4.071  19.980  0.00  0.00    +0.000 C 
ATOM     12  S   UNL     1       3.967   2.534  19.493  0.00  0.00    +0.000 S 
ATOM     13  O   UNL     1       4.793   2.035  20.569  0.00  0.00    +0.000 OA
ATOM     14  O   UNL     1       2.949   1.702  18.891  0.00  0.00    +0.000 OA
ENDBRANCH   7  12
ENDBRANCH   1   8
BRANCH   4  15
ATOM     15  N   UNL     1       7.882   5.270  12.780  0.00  0.00    +0.000 N 
ATOM     16  O   UNL     1       7.515   5.101  11.615  0.00  0.00    +0.000 OA
ATOM     17  O   UNL     1       8.923   5.841  13.138  0.00  0.00    +0.000 OA
ENDBRANCH   4  15
BRANCH   6  18
ATOM     18  N   UNL     1       6.879   5.444  17.513  0.00  0.00    +0.000 N 
ATOM     19  O   UNL     1       7.520   4.654  18.219  0.00  0.00    +0.000 OA
ATOM     20  O   UNL     1       6.553   6.592  17.826  0.00  0.00    +0.000 OA
ENDBRANCH   6  18
BRANCH   3  21
ATOM     21  N   UNL     1       5.671   3.218  12.419  0.00  0.00    +0.000 N 
BRANCH  21  22
ATOM     22  C   UNL     1       4.312   3.183  11.795  0.00  0.00    +0.000 C 
BRANCH  22  23
ATOM     23  C   UNL     1       4.088   4.198  10.669  0.00  0.00    +0.000 C 
ATOM     24 CL   UNL     1       2.837   3.659   9.522  0.00  0.00    +0.000 Cl
ENDBRANCH  22  23
ENDBRANCH  21  22
BRANCH  21  25
ATOM     25  C   UNL     1       6.572   2.130  11.936  0.00  0.00    +0.000 C 
BRANCH  25  26
ATOM     26  C   UNL     1       6.002   1.137  10.915  0.00  0.00    +0.000 C 
ATOM     27 CL   UNL     1       6.197  -0.559  11.418  0.00  0.00    +0.000 Cl
ENDBRANCH  25  26
ENDBRANCH  21  25
ENDBRANCH   3  21
TORSDOF 9
ENDMDL
MODEL 5
REMARK VINA RESULT:      -6.2      0.376      2.585
REMARK  Name = 
REMARK  10 active torsions:
REMARK  status: ('A' for Active; 'I' for Inactive)
REMARK    1  A    between atoms: C_1  and  S_2
REMARK    2  A    between atoms: S_2  and  N_5
REMARK    3  A    between atoms: C_6  and  C_8
REMARK    4  A    between atoms: C_10  and  N_11
REMARK    5  A    between atoms: N_11  and  C_12
REMARK    6  A    between atoms: N_11  and  C_15
REMARK    7  A    between atoms: C_12  and  C_13
REMARK    8  A    between atoms: C_15  and  C_16
REMARK    9  A    between atoms: C_18  and  N_19
REMARK   10  A    between atoms: C_23  and  N_24
REMARK                            x       y       z     vdW  Elec       q    Type
REMARK                         _______ _______ _______ _____ _____    ______ ____
ROOT
ATOM      1  C   UNL     1       2.327   7.408  19.346  0.00  0.00    +0.000 A 
ATOM      2  C   UNL     1       3.173   6.280  19.516  0.00  0.00    +0.000 A 
ATOM      3  C   UNL     1       4.164   5.863  18.596  0.00  0.00    +0.000 A 
ATOM      4  C   UNL     1       4.170   6.594  17.384  0.00  0.00    +0.000 A 
ATOM      5  C   UNL     1       3.336   7.711  17.160  0.00  0.00    +0.000 A 
ATOM      6  C   UNL     1       2.434   8.113  18.153  0.00  0.00    +0.000 A 
ENDROOT
BRANCH   1   8
ATOM      7  N   UNL     1       1.180   9.066  20.837  0.00  0.00    +0.000 N 
ATOM      8  C   UNL     1       1.520   7.743  20.554  0.00  0.00    +0.000 C 
ATOM      9  O   UNL     1       1.207   6.830  21.301  0.00  0.00    +0.000 OA
ATOM     10  H   UNL     1       1.409   9.876  20.257  0.00  0.00    +0.000 HD
BRANCH   7  12
ATOM     11  C   UNL     1      -0.583  10.996  21.498  0.00  0.00    +0.000 C 
ATOM     12  S   UNL     1       0.134   9.466  22.079  0.00  0.00    +0.000 S 
ATOM     13  O   UNL     1       0.904   9.707  23.278  0.00  0.00    +0.000 OA
ATOM     14  O   UNL     1      -0.900   8.455  22.051  0.00  0.00    +0.000 OA
ENDBRANCH   7  12
ENDBRANCH   1   8
BRANCH   4  15
ATOM     15  N   UNL     1       5.021   6.223  16.254  0.00  0.00    +0.000 N 
ATOM     16  O   UNL     1       5.931   6.994  15.942  0.00  0.00    +0.000 OA
ATOM     17  O   UNL     1       4.776   5.132  15.716  0.00  0.00    +0.000 OA
ENDBRANCH   4  15
BRANCH   6  18
ATOM     18  N   UNL     1       1.688   9.321  17.910  0.00  0.00    +0.000 N 
ATOM     19  O   UNL     1       0.454   9.226  17.909  0.00  0.00    +0.000 OA
ATOM     20  O   UNL     1       2.334  10.353  17.713  0.00  0.00    +0.000 OA
ENDBRANCH   6  18
BRANCH   3  21
ATOM     21  N   UNL     1       5.066   4.868  18.972  0.00  0.00    +0.000 N 
BRANCH  21  22
ATOM     22  C   UNL     1       6.421   5.191  19.519  0.00  0.00    +0.000 C 
BRANCH  22  23
ATOM     23  C   UNL     1       7.512   5.405  18.464  0.00  0.00    +0.000 C 
ATOM     24 CL   UNL     1       8.091   7.089  18.433  0.00  0.00    +0.000 Cl
ENDBRANCH  22  23
ENDBRANCH  21  22
BRANCH  21  25
ATOM     25  C   UNL     1       4.951   3.468  18.468  0.00  0.00    +0.000 C 
BRANCH  25  26
ATOM     26  C   UNL     1       3.833   2.593  19.048  0.00  0.00    +0.000 C 
ATOM     27 CL   UNL     1       2.692   2.019  17.808  0.00  0.00    +0.000 Cl
ENDBRANCH  25  26
ENDBRANCH  21  25
ENDBRANCH   3  21
TORSDOF 9
ENDMDL
MODEL 6
REMARK VINA RESULT:      -6.1      2.380      3.616
REMARK  Name = 
REMARK  10 active torsions:
REMARK  status: ('A' for Active; 'I' for Inactive)
REMARK    1  A    between atoms: C_1  and  S_2
REMARK    2  A    between atoms: S_2  and  N_5
REMARK    3  A    between atoms: C_6  and  C_8
REMARK    4  A    between atoms: C_10  and  N_11
REMARK    5  A    between atoms: N_11  and  C_12
REMARK    6  A    between atoms: N_11  and  C_15
REMARK    7  A    between atoms: C_12  and  C_13
REMARK    8  A    between atoms: C_15  and  C_16
REMARK    9  A    between atoms: C_18  and  N_19
REMARK   10  A    between atoms: C_23  and  N_24
REMARK                            x       y       z     vdW  Elec       q    Type
REMARK                         _______ _______ _______ _____ _____    ______ ____
ROOT
ATOM      1  C   UNL     1       2.755   7.555  18.628  0.00  0.00    +0.000 A 
ATOM      2  C   UNL     1       3.783   7.308  17.679  0.00  0.00    +0.000 A 
ATOM      3  C   UNL     1       4.571   6.134  17.625  0.00  0.00    +0.000 A 
ATOM      4  C   UNL     1       4.351   5.241  18.700  0.00  0.00    +0.000 A 
ATOM      5  C   UNL     1       3.355   5.451  19.678  0.00  0.00    +0.000 A 
ATOM      6  C   UNL     1       2.558   6.601  19.619  0.00  0.00    +0.000 A 
ENDROOT
BRANCH   1   8
ATOM      7  N   UNL     1       1.554   9.630  19.362  0.00  0.00    +0.000 N 
ATOM      8  C   UNL     1       1.944   8.771  18.334  0.00  0.00    +0.000 C 
ATOM      9  O   UNL     1       1.602   8.963  17.179  0.00  0.00    +0.000 OA
ATOM     10  H   UNL     1       1.804   9.529  20.349  0.00  0.00    +0.000 HD
BRANCH   7  12
ATOM     11  C   UNL     1       0.545  11.740  20.702  0.00  0.00    +0.000 C 
ATOM     12  S   UNL     1       0.798  11.090  19.057  0.00  0.00    +0.000 S 
ATOM     13  O   UNL     1      -0.477  10.833  18.428  0.00  0.00    +0.000 OA
ATOM     14  O   UNL     1       1.795  11.911  18.407  0.00  0.00    +0.000 OA
ENDBRANCH   7  12
ENDBRANCH   1   8
BRANCH   4  15
ATOM     15  N   UNL     1       5.168   4.044  18.899  0.00  0.00    +0.000 N 
ATOM     16  O   UNL     1       4.687   2.957  18.571  0.00  0.00    +0.000 OA
ATOM     17  O   UNL     1       6.307   4.226  19.356  0.00  0.00    +0.000 OA
ENDBRANCH   4  15
BRANCH   6  18
ATOM     18  N   UNL     1       1.490   6.706  20.579  0.00  0.00    +0.000 N 
ATOM     19  O   UNL     1       1.491   7.704  21.311  0.00  0.00    +0.000 OA
ATOM     20  O   UNL     1       0.661   5.792  20.605  0.00  0.00    +0.000 OA
ENDBRANCH   6  18
BRANCH   3  21
ATOM     21  N   UNL     1       5.401   5.923  16.523  0.00  0.00    +0.000 N 
BRANCH  21  22
ATOM     22  C   UNL     1       5.032   4.982  15.420  0.00  0.00    +0.000 C 
BRANCH  22  23
ATOM     23  C   UNL     1       6.107   3.951  15.060  0.00  0.00    +0.000 C 
ATOM     24 CL   UNL     1       6.274   3.746  13.299  0.00  0.00    +0.000 Cl
ENDBRANCH  22  23
ENDBRANCH  21  22
BRANCH  21  25
ATOM     25  C   UNL     1       6.858   6.246  16.562  0.00  0.00    +0.000 C 
BRANCH  25  26
ATOM     26  C   UNL     1       7.407   6.903  17.834  0.00  0.00    +0.000 C 
ATOM     27 CL   UNL     1       7.797   8.625  17.610  0.00  0.00    +0.000 Cl
ENDBRANCH  25  26
ENDBRANCH  21  25
ENDBRANCH   3  21
TORSDOF 9
ENDMDL
MODEL 7
REMARK VINA RESULT:      -6.0      2.364      3.664
REMARK  Name = 
REMARK  10 active torsions:
REMARK  status: ('A' for Active; 'I' for Inactive)
REMARK    1  A    between atoms: C_1  and  S_2
REMARK    2  A    between atoms: S_2  and  N_5
REMARK    3  A    between atoms: C_6  and  C_8
REMARK    4  A    between atoms: C_10  and  N_11
REMARK    5  A    between atoms: N_11  and  C_12
REMARK    6  A    between atoms: N_11  and  C_15
REMARK    7  A    between atoms: C_12  and  C_13
REMARK    8  A    between atoms: C_15  and  C_16
REMARK    9  A    between atoms: C_18  and  N_19
REMARK   10  A    between atoms: C_23  and  N_24
REMARK                            x       y       z     vdW  Elec       q    Type
REMARK                         _______ _______ _______ _____ _____    ______ ____
ROOT
ATOM      1  C   UNL     1       2.761   7.501  18.639  0.00  0.00    +0.000 A 
ATOM      2  C   UNL     1       3.828   7.345  17.714  0.00  0.00    +0.000 A 
ATOM      3  C   UNL     1       4.738   6.262  17.702  0.00  0.00    +0.000 A 
ATOM      4  C   UNL     1       4.595   5.374  18.795  0.00  0.00    +0.000 A 
ATOM      5  C   UNL     1       3.563   5.498  19.750  0.00  0.00    +0.000 A 
ATOM      6  C   UNL     1       2.648   6.554  19.649  0.00  0.00    +0.000 A 
ENDROOT
BRANCH   1   8
ATOM      7  N   UNL     1       1.162   9.311  19.308  0.00  0.00    +0.000 N 
ATOM      8  C   UNL     1       1.832   8.616  18.302  0.00  0.00    +0.000 C 
ATOM      9  O   UNL     1       1.647   8.869  17.122  0.00  0.00    +0.000 OA
ATOM     10  H   UNL     1       1.267   9.153  20.313  0.00  0.00    +0.000 HD
BRANCH   7  12
ATOM     11  C   UNL     1      -0.419  11.077  20.595  0.00  0.00    +0.000 C 
ATOM     12  S   UNL     1       0.249  10.676  18.987  0.00  0.00    +0.000 S 
ATOM     13  O   UNL     1      -0.822  10.319  18.085  0.00  0.00    +0.000 OA
ATOM     14  O   UNL     1       1.204  11.704  18.637  0.00  0.00    +0.000 OA
ENDBRANCH   7  12
ENDBRANCH   1   8
BRANCH   4  15
ATOM     15  N   UNL     1       5.531   4.277  19.037  0.00  0.00    +0.000 N 
ATOM     16  O   UNL     1       6.721   4.560  19.195  0.00  0.00    +0.000 OA
ATOM     17  O   UNL     1       5.041   3.140  19.100  0.00  0.00    +0.000 OA
ENDBRANCH   4  15
BRANCH   6  18
ATOM     18  N   UNL     1       1.556   6.566  20.588  0.00  0.00    +0.000 N 
ATOM     19  O   UNL     1       0.793   5.591  20.572  0.00  0.00    +0.000 OA
ATOM     20  O   UNL     1       1.460   7.547  21.330  0.00  0.00    +0.000 OA
ENDBRANCH   6  18
BRANCH   3  21
ATOM     21  N   UNL     1       5.608   6.116  16.620  0.00  0.00    +0.000 N 
BRANCH  21  22
ATOM     22  C   UNL     1       5.312   5.191  15.482  0.00  0.00    +0.000 C 
BRANCH  22  23
ATOM     23  C   UNL     1       6.510   4.864  14.584  0.00  0.00    +0.000 C 
ATOM     24 CL   UNL     1       6.087   3.701  13.303  0.00  0.00    +0.000 Cl
ENDBRANCH  22  23
ENDBRANCH  21  22
BRANCH  21  25
ATOM     25  C   UNL     1       7.048   6.501  16.710  0.00  0.00    +0.000 C 
BRANCH  25  26
ATOM     26  C   UNL     1       7.387   7.829  17.396  0.00  0.00    +0.000 C 
ATOM     27 CL   UNL     1       8.501   7.632  18.771  0.00  0.00    +0.000 Cl
ENDBRANCH  25  26
ENDBRANCH  21  25
ENDBRANCH   3  21
TORSDOF 9
ENDMDL
MODEL 8
REMARK VINA RESULT:      -5.9      5.502      7.030
REMARK  Name = 
REMARK  10 active torsions:
REMARK  status: ('A' for Active; 'I' for Inactive)
REMARK    1  A    between atoms: C_1  and  S_2
REMARK    2  A    between atoms: S_2  and  N_5
REMARK    3  A    between atoms: C_6  and  C_8
REMARK    4  A    between atoms: C_10  and  N_11
REMARK    5  A    between atoms: N_11  and  C_12
REMARK    6  A    between atoms: N_11  and  C_15
REMARK    7  A    between atoms: C_12  and  C_13
REMARK    8  A    between atoms: C_15  and  C_16
REMARK    9  A    between atoms: C_18  and  N_19
REMARK   10  A    between atoms: C_23  and  N_24
REMARK                            x       y       z     vdW  Elec       q    Type
REMARK                         _______ _______ _______ _____ _____    ______ ____
ROOT
ATOM      1  C   UNL     1       5.373   4.151  16.117  0.00  0.00    +0.000 A 
ATOM      2  C   UNL     1       5.116   3.723  14.787  0.00  0.00    +0.000 A 
ATOM      3  C   UNL     1       5.961   3.966  13.679  0.00  0.00    +0.000 A 
ATOM      4  C   UNL     1       7.060   4.810  13.965  0.00  0.00    +0.000 A 
ATOM      5  C   UNL     1       7.348   5.276  15.267  0.00  0.00    +0.000 A 
ATOM      6  C   UNL     1       6.506   4.926  16.330  0.00  0.00    +0.000 A 
ENDROOT
BRANCH   1   8
ATOM      7  N   UNL     1       4.909   3.019  18.305  0.00  0.00    +0.000 N 
ATOM      8  C   UNL     1       4.431   3.585  17.123  0.00  0.00    +0.000 C 
ATOM      9  O   UNL     1       3.239   3.598  16.860  0.00  0.00    +0.000 OA
ATOM     10  H   UNL     1       5.891   2.974  18.589  0.00  0.00    +0.000 HD
BRANCH   7  12
ATOM     11  C   UNL     1       3.078   4.063  19.987  0.00  0.00    +0.000 C 
ATOM     12  S   UNL     1       3.884   2.534  19.534  0.00  0.00    +0.000 S 
ATOM     13  O   UNL     1       4.677   2.050  20.641  0.00  0.00    +0.000 OA
ATOM     14  O   UNL     1       2.898   1.687  18.900  0.00  0.00    +0.000 OA
ENDBRANCH   7  12
ENDBRANCH   1   8
BRANCH   4  15
ATOM     15  N   UNL     1       7.965   5.294  12.923  0.00  0.00    +0.000 N 
ATOM     16  O   UNL     1       8.984   5.891  13.278  0.00  0.00    +0.000 OA
ATOM     17  O   UNL     1       7.647   5.031  11.754  0.00  0.00    +0.000 OA
ENDBRANCH   4  15
BRANCH   6  18
ATOM     18  N   UNL     1       6.911   5.341  17.649  0.00  0.00    +0.000 N 
ATOM     19  O   UNL     1       6.545   6.464  18.019  0.00  0.00    +0.000 OA
ATOM     20  O   UNL     1       7.595   4.551  18.304  0.00  0.00    +0.000 OA
ENDBRANCH   6  18
BRANCH   3  21
ATOM     21  N   UNL     1       5.703   3.318  12.471  0.00  0.00    +0.000 N 
BRANCH  21  22
ATOM     22  C   UNL     1       6.553   2.190  11.977  0.00  0.00    +0.000 C 
BRANCH  22  23
ATOM     23  C   UNL     1       5.861   1.237  10.996  0.00  0.00    +0.000 C 
ATOM     24 CL   UNL     1       6.167  -0.471  11.396  0.00  0.00    +0.000 Cl
ENDBRANCH  22  23
ENDBRANCH  21  22
BRANCH  21  25
ATOM     25  C   UNL     1       4.879   3.950  11.398  0.00  0.00    +0.000 C 
BRANCH  25  26
ATOM     26  C   UNL     1       3.547   3.281  11.038  0.00  0.00    +0.000 C 
ATOM     27 CL   UNL     1       2.805   3.963   9.571  0.00  0.00    +0.000 Cl
ENDBRANCH  25  26
ENDBRANCH  21  25
ENDBRANCH   3  21
TORSDOF 9
ENDMDL
MODEL 9
REMARK VINA RESULT:      -5.9      0.724      1.214
REMARK  Name = 
REMARK  10 active torsions:
REMARK  status: ('A' for Active; 'I' for Inactive)
REMARK    1  A    between atoms: C_1  and  S_2
REMARK    2  A    between atoms: S_2  and  N_5
REMARK    3  A    between atoms: C_6  and  C_8
REMARK    4  A    between atoms: C_10  and  N_11
REMARK    5  A    between atoms: N_11  and  C_12
REMARK    6  A    between atoms: N_11  and  C_15
REMARK    7  A    between atoms: C_12  and  C_13
REMARK    8  A    between atoms: C_15  and  C_16
REMARK    9  A    between atoms: C_18  and  N_19
REMARK   10  A    between atoms: C_23  and  N_24
REMARK                            x       y       z     vdW  Elec       q    Type
REMARK                         _______ _______ _______ _____ _____    ______ ____
ROOT
ATOM      1  C   UNL     1       2.379   7.510  19.319  0.00  0.00    +0.000 A 
ATOM      2  C   UNL     1       3.174   6.349  19.509  0.00  0.00    +0.000 A 
ATOM      3  C   UNL     1       4.094   5.833  18.566  0.00  0.00    +0.000 A 
ATOM      4  C   UNL     1       4.074   6.498  17.317  0.00  0.00    +0.000 A 
ATOM      5  C   UNL     1       3.287   7.645  17.073  0.00  0.00    +0.000 A 
ATOM      6  C   UNL     1       2.460   8.145  18.086  0.00  0.00    +0.000 A 
ENDROOT
BRANCH   1   8
ATOM      7  N   UNL     1       1.532   9.305  20.851  0.00  0.00    +0.000 N 
ATOM      8  C   UNL     1       1.653   7.950  20.545  0.00  0.00    +0.000 C 
ATOM      9  O   UNL     1       1.210   7.087  21.286  0.00  0.00    +0.000 OA
ATOM     10  H   UNL     1       1.878  10.078  20.278  0.00  0.00    +0.000 HD
BRANCH   7  12
ATOM     11  C   UNL     1      -0.839   8.767  22.017  0.00  0.00    +0.000 C 
ATOM     12  S   UNL     1       0.581   9.847  22.116  0.00  0.00    +0.000 S 
ATOM     13  O   UNL     1       0.182  11.210  21.851  0.00  0.00    +0.000 OA
ATOM     14  O   UNL     1       1.311   9.506  23.318  0.00  0.00    +0.000 OA
ENDBRANCH   7  12
ENDBRANCH   1   8
BRANCH   4  15
ATOM     15  N   UNL     1       4.846   6.024  16.168  0.00  0.00    +0.000 N 
ATOM     16  O   UNL     1       5.536   6.845  15.560  0.00  0.00    +0.000 OA
ATOM     17  O   UNL     1       4.769   4.812  15.917  0.00  0.00    +0.000 OA
ENDBRANCH   4  15
BRANCH   6  18
ATOM     18  N   UNL     1       1.764   9.376  17.814  0.00  0.00    +0.000 N 
ATOM     19  O   UNL     1       2.454  10.399  17.714  0.00  0.00    +0.000 OA
ATOM     20  O   UNL     1       0.536   9.320  17.708  0.00  0.00    +0.000 OA
ENDBRANCH   6  18
BRANCH   3  21
ATOM     21  N   UNL     1       4.964   4.813  18.952  0.00  0.00    +0.000 N 
BRANCH  21  22
ATOM     22  C   UNL     1       4.470   3.460  19.359  0.00  0.00    +0.000 C 
BRANCH  22  23
ATOM     23  C   UNL     1       3.852   2.628  18.230  0.00  0.00    +0.000 C 
ATOM     24 CL   UNL     1       2.156   3.078  17.921  0.00  0.00    +0.000 Cl
ENDBRANCH  22  23
ENDBRANCH  21  22
BRANCH  21  25
ATOM     25  C   UNL     1       6.357   5.095  19.408  0.00  0.00    +0.000 C 
BRANCH  25  26
ATOM     26  C   UNL     1       7.426   5.320  18.331  0.00  0.00    +0.000 C 
ATOM     27 CL   UNL     1       7.838   7.038  18.115  0.00  0.00    +0.000 Cl
ENDBRANCH  25  26
ENDBRANCH  21  25
ENDBRANCH   3  21
TORSDOF 9
ENDMDL
