MODEL 1
REMARK VINA RESULT:      -8.1      0.000      0.000
REMARK  Name = 
REMARK  11 active torsions:
REMARK  status: ('A' for Active; 'I' for Inactive)
REMARK    1  A    between atoms: C_1  and  C_2
REMARK    2  A    between atoms: C_2  and  C_3
REMARK    3  A    between atoms: C_2  and  N_4
REMARK    4  A    between atoms: N_4  and  C_5
REMARK    5  A    between atoms: N_4  and  S_18
REMARK    6  A    between atoms: C_8  and  C_9
REMARK    7  A    between atoms: C_9  and  C_10
REMARK    8  A    between atoms: C_9  and  O_11
REMARK    9  A    between atoms: C_9  and  C_12
REMARK   10  A    between atoms: S_18  and  C_21
REMARK   11  A    between atoms: C_23  and  C_24
REMARK                            x       y       z     vdW  Elec       q    Type
REMARK                         _______ _______ _______ _____ _____    ______ ____
ROOT
ATOM      1  N   UNL     1       3.344   4.890  18.647  0.00  0.00    +0.000 N 
ENDROOT
BRANCH   1   2
ATOM      2  C   UNL     1       2.843   6.241  18.741  0.00  0.00    +0.000 A 
ATOM      3  C   UNL     1       3.005   7.119  17.674  0.00  0.00    +0.000 A 
ATOM      4  C   UNL     1       2.496   8.431  17.738  0.00  0.00    +0.000 A 
ATOM      5  C   UNL     1       1.768   8.881  18.855  0.00  0.00    +0.000 A 
ATOM      6  C   UNL     1       1.674   8.004  19.948  0.00  0.00    +0.000 A 
ATOM      7  C   UNL     1       2.231   6.717  19.901  0.00  0.00    +0.000 A 
BRANCH   5   8
ATOM      8  C   UNL     1       1.091  10.263  18.894  0.00  0.00    +0.000 C 
ATOM      9  C   UNL     1       1.122  10.887  20.304  0.00  0.00    +0.000 C 
BRANCH   8  10
ATOM     10  C   UNL     1      -0.392  10.256  18.374  0.00  0.00    +0.000 C 
ATOM     11  F   UNL     1      -0.569   9.450  17.300  0.00  0.00    +0.000 F 
ATOM     12  F   UNL     1      -1.259   9.828  19.327  0.00  0.00    +0.000 F 
ATOM     13  F   UNL     1      -0.808  11.493  18.005  0.00  0.00    +0.000 F 
ENDBRANCH   8  10
BRANCH   8  14
ATOM     14  O   UNL     1       1.911  11.162  18.097  0.00  0.00    +0.000 OA
ATOM     15  H   UNL     1       2.391  10.622  17.446  0.00  0.00    +0.000 HD
ENDBRANCH   8  14
ENDBRANCH   5   8
ENDBRANCH   1   2
BRANCH   1  17
ATOM     16  C   UNL     1       1.914   3.342  20.065  0.00  0.00    +0.000 C 
ATOM     17  C   UNL     1       2.443   3.695  18.678  0.00  0.00    +0.000 C 
ATOM     18  C   UNL     1       1.278   3.892  17.707  0.00  0.00    +0.000 C 
ENDBRANCH   1  17
BRANCH   1  19
ATOM     19  S   UNL     1       5.019   4.645  18.888  0.00  0.00    +0.000 S 
ATOM     20  O   UNL     1       5.524   5.621  19.829  0.00  0.00    +0.000 OA
ATOM     21  O   UNL     1       5.232   3.231  19.167  0.00  0.00    +0.000 OA
BRANCH  19  22
ATOM     22  C   UNL     1       5.723   4.949  17.279  0.00  0.00    +0.000 A 
ATOM     23  C   UNL     1       5.151   4.250  16.188  0.00  0.00    +0.000 A 
ATOM     24  C   UNL     1       5.700   4.297  14.903  0.00  0.00    +0.000 A 
ATOM     25  C   UNL     1       6.847   5.084  14.727  0.00  0.00    +0.000 A 
ATOM     26  C   UNL     1       7.413   5.791  15.789  0.00  0.00    +0.000 A 
ATOM     27  C   UNL     1       6.861   5.724  17.073  0.00  0.00    +0.000 A 
ATOM     28 CL   UNL     1       7.662   6.658  18.282  0.00  0.00    +0.000 Cl
BRANCH  24  29
ATOM     29  C   UNL     1       5.147   3.477  13.762  0.00  0.00    +0.000 C 
ATOM     30  C   UNL     1       5.004   4.024  12.362  0.00  0.00    +0.000 C 
ATOM     31  C   UNL     1       6.084   3.030  12.662  0.00  0.00    +0.000 C 
ENDBRANCH  24  29
ENDBRANCH  19  22
ENDBRANCH   1  19
TORSDOF 8
ENDMDL
MODEL 2
REMARK VINA RESULT:      -7.7      0.928      1.278
REMARK  Name = 
REMARK  11 active torsions:
REMARK  status: ('A' for Active; 'I' for Inactive)
REMARK    1  A    between atoms: C_1  and  C_2
REMARK    2  A    between atoms: C_2  and  C_3
REMARK    3  A    between atoms: C_2  and  N_4
REMARK    4  A    between atoms: N_4  and  C_5
REMARK    5  A    between atoms: N_4  and  S_18
REMARK    6  A    between atoms: C_8  and  C_9
REMARK    7  A    between atoms: C_9  and  C_10
REMARK    8  A    between atoms: C_9  and  O_11
REMARK    9  A    between atoms: C_9  and  C_12
REMARK   10  A    between atoms: S_18  and  C_21
REMARK   11  A    between atoms: C_23  and  C_24
REMARK                            x       y       z     vdW  Elec       q    Type
REMARK                         _______ _______ _______ _____ _____    ______ ____
ROOT
ATOM      1  N   UNL     1       3.449   4.820  18.545  0.00  0.00    +0.000 N 
ENDROOT
BRANCH   1   2
ATOM      2  C   UNL     1       2.923   6.161  18.648  0.00  0.00    +0.000 A 
ATOM      3  C   UNL     1       3.056   7.044  17.580  0.00  0.00    +0.000 A 
ATOM      4  C   UNL     1       2.522   8.346  17.651  0.00  0.00    +0.000 A 
ATOM      5  C   UNL     1       1.798   8.779  18.778  0.00  0.00    +0.000 A 
ATOM      6  C   UNL     1       1.733   7.900  19.871  0.00  0.00    +0.000 A 
ATOM      7  C   UNL     1       2.314   6.624  19.815  0.00  0.00    +0.000 A 
BRANCH   5   8
ATOM      8  C   UNL     1       1.094  10.148  18.826  0.00  0.00    +0.000 C 
ATOM      9  C   UNL     1       2.048  11.305  18.467  0.00  0.00    +0.000 C 
BRANCH   8  10
ATOM     10  C   UNL     1       0.413  10.461  20.208  0.00  0.00    +0.000 C 
ATOM     11  F   UNL     1       1.293  10.477  21.237  0.00  0.00    +0.000 F 
ATOM     12  F   UNL     1      -0.203  11.671  20.205  0.00  0.00    +0.000 F 
ATOM     13  F   UNL     1      -0.539   9.548  20.524  0.00  0.00    +0.000 F 
ENDBRANCH   8  10
BRANCH   8  14
ATOM     14  O   UNL     1       0.111  10.160  17.754  0.00  0.00    +0.000 OA
ATOM     15  H   UNL     1       0.224  10.992  17.262  0.00  0.00    +0.000 HD
ENDBRANCH   8  14
ENDBRANCH   5   8
ENDBRANCH   1   2
BRANCH   1  17
ATOM     16  C   UNL     1       2.051   3.231  19.950  0.00  0.00    +0.000 C 
ATOM     17  C   UNL     1       2.570   3.609  18.566  0.00  0.00    +0.000 C 
ATOM     18  C   UNL     1       1.400   3.794  17.600  0.00  0.00    +0.000 C 
ENDBRANCH   1  17
BRANCH   1  19
ATOM     19  S   UNL     1       5.128   4.605  18.790  0.00  0.00    +0.000 S 
ATOM     20  O   UNL     1       5.616   5.598  19.722  0.00  0.00    +0.000 OA
ATOM     21  O   UNL     1       5.364   3.198  19.081  0.00  0.00    +0.000 OA
BRANCH  19  22
ATOM     22  C   UNL     1       5.827   4.906  17.178  0.00  0.00    +0.000 A 
ATOM     23  C   UNL     1       5.299   4.155  16.100  0.00  0.00    +0.000 A 
ATOM     24  C   UNL     1       5.854   4.200  14.818  0.00  0.00    +0.000 A 
ATOM     25  C   UNL     1       6.963   5.038  14.631  0.00  0.00    +0.000 A 
ATOM     26  C   UNL     1       7.485   5.796  15.679  0.00  0.00    +0.000 A 
ATOM     27  C   UNL     1       6.928   5.731  16.961  0.00  0.00    +0.000 A 
ATOM     28 CL   UNL     1       7.674   6.731  18.153  0.00  0.00    +0.000 Cl
BRANCH  24  29
ATOM     29  C   UNL     1       5.350   3.328  13.693  0.00  0.00    +0.000 C 
ATOM     30  C   UNL     1       4.899   3.891  12.367  0.00  0.00    +0.000 C 
ATOM     31  C   UNL     1       6.206   3.163  12.457  0.00  0.00    +0.000 C 
ENDBRANCH  24  29
ENDBRANCH  19  22
ENDBRANCH   1  19
TORSDOF 8
ENDMDL
MODEL 3
REMARK VINA RESULT:      -7.3      1.169      1.494
REMARK  Name = 
REMARK  11 active torsions:
REMARK  status: ('A' for Active; 'I' for Inactive)
REMARK    1  A    between atoms: C_1  and  C_2
REMARK    2  A    between atoms: C_2  and  C_3
REMARK    3  A    between atoms: C_2  and  N_4
REMARK    4  A    between atoms: N_4  and  C_5
REMARK    5  A    between atoms: N_4  and  S_18
REMARK    6  A    between atoms: C_8  and  C_9
REMARK    7  A    between atoms: C_9  and  C_10
REMARK    8  A    between atoms: C_9  and  O_11
REMARK    9  A    between atoms: C_9  and  C_12
REMARK   10  A    between atoms: S_18  and  C_21
REMARK   11  A    between atoms: C_23  and  C_24
REMARK                            x       y       z     vdW  Elec       q    Type
REMARK                         _______ _______ _______ _____ _____    ______ ____
ROOT
ATOM      1  N   UNL     1       3.366   4.961  18.543  0.00  0.00    +0.000 N 
ENDROOT
BRANCH   1   2
ATOM      2  C   UNL     1       2.794   6.275  18.718  0.00  0.00    +0.000 A 
ATOM      3  C   UNL     1       2.768   7.170  17.652  0.00  0.00    +0.000 A 
ATOM      4  C   UNL     1       2.187   8.445  17.796  0.00  0.00    +0.000 A 
ATOM      5  C   UNL     1       1.571   8.837  19.000  0.00  0.00    +0.000 A 
ATOM      6  C   UNL     1       1.667   7.948  20.083  0.00  0.00    +0.000 A 
ATOM      7  C   UNL     1       2.296   6.701  19.950  0.00  0.00    +0.000 A 
BRANCH   5   8
ATOM      8  C   UNL     1       0.815  10.171  19.141  0.00  0.00    +0.000 C 
ATOM      9  C   UNL     1      -0.487  10.191  18.315  0.00  0.00    +0.000 C 
BRANCH   8  10
ATOM     10  C   UNL     1       1.676  11.430  18.762  0.00  0.00    +0.000 C 
ATOM     11  F   UNL     1       2.245  12.022  19.839  0.00  0.00    +0.000 F 
ATOM     12  F   UNL     1       2.689  11.112  17.915  0.00  0.00    +0.000 F 
ATOM     13  F   UNL     1       0.939  12.382  18.137  0.00  0.00    +0.000 F 
ENDBRANCH   8  10
BRANCH   8  14
ATOM     14  O   UNL     1       0.355  10.257  20.519  0.00  0.00    +0.000 OA
ATOM     15  H   UNL     1       0.580   9.418  20.956  0.00  0.00    +0.000 HD
ENDBRANCH   8  14
ENDBRANCH   5   8
ENDBRANCH   1   2
BRANCH   1  17
ATOM     16  C   UNL     1       2.040   3.204  19.810  0.00  0.00    +0.000 C 
ATOM     17  C   UNL     1       2.527   3.724  18.461  0.00  0.00    +0.000 C 
ATOM     18  C   UNL     1       1.339   3.958  17.528  0.00  0.00    +0.000 C 
ENDBRANCH   1  17
BRANCH   1  19
ATOM     19  S   UNL     1       5.044   4.783  18.819  0.00  0.00    +0.000 S 
ATOM     20  O   UNL     1       5.502   5.816  19.722  0.00  0.00    +0.000 OA
ATOM     21  O   UNL     1       5.299   3.391  19.163  0.00  0.00    +0.000 OA
BRANCH  19  22
ATOM     22  C   UNL     1       5.763   5.038  17.208  0.00  0.00    +0.000 A 
ATOM     23  C   UNL     1       5.234   4.271  16.142  0.00  0.00    +0.000 A 
ATOM     24  C   UNL     1       5.802   4.280  14.864  0.00  0.00    +0.000 A 
ATOM     25  C   UNL     1       6.924   5.099  14.669  0.00  0.00    +0.000 A 
ATOM     26  C   UNL     1       7.447   5.873  15.705  0.00  0.00    +0.000 A 
ATOM     27  C   UNL     1       6.877   5.844  16.983  0.00  0.00    +0.000 A 
ATOM     28 CL   UNL     1       7.624   6.860  18.160  0.00  0.00    +0.000 Cl
BRANCH  24  29
ATOM     29  C   UNL     1       5.297   3.389  13.754  0.00  0.00    +0.000 C 
ATOM     30  C   UNL     1       4.880   3.927  12.407  0.00  0.00    +0.000 C 
ATOM     31  C   UNL     1       6.168   3.174  12.536  0.00  0.00    +0.000 C 
ENDBRANCH  24  29
ENDBRANCH  19  22
ENDBRANCH   1  19
TORSDOF 8
ENDMDL
MODEL 4
REMARK VINA RESULT:      -7.3      1.354      1.743
REMARK  Name = 
REMARK  11 active torsions:
REMARK  status: ('A' for Active; 'I' for Inactive)
REMARK    1  A    between atoms: C_1  and  C_2
REMARK    2  A    between atoms: C_2  and  C_3
REMARK    3  A    between atoms: C_2  and  N_4
REMARK    4  A    between atoms: N_4  and  C_5
REMARK    5  A    between atoms: N_4  and  S_18
REMARK    6  A    between atoms: C_8  and  C_9
REMARK    7  A    between atoms: C_9  and  C_10
REMARK    8  A    between atoms: C_9  and  O_11
REMARK    9  A    between atoms: C_9  and  C_12
REMARK   10  A    between atoms: S_18  and  C_21
REMARK   11  A    between atoms: C_23  and  C_24
REMARK                            x       y       z     vdW  Elec       q    Type
REMARK                         _______ _______ _______ _____ _____    ______ ____
ROOT
ATOM      1  N   UNL     1       3.456   4.584  18.585  0.00  0.00    +0.000 N 
ENDROOT
BRANCH   1   2
ATOM      2  C   UNL     1       2.765   5.707  19.175  0.00  0.00    +0.000 A 
ATOM      3  C   UNL     1       2.086   5.551  20.380  0.00  0.00    +0.000 A 
ATOM      4  C   UNL     1       1.432   6.642  20.984  0.00  0.00    +0.000 A 
ATOM      5  C   UNL     1       1.483   7.930  20.419  0.00  0.00    +0.000 A 
ATOM      6  C   UNL     1       2.113   8.054  19.170  0.00  0.00    +0.000 A 
ATOM      7  C   UNL     1       2.716   6.951  18.546  0.00  0.00    +0.000 A 
BRANCH   5   8
ATOM      8  C   UNL     1       0.889   9.163  21.126  0.00  0.00    +0.000 C 
ATOM      9  C   UNL     1      -0.328   8.800  22.001  0.00  0.00    +0.000 C 
BRANCH   8  10
ATOM     10  C   UNL     1       0.483  10.321  20.144  0.00  0.00    +0.000 C 
ATOM     11  F   UNL     1      -0.331   9.903  19.146  0.00  0.00    +0.000 F 
ATOM     12  F   UNL     1      -0.172  11.321  20.787  0.00  0.00    +0.000 F 
ATOM     13  F   UNL     1       1.564  10.889  19.554  0.00  0.00    +0.000 F 
ENDBRANCH   8  10
BRANCH   8  14
ATOM     14  O   UNL     1       1.882   9.625  22.084  0.00  0.00    +0.000 OA
ATOM     15  H   UNL     1       2.564   8.935  22.155  0.00  0.00    +0.000 HD
ENDBRANCH   8  14
ENDBRANCH   5   8
ENDBRANCH   1   2
BRANCH   1  17
ATOM     16  C   UNL     1       2.322   2.378  19.132  0.00  0.00    +0.000 C 
ATOM     17  C   UNL     1       2.735   3.382  18.060  0.00  0.00    +0.000 C 
ATOM     18  C   UNL     1       1.514   3.817  17.250  0.00  0.00    +0.000 C 
ENDBRANCH   1  17
BRANCH   1  19
ATOM     19  S   UNL     1       5.143   4.467  18.842  0.00  0.00    +0.000 S 
ATOM     20  O   UNL     1       5.566   5.484  19.780  0.00  0.00    +0.000 OA
ATOM     21  O   UNL     1       5.459   3.075  19.133  0.00  0.00    +0.000 OA
BRANCH  19  22
ATOM     22  C   UNL     1       5.836   4.811  17.236  0.00  0.00    +0.000 A 
ATOM     23  C   UNL     1       5.317   4.075  16.144  0.00  0.00    +0.000 A 
ATOM     24  C   UNL     1       5.870   4.154  14.862  0.00  0.00    +0.000 A 
ATOM     25  C   UNL     1       6.966   5.012  14.691  0.00  0.00    +0.000 A 
ATOM     26  C   UNL     1       7.479   5.757  15.754  0.00  0.00    +0.000 A 
ATOM     27  C   UNL     1       6.924   5.657  17.036  0.00  0.00    +0.000 A 
ATOM     28 CL   UNL     1       7.656   6.642  18.247  0.00  0.00    +0.000 Cl
BRANCH  24  29
ATOM     29  C   UNL     1       5.378   3.298  13.720  0.00  0.00    +0.000 C 
ATOM     30  C   UNL     1       4.884   3.883  12.419  0.00  0.00    +0.000 C 
ATOM     31  C   UNL     1       6.217   3.201  12.465  0.00  0.00    +0.000 C 
ENDBRANCH  24  29
ENDBRANCH  19  22
ENDBRANCH   1  19
TORSDOF 8
ENDMDL
MODEL 5
REMARK VINA RESULT:      -7.2      1.089      1.211
REMARK  Name = 
REMARK  11 active torsions:
REMARK  status: ('A' for Active; 'I' for Inactive)
REMARK    1  A    between atoms: C_1  and  C_2
REMARK    2  A    between atoms: C_2  and  C_3
REMARK    3  A    between atoms: C_2  and  N_4
REMARK    4  A    between atoms: N_4  and  C_5
REMARK    5  A    between atoms: N_4  and  S_18
REMARK    6  A    between atoms: C_8  and  C_9
REMARK    7  A    between atoms: C_9  and  C_10
REMARK    8  A    between atoms: C_9  and  O_11
REMARK    9  A    between atoms: C_9  and  C_12
REMARK   10  A    between atoms: S_18  and  C_21
REMARK   11  A    between atoms: C_23  and  C_24
REMARK                            x       y       z     vdW  Elec       q    Type
REMARK                         _______ _______ _______ _____ _____    ______ ____
ROOT
ATOM      1  N   UNL     1       3.384   4.676  18.559  0.00  0.00    +0.000 N 
ENDROOT
BRANCH   1   2
ATOM      2  C   UNL     1       2.806   5.915  19.025  0.00  0.00    +0.000 A 
ATOM      3  C   UNL     1       2.871   7.056  18.231  0.00  0.00    +0.000 A 
ATOM      4  C   UNL     1       2.287   8.264  18.657  0.00  0.00    +0.000 A 
ATOM      5  C   UNL     1       1.578   8.347  19.870  0.00  0.00    +0.000 A 
ATOM      6  C   UNL     1       1.581   7.206  20.689  0.00  0.00    +0.000 A 
ATOM      7  C   UNL     1       2.213   6.020  20.284  0.00  0.00    +0.000 A 
BRANCH   5   8
ATOM      8  C   UNL     1       0.820   9.618  20.295  0.00  0.00    +0.000 C 
ATOM      9  C   UNL     1      -0.530   9.293  20.966  0.00  0.00    +0.000 C 
BRANCH   8  10
ATOM     10  C   UNL     1       0.572  10.630  19.119  0.00  0.00    +0.000 C 
ATOM     11  F   UNL     1       1.717  11.175  18.643  0.00  0.00    +0.000 F 
ATOM     12  F   UNL     1      -0.042  10.036  18.064  0.00  0.00    +0.000 F 
ATOM     13  F   UNL     1      -0.224  11.662  19.494  0.00  0.00    +0.000 F 
ENDBRANCH   8  10
BRANCH   8  14
ATOM     14  O   UNL     1       1.595  10.242  21.356  0.00  0.00    +0.000 OA
ATOM     15  H   UNL     1       2.532  10.041  21.192  0.00  0.00    +0.000 HD
ENDBRANCH   8  14
ENDBRANCH   5   8
ENDBRANCH   1   2
BRANCH   1  17
ATOM     16  C   UNL     1       2.104   2.637  19.368  0.00  0.00    +0.000 C 
ATOM     17  C   UNL     1       2.550   3.491  18.185  0.00  0.00    +0.000 C 
ATOM     18  C   UNL     1       1.333   3.941  17.375  0.00  0.00    +0.000 C 
ENDBRANCH   1  17
BRANCH   1  19
ATOM     19  S   UNL     1       5.060   4.440  18.805  0.00  0.00    +0.000 S 
ATOM     20  O   UNL     1       5.546   5.380  19.791  0.00  0.00    +0.000 OA
ATOM     21  O   UNL     1       5.287   3.018  19.024  0.00  0.00    +0.000 OA
BRANCH  19  22
ATOM     22  C   UNL     1       5.774   4.820  17.216  0.00  0.00    +0.000 A 
ATOM     23  C   UNL     1       5.314   4.065  16.110  0.00  0.00    +0.000 A 
ATOM     24  C   UNL     1       5.892   4.173  14.842  0.00  0.00    +0.000 A 
ATOM     25  C   UNL     1       6.952   5.081  14.699  0.00  0.00    +0.000 A 
ATOM     26  C   UNL     1       7.406   5.844  15.775  0.00  0.00    +0.000 A 
ATOM     27  C   UNL     1       6.827   5.715  17.043  0.00  0.00    +0.000 A 
ATOM     28 CL   UNL     1       7.485   6.729  18.273  0.00  0.00    +0.000 Cl
BRANCH  24  29
ATOM     29  C   UNL     1       5.466   3.299  13.687  0.00  0.00    +0.000 C 
ATOM     30  C   UNL     1       4.827   3.857  12.438  0.00  0.00    +0.000 C 
ATOM     31  C   UNL     1       6.243   3.371  12.391  0.00  0.00    +0.000 C 
ENDBRANCH  24  29
ENDBRANCH  19  22
ENDBRANCH   1  19
TORSDOF 8
ENDMDL
MODEL 6
REMARK VINA RESULT:      -7.2      4.688     10.004
REMARK  Name = 
REMARK  11 active torsions:
REMARK  status: ('A' for Active; 'I' for Inactive)
REMARK    1  A    between atoms: C_1  and  C_2
REMARK    2  A    between atoms: C_2  and  C_3
REMARK    3  A    between atoms: C_2  and  N_4
REMARK    4  A    between atoms: N_4  and  C_5
REMARK    5  A    between atoms: N_4  and  S_18
REMARK    6  A    between atoms: C_8  and  C_9
REMARK    7  A    between atoms: C_9  and  C_10
REMARK    8  A    between atoms: C_9  and  O_11
REMARK    9  A    between atoms: C_9  and  C_12
REMARK   10  A    between atoms: S_18  and  C_21
REMARK   11  A    between atoms: C_23  and  C_24
REMARK                            x       y       z     vdW  Elec       q    Type
REMARK                         _______ _______ _______ _____ _____    ______ ____
ROOT
ATOM      1  N   UNL     1      -0.112  10.766  19.596  0.00  0.00    +0.000 N 
ENDROOT
BRANCH   1   2
ATOM      2  C   UNL     1       0.796   9.672  19.342  0.00  0.00    +0.000 A 
ATOM      3  C   UNL     1       0.981   8.683  20.304  0.00  0.00    +0.000 A 
ATOM      4  C   UNL     1       1.839   7.593  20.060  0.00  0.00    +0.000 A 
ATOM      5  C   UNL     1       2.497   7.441  18.825  0.00  0.00    +0.000 A 
ATOM      6  C   UNL     1       2.351   8.482  17.894  0.00  0.00    +0.000 A 
ATOM      7  C   UNL     1       1.538   9.593  18.163  0.00  0.00    +0.000 A 
BRANCH   5   8
ATOM      8  C   UNL     1       3.334   6.193  18.487  0.00  0.00    +0.000 C 
ATOM      9  C   UNL     1       4.363   6.469  17.372  0.00  0.00    +0.000 C 
BRANCH   8  10
ATOM     10  C   UNL     1       2.472   4.942  18.087  0.00  0.00    +0.000 C 
ATOM     11  F   UNL     1       2.101   4.196  19.154  0.00  0.00    +0.000 F 
ATOM     12  F   UNL     1       1.329   5.301  17.448  0.00  0.00    +0.000 F 
ATOM     13  F   UNL     1       3.138   4.114  17.245  0.00  0.00    +0.000 F 
ENDBRANCH   8  10
BRANCH   8  14
ATOM     14  O   UNL     1       4.154   5.902  19.654  0.00  0.00    +0.000 OA
ATOM     15  H   UNL     1       3.785   6.399  20.404  0.00  0.00    +0.000 HD
ENDBRANCH   8  14
ENDBRANCH   5   8
ENDBRANCH   1   2
BRANCH   1  17
ATOM     16  C   UNL     1      -1.214  12.229  17.837  0.00  0.00    +0.000 C 
ATOM     17  C   UNL     1      -1.324  11.016  18.755  0.00  0.00    +0.000 C 
ATOM     18  C   UNL     1      -1.662   9.768  17.939  0.00  0.00    +0.000 C 
ENDBRANCH   1  17
BRANCH   1  19
ATOM     19  S   UNL     1       0.421  12.013  20.638  0.00  0.00    +0.000 S 
ATOM     20  O   UNL     1       1.455  11.509  21.514  0.00  0.00    +0.000 OA
ATOM     21  O   UNL     1       0.705  13.188  19.825  0.00  0.00    +0.000 OA
BRANCH  19  22
ATOM     22  C   UNL     1      -1.031  12.408  21.595  0.00  0.00    +0.000 A 
ATOM     23  C   UNL     1      -1.661  13.646  21.322  0.00  0.00    +0.000 A 
ATOM     24  C   UNL     1      -2.721  14.129  22.095  0.00  0.00    +0.000 A 
ATOM     25  C   UNL     1      -3.153  13.325  23.160  0.00  0.00    +0.000 A 
ATOM     26  C   UNL     1      -2.553  12.095  23.432  0.00  0.00    +0.000 A 
ATOM     27  C   UNL     1      -1.484  11.630  22.658  0.00  0.00    +0.000 A 
ATOM     28 CL   UNL     1      -0.850  10.090  23.106  0.00  0.00    +0.000 Cl
BRANCH  24  29
ATOM     29  C   UNL     1      -3.329  15.492  21.863  0.00  0.00    +0.000 C 
ATOM     30  C   UNL     1      -4.227  16.164  22.874  0.00  0.00    +0.000 C 
ATOM     31  C   UNL     1      -2.828  16.664  22.679  0.00  0.00    +0.000 C 
ENDBRANCH  24  29
ENDBRANCH  19  22
ENDBRANCH   1  19
TORSDOF 8
ENDMDL
MODEL 7
REMARK VINA RESULT:      -7.2      0.960      1.469
REMARK  Name = 
REMARK  11 active torsions:
REMARK  status: ('A' for Active; 'I' for Inactive)
REMARK    1  A    between atoms: C_1  and  C_2
REMARK    2  A    between atoms: C_2  and  C_3
REMARK    3  A    between atoms: C_2  and  N_4
REMARK    4  A    between atoms: N_4  and  C_5
REMARK    5  A    between atoms: N_4  and  S_18
REMARK    6  A    between atoms: C_8  and  C_9
REMARK    7  A    between atoms: C_9  and  C_10
REMARK    8  A    between atoms: C_9  and  O_11
REMARK    9  A    between atoms: C_9  and  C_12
REMARK   10  A    between atoms: S_18  and  C_21
REMARK   11  A    between atoms: C_23  and  C_24
REMARK                            x       y       z     vdW  Elec       q    Type
REMARK                         _______ _______ _______ _____ _____    ______ ____
ROOT
ATOM      1  N   UNL     1       3.476   4.736  18.723  0.00  0.00    +0.000 N 
ENDROOT
BRANCH   1   2
ATOM      2  C   UNL     1       2.837   6.031  18.733  0.00  0.00    +0.000 A 
ATOM      3  C   UNL     1       2.276   6.522  19.908  0.00  0.00    +0.000 A 
ATOM      4  C   UNL     1       1.675   7.795  19.942  0.00  0.00    +0.000 A 
ATOM      5  C   UNL     1       1.666   8.631  18.809  0.00  0.00    +0.000 A 
ATOM      6  C   UNL     1       2.176   8.092  17.617  0.00  0.00    +0.000 A 
ATOM      7  C   UNL     1       2.723   6.801  17.575  0.00  0.00    +0.000 A 
BRANCH   5   8
ATOM      8  C   UNL     1       1.134  10.075  18.857  0.00  0.00    +0.000 C 
ATOM      9  C   UNL     1       2.225  11.108  18.508  0.00  0.00    +0.000 C 
BRANCH   8  10
ATOM     10  C   UNL     1       0.486  10.465  20.234  0.00  0.00    +0.000 C 
ATOM     11  F   UNL     1      -0.502   9.619  20.610  0.00  0.00    +0.000 F 
ATOM     12  F   UNL     1       1.400  10.466  21.239  0.00  0.00    +0.000 F 
ATOM     13  F   UNL     1      -0.054  11.709  20.208  0.00  0.00    +0.000 F 
ENDBRANCH   8  10
BRANCH   8  14
ATOM     14  O   UNL     1       0.168  10.210  17.777  0.00  0.00    +0.000 OA
ATOM     15  H   UNL     1       0.042   9.329  17.385  0.00  0.00    +0.000 HD
ENDBRANCH   8  14
ENDBRANCH   5   8
ENDBRANCH   1   2
BRANCH   1  17
ATOM     16  C   UNL     1       2.304   3.109  20.282  0.00  0.00    +0.000 C 
ATOM     17  C   UNL     1       2.706   3.459  18.852  0.00  0.00    +0.000 C 
ATOM     18  C   UNL     1       1.469   3.501  17.955  0.00  0.00    +0.000 C 
ENDBRANCH   1  17
BRANCH   1  19
ATOM     19  S   UNL     1       5.170   4.685  18.953  0.00  0.00    +0.000 S 
ATOM     20  O   UNL     1       5.574   5.749  19.845  0.00  0.00    +0.000 OA
ATOM     21  O   UNL     1       5.538   3.316  19.287  0.00  0.00    +0.000 OA
BRANCH  19  22
ATOM     22  C   UNL     1       5.823   4.993  17.323  0.00  0.00    +0.000 A 
ATOM     23  C   UNL     1       5.263   4.247  16.257  0.00  0.00    +0.000 A 
ATOM     24  C   UNL     1       5.781   4.298  14.959  0.00  0.00    +0.000 A 
ATOM     25  C   UNL     1       6.884   5.137  14.745  0.00  0.00    +0.000 A 
ATOM     26  C   UNL     1       7.436   5.891  15.780  0.00  0.00    +0.000 A 
ATOM     27  C   UNL     1       6.917   5.820  17.078  0.00  0.00    +0.000 A 
ATOM     28 CL   UNL     1       7.696   6.814  18.253  0.00  0.00    +0.000 Cl
BRANCH  24  29
ATOM     29  C   UNL     1       5.245   3.431  13.846  0.00  0.00    +0.000 C 
ATOM     30  C   UNL     1       4.937   3.972  12.471  0.00  0.00    +0.000 C 
ATOM     31  C   UNL     1       6.145   3.109  12.673  0.00  0.00    +0.000 C 
ENDBRANCH  24  29
ENDBRANCH  19  22
ENDBRANCH   1  19
TORSDOF 8
ENDMDL
MODEL 8
REMARK VINA RESULT:      -7.1      4.660      9.912
REMARK  Name = 
REMARK  11 active torsions:
REMARK  status: ('A' for Active; 'I' for Inactive)
REMARK    1  A    between atoms: C_1  and  C_2
REMARK    2  A    between atoms: C_2  and  C_3
REMARK    3  A    between atoms: C_2  and  N_4
REMARK    4  A    between atoms: N_4  and  C_5
REMARK    5  A    between atoms: N_4  and  S_18
REMARK    6  A    between atoms: C_8  and  C_9
REMARK    7  A    between atoms: C_9  and  C_10
REMARK    8  A    between atoms: C_9  and  O_11
REMARK    9  A    between atoms: C_9  and  C_12
REMARK   10  A    between atoms: S_18  and  C_21
REMARK   11  A    between atoms: C_23  and  C_24
REMARK                            x       y       z     vdW  Elec       q    Type
REMARK                         _______ _______ _______ _____ _____    ______ ____
ROOT
ATOM      1  N   UNL     1      -0.057  10.954  19.627  0.00  0.00    +0.000 N 
ENDROOT
BRANCH   1   2
ATOM      2  C   UNL     1       0.797   9.815  19.383  0.00  0.00    +0.000 A 
ATOM      3  C   UNL     1       0.968   8.849  20.370  0.00  0.00    +0.000 A 
ATOM      4  C   UNL     1       1.773   7.717  20.137  0.00  0.00    +0.000 A 
ATOM      5  C   UNL     1       2.388   7.500  18.890  0.00  0.00    +0.000 A 
ATOM      6  C   UNL     1       2.260   8.517  17.931  0.00  0.00    +0.000 A 
ATOM      7  C   UNL     1       1.502   9.669  18.187  0.00  0.00    +0.000 A 
BRANCH   5   8
ATOM      8  C   UNL     1       3.163   6.208  18.569  0.00  0.00    +0.000 C 
ATOM      9  C   UNL     1       4.222   6.424  17.468  0.00  0.00    +0.000 C 
BRANCH   8  10
ATOM     10  C   UNL     1       2.242   5.003  18.159  0.00  0.00    +0.000 C 
ATOM     11  F   UNL     1       1.219   5.372  17.353  0.00  0.00    +0.000 F 
ATOM     12  F   UNL     1       2.934   4.043  17.494  0.00  0.00    +0.000 F 
ATOM     13  F   UNL     1       1.688   4.396  19.239  0.00  0.00    +0.000 F 
ENDBRANCH   8  10
BRANCH   8  14
ATOM     14  O   UNL     1       3.949   5.878  19.748  0.00  0.00    +0.000 OA
ATOM     15  H   UNL     1       3.371   5.979  20.523  0.00  0.00    +0.000 HD
ENDBRANCH   8  14
ENDBRANCH   5   8
ENDBRANCH   1   2
BRANCH   1  17
ATOM     16  C   UNL     1      -1.272  12.187  17.769  0.00  0.00    +0.000 C 
ATOM     17  C   UNL     1      -1.347  11.162  18.897  0.00  0.00    +0.000 C 
ATOM     18  C   UNL     1      -1.867   9.829  18.361  0.00  0.00    +0.000 C 
ENDBRANCH   1  17
BRANCH   1  19
ATOM     19  S   UNL     1       0.607  12.274  20.488  0.00  0.00    +0.000 S 
ATOM     20  O   UNL     1       1.633  11.800  21.391  0.00  0.00    +0.000 OA
ATOM     21  O   UNL     1       0.948  13.313  19.526  0.00  0.00    +0.000 OA
BRANCH  19  22
ATOM     22  C   UNL     1      -0.773  12.898  21.428  0.00  0.00    +0.000 A 
ATOM     23  C   UNL     1      -1.223  14.203  21.115  0.00  0.00    +0.000 A 
ATOM     24  C   UNL     1      -2.203  14.855  21.870  0.00  0.00    +0.000 A 
ATOM     25  C   UNL     1      -2.743  14.153  22.957  0.00  0.00    +0.000 A 
ATOM     26  C   UNL     1      -2.322  12.859  23.269  0.00  0.00    +0.000 A 
ATOM     27  C   UNL     1      -1.330  12.224  22.513  0.00  0.00    +0.000 A 
ATOM     28 CL   UNL     1      -0.918  10.625  23.010  0.00  0.00    +0.000 Cl
BRANCH  24  29
ATOM     29  C   UNL     1      -2.613  16.282  21.595  0.00  0.00    +0.000 C 
ATOM     30  C   UNL     1      -2.360  16.959  20.270  0.00  0.00    +0.000 C 
ATOM     31  C   UNL     1      -3.752  16.542  20.634  0.00  0.00    +0.000 C 
ENDBRANCH  24  29
ENDBRANCH  19  22
ENDBRANCH   1  19
TORSDOF 8
ENDMDL
MODEL 9
REMARK VINA RESULT:      -7.1      4.040      8.009
REMARK  Name = 
REMARK  11 active torsions:
REMARK  status: ('A' for Active; 'I' for Inactive)
REMARK    1  A    between atoms: C_1  and  C_2
REMARK    2  A    between atoms: C_2  and  C_3
REMARK    3  A    between atoms: C_2  and  N_4
REMARK    4  A    between atoms: N_4  and  C_5
REMARK    5  A    between atoms: N_4  and  S_18
REMARK    6  A    between atoms: C_8  and  C_9
REMARK    7  A    between atoms: C_9  and  C_10
REMARK    8  A    between atoms: C_9  and  O_11
REMARK    9  A    between atoms: C_9  and  C_12
REMARK   10  A    between atoms: S_18  and  C_21
REMARK   11  A    between atoms: C_23  and  C_24
REMARK                            x       y       z     vdW  Elec       q    Type
REMARK                         _______ _______ _______ _____ _____    ______ ____
ROOT
ATOM      1  N   UNL     1       1.349   9.081  20.039  0.00  0.00    +0.000 N 
ENDROOT
BRANCH   1   2
ATOM      2  C   UNL     1       1.766   7.748  19.669  0.00  0.00    +0.000 A 
ATOM      3  C   UNL     1       2.231   7.497  18.381  0.00  0.00    +0.000 A 
ATOM      4  C   UNL     1       2.669   6.210  18.013  0.00  0.00    +0.000 A 
ATOM      5  C   UNL     1       2.698   5.153  18.942  0.00  0.00    +0.000 A 
ATOM      6  C   UNL     1       2.162   5.408  20.214  0.00  0.00    +0.000 A 
ATOM      7  C   UNL     1       1.675   6.678  20.559  0.00  0.00    +0.000 A 
BRANCH   5   8
ATOM      8  C   UNL     1       3.294   3.774  18.601  0.00  0.00    +0.000 C 
ATOM      9  C   UNL     1       4.252   3.838  17.394  0.00  0.00    +0.000 C 
BRANCH   8  10
ATOM     10  C   UNL     1       2.213   2.666  18.334  0.00  0.00    +0.000 C 
ATOM     11  F   UNL     1       2.509   1.888  17.266  0.00  0.00    +0.000 F 
ATOM     12  F   UNL     1       2.073   1.831  19.395  0.00  0.00    +0.000 F 
ATOM     13  F   UNL     1       0.987   3.197  18.101  0.00  0.00    +0.000 F 
ENDBRANCH   8  10
BRANCH   8  14
ATOM     14  O   UNL     1       4.156   3.396  19.711  0.00  0.00    +0.000 OA
ATOM     15  H   UNL     1       3.596   2.979  20.388  0.00  0.00    +0.000 HD
ENDBRANCH   8  14
ENDBRANCH   5   8
ENDBRANCH   1   2
BRANCH   1  17
ATOM     16  C   UNL     1      -0.582   8.475  21.573  0.00  0.00    +0.000 C 
ATOM     17  C   UNL     1       0.627   9.371  21.317  0.00  0.00    +0.000 C 
ATOM     18  C   UNL     1       1.596   9.294  22.496  0.00  0.00    +0.000 C 
ENDBRANCH   1  17
BRANCH   1  19
ATOM     19  S   UNL     1       1.347  10.279  18.818  0.00  0.00    +0.000 S 
ATOM     20  O   UNL     1       2.075  11.443  19.275  0.00  0.00    +0.000 OA
ATOM     21  O   UNL     1       1.749   9.649  17.568  0.00  0.00    +0.000 OA
BRANCH  19  22
ATOM     22  C   UNL     1      -0.379  10.689  18.638  0.00  0.00    +0.000 A 
ATOM     23  C   UNL     1      -1.094  10.013  17.620  0.00  0.00    +0.000 A 
ATOM     24  C   UNL     1      -2.412  10.344  17.289  0.00  0.00    +0.000 A 
ATOM     25  C   UNL     1      -3.014  11.377  18.023  0.00  0.00    +0.000 A 
ATOM     26  C   UNL     1      -2.328  12.041  19.041  0.00  0.00    +0.000 A 
ATOM     27  C   UNL     1      -1.004  11.709  19.351  0.00  0.00    +0.000 A 
ATOM     28 CL   UNL     1      -0.288  12.608  20.637  0.00  0.00    +0.000 Cl
BRANCH  24  29
ATOM     29  C   UNL     1      -3.142   9.690  16.141  0.00  0.00    +0.000 C 
ATOM     30  C   UNL     1      -4.079  10.451  15.234  0.00  0.00    +0.000 C 
ATOM     31  C   UNL     1      -2.733  10.034  14.725  0.00  0.00    +0.000 C 
ENDBRANCH  24  29
ENDBRANCH  19  22
ENDBRANCH   1  19
TORSDOF 8
ENDMDL
