MODEL 1
REMARK VINA RESULT:      -7.4      0.000      0.000
REMARK  Name = 
REMARK  10 active torsions:
REMARK  status: ('A' for Active; 'I' for Inactive)
REMARK    1  A    between atoms: C_1  and  C_2
REMARK    2  A    between atoms: C_2  and  C_3
REMARK    3  A    between atoms: C_3  and  C_4
REMARK    4  A    between atoms: C_4  and  O_5
REMARK    5  A    between atoms: O_5  and  C_6
REMARK    6  A    between atoms: C_10  and  N_11
REMARK    7  A    between atoms: N_11  and  C_12
REMARK    8  A    between atoms: C_12  and  C_13
REMARK    9  A    between atoms: N_18  and  C_19
REMARK   10  A    between atoms: C_19  and  C_20
REMARK                            x       y       z     vdW  Elec       q    Type
REMARK                         _______ _______ _______ _____ _____    ______ ____
ROOT
ATOM      1  N   UNL     1       6.303   4.709  18.631  0.00  0.00    +0.000 N 
ATOM      2  H   UNL     1       6.597   5.271  19.430  0.00  0.00    +0.000 HD
ENDROOT
BRANCH   1   7
ATOM      3  C   UNL     1       2.782   3.751  17.829  0.00  0.00    +0.000 A 
ATOM      4  C   UNL     1       2.162   5.001  17.921  0.00  0.00    +0.000 A 
ATOM      5  C   UNL     1       2.917   6.136  18.201  0.00  0.00    +0.000 A 
ATOM      6  C   UNL     1       4.293   6.024  18.408  0.00  0.00    +0.000 A 
ATOM      7  C   UNL     1       4.944   4.786  18.319  0.00  0.00    +0.000 A 
ATOM      8  C   UNL     1       4.168   3.656  18.027  0.00  0.00    +0.000 A 
BRANCH   3   9
ATOM      9  O   UNL     1       1.943   2.704  17.551  0.00  0.00    +0.000 OA
BRANCH   9  10
ATOM     10  C   UNL     1       0.959   2.420  18.547  0.00  0.00    +0.000 C 
BRANCH  10  11
ATOM     11  C   UNL     1       1.664   2.075  19.851  0.00  0.00    +0.000 C 
BRANCH  11  13
ATOM     12  C   UNL     1       2.263   3.849  21.530  0.00  0.00    +0.000 C 
ATOM     13  C   UNL     1       1.160   2.959  20.989  0.00  0.00    +0.000 C 
ENDBRANCH  11  13
ENDBRANCH  10  11
ENDBRANCH   9  10
ENDBRANCH   3   9
ENDBRANCH   1   7
BRANCH   1  14
ATOM     14  C   UNL     1       7.288   4.746  17.544  0.00  0.00    +0.000 C 
BRANCH  14  15
ATOM     15  C   UNL     1       6.883   5.769  16.460  0.00  0.00    +0.000 C 
ATOM     16  O   UNL     1       6.293   5.444  15.426  0.00  0.00    +0.000 OA
ATOM     17  N   UNL     1       7.223   7.094  16.663  0.00  0.00    +0.000 N 
ATOM     18  C   UNL     1       7.856   7.577  17.777  0.00  0.00    +0.000 C 
ATOM     19  O   UNL     1       8.188   6.887  18.730  0.00  0.00    +0.000 OA
ATOM     20  N   UNL     1       8.135   8.916  17.749  0.00  0.00    +0.000 N 
ATOM     21  H   UNL     1       6.962   7.720  15.922  0.00  0.00    +0.000 HD
ATOM     22  H   UNL     1       7.774   9.518  17.019  0.00  0.00    +0.000 HD
BRANCH  20  23
ATOM     23  C   UNL     1       8.843   9.501  18.879  0.00  0.00    +0.000 C 
ATOM     24  C   UNL     1       9.272  10.934  18.622  0.00  0.00    +0.000 C 
ENDBRANCH  20  23
ENDBRANCH  14  15
ENDBRANCH   1  14
TORSDOF 8
ENDMDL
MODEL 2
REMARK VINA RESULT:      -7.0      2.593      4.395
REMARK  Name = 
REMARK  10 active torsions:
REMARK  status: ('A' for Active; 'I' for Inactive)
REMARK    1  A    between atoms: C_1  and  C_2
REMARK    2  A    between atoms: C_2  and  C_3
REMARK    3  A    between atoms: C_3  and  C_4
REMARK    4  A    between atoms: C_4  and  O_5
REMARK    5  A    between atoms: O_5  and  C_6
REMARK    6  A    between atoms: C_10  and  N_11
REMARK    7  A    between atoms: N_11  and  C_12
REMARK    8  A    between atoms: C_12  and  C_13
REMARK    9  A    between atoms: N_18  and  C_19
REMARK   10  A    between atoms: C_19  and  C_20
REMARK                            x       y       z     vdW  Elec       q    Type
REMARK                         _______ _______ _______ _____ _____    ______ ____
ROOT
ATOM      1  N   UNL     1       6.158   5.386  18.299  0.00  0.00    +0.000 N 
ATOM      2  H   UNL     1       6.791   6.161  18.499  0.00  0.00    +0.000 HD
ENDROOT
BRANCH   1   7
ATOM      3  C   UNL     1       2.835   5.408  20.005  0.00  0.00    +0.000 A 
ATOM      4  C   UNL     1       2.162   6.348  19.218  0.00  0.00    +0.000 A 
ATOM      5  C   UNL     1       2.797   6.922  18.121  0.00  0.00    +0.000 A 
ATOM      6  C   UNL     1       4.113   6.572  17.816  0.00  0.00    +0.000 A 
ATOM      7  C   UNL     1       4.813   5.630  18.584  0.00  0.00    +0.000 A 
ATOM      8  C   UNL     1       4.153   5.057  19.679  0.00  0.00    +0.000 A 
BRANCH   3   9
ATOM      9  O   UNL     1       2.115   4.911  21.060  0.00  0.00    +0.000 OA
BRANCH   9  10
ATOM     10  C   UNL     1       1.830   3.513  21.009  0.00  0.00    +0.000 C 
BRANCH  10  11
ATOM     11  C   UNL     1       0.583   3.295  20.164  0.00  0.00    +0.000 C 
BRANCH  11  13
ATOM     12  C   UNL     1       2.337   1.950  18.964  0.00  0.00    +0.000 C 
ATOM     13  C   UNL     1       0.905   2.451  18.933  0.00  0.00    +0.000 C 
ENDBRANCH  11  13
ENDBRANCH  10  11
ENDBRANCH   9  10
ENDBRANCH   3   9
ENDBRANCH   1   7
BRANCH   1  14
ATOM     14  C   UNL     1       6.510   4.699  17.051  0.00  0.00    +0.000 C 
BRANCH  14  15
ATOM     15  C   UNL     1       7.196   5.663  16.059  0.00  0.00    +0.000 C 
ATOM     16  O   UNL     1       7.756   6.702  16.421  0.00  0.00    +0.000 OA
ATOM     17  N   UNL     1       7.151   5.347  14.714  0.00  0.00    +0.000 N 
ATOM     18  C   UNL     1       6.581   4.215  14.195  0.00  0.00    +0.000 C 
ATOM     19  O   UNL     1       6.049   3.346  14.870  0.00  0.00    +0.000 OA
ATOM     20  N   UNL     1       6.612   4.125  12.831  0.00  0.00    +0.000 N 
ATOM     21  H   UNL     1       7.589   6.015  14.103  0.00  0.00    +0.000 HD
ATOM     22  H   UNL     1       7.140   4.780  12.267  0.00  0.00    +0.000 HD
BRANCH  20  23
ATOM     23  C   UNL     1       5.991   2.971  12.198  0.00  0.00    +0.000 C 
ATOM     24  C   UNL     1       4.625   3.287  11.614  0.00  0.00    +0.000 C 
ENDBRANCH  20  23
ENDBRANCH  14  15
ENDBRANCH   1  14
TORSDOF 8
ENDMDL
MODEL 3
REMARK VINA RESULT:      -6.9      2.690      4.441
REMARK  Name = 
REMARK  10 active torsions:
REMARK  status: ('A' for Active; 'I' for Inactive)
REMARK    1  A    between atoms: C_1  and  C_2
REMARK    2  A    between atoms: C_2  and  C_3
REMARK    3  A    between atoms: C_3  and  C_4
REMARK    4  A    between atoms: C_4  and  O_5
REMARK    5  A    between atoms: O_5  and  C_6
REMARK    6  A    between atoms: C_10  and  N_11
REMARK    7  A    between atoms: N_11  and  C_12
REMARK    8  A    between atoms: C_12  and  C_13
REMARK    9  A    between atoms: N_18  and  C_19
REMARK   10  A    between atoms: C_19  and  C_20
REMARK                            x       y       z     vdW  Elec       q    Type
REMARK                         _______ _______ _______ _____ _____    ______ ____
ROOT
ATOM      1  N   UNL     1       4.426   6.378  16.904  0.00  0.00    +0.000 N 
ATOM      2  H   UNL     1       4.104   5.737  16.177  0.00  0.00    +0.000 HD
ENDROOT
BRANCH   1   7
ATOM      3  C   UNL     1       2.406   5.965  20.018  0.00  0.00    +0.000 A 
ATOM      4  C   UNL     1       1.834   7.238  20.109  0.00  0.00    +0.000 A 
ATOM      5  C   UNL     1       2.089   8.190  19.125  0.00  0.00    +0.000 A 
ATOM      6  C   UNL     1       2.930   7.878  18.057  0.00  0.00    +0.000 A 
ATOM      7  C   UNL     1       3.515   6.610  17.936  0.00  0.00    +0.000 A 
ATOM      8  C   UNL     1       3.239   5.663  18.931  0.00  0.00    +0.000 A 
BRANCH   3   9
ATOM      9  O   UNL     1       2.088   5.111  21.042  0.00  0.00    +0.000 OA
BRANCH   9  10
ATOM     10  C   UNL     1       2.282   3.723  20.770  0.00  0.00    +0.000 C 
BRANCH  10  11
ATOM     11  C   UNL     1       0.935   3.093  20.443  0.00  0.00    +0.000 C 
BRANCH  11  13
ATOM     12  C   UNL     1       2.371   2.106  18.630  0.00  0.00    +0.000 C 
ATOM     13  C   UNL     1       0.957   2.457  19.055  0.00  0.00    +0.000 C 
ENDBRANCH  11  13
ENDBRANCH  10  11
ENDBRANCH   9  10
ENDBRANCH   3   9
ENDBRANCH   1   7
BRANCH   1  14
ATOM     14  C   UNL     1       5.841   6.166  17.233  0.00  0.00    +0.000 C 
BRANCH  14  15
ATOM     15  C   UNL     1       6.145   4.665  17.439  0.00  0.00    +0.000 C 
ATOM     16  O   UNL     1       6.253   4.157  18.558  0.00  0.00    +0.000 OA
ATOM     17  N   UNL     1       6.324   3.881  16.314  0.00  0.00    +0.000 N 
ATOM     18  C   UNL     1       6.207   4.327  15.024  0.00  0.00    +0.000 C 
ATOM     19  O   UNL     1       5.921   5.476  14.720  0.00  0.00    +0.000 OA
ATOM     20  N   UNL     1       6.468   3.390  14.063  0.00  0.00    +0.000 N 
ATOM     21  H   UNL     1       6.544   2.918  16.495  0.00  0.00    +0.000 HD
ATOM     22  H   UNL     1       6.599   2.413  14.296  0.00  0.00    +0.000 HD
BRANCH  20  23
ATOM     23  C   UNL     1       6.404   3.793  12.666  0.00  0.00    +0.000 C 
ATOM     24  C   UNL     1       5.222   3.184  11.934  0.00  0.00    +0.000 C 
ENDBRANCH  20  23
ENDBRANCH  14  15
ENDBRANCH   1  14
TORSDOF 8
ENDMDL
MODEL 4
REMARK VINA RESULT:      -6.8      1.514      1.727
REMARK  Name = 
REMARK  10 active torsions:
REMARK  status: ('A' for Active; 'I' for Inactive)
REMARK    1  A    between atoms: C_1  and  C_2
REMARK    2  A    between atoms: C_2  and  C_3
REMARK    3  A    between atoms: C_3  and  C_4
REMARK    4  A    between atoms: C_4  and  O_5
REMARK    5  A    between atoms: O_5  and  C_6
REMARK    6  A    between atoms: C_10  and  N_11
REMARK    7  A    between atoms: N_11  and  C_12
REMARK    8  A    between atoms: C_12  and  C_13
REMARK    9  A    between atoms: N_18  and  C_19
REMARK   10  A    between atoms: C_19  and  C_20
REMARK                            x       y       z     vdW  Elec       q    Type
REMARK                         _______ _______ _______ _____ _____    ______ ____
ROOT
ATOM      1  N   UNL     1       5.920   5.020  17.079  0.00  0.00    +0.000 N 
ATOM      2  H   UNL     1       6.194   4.137  17.513  0.00  0.00    +0.000 HD
ENDROOT
BRANCH   1   7
ATOM      3  C   UNL     1       2.294   4.985  17.975  0.00  0.00    +0.000 A 
ATOM      4  C   UNL     1       2.065   6.356  18.125  0.00  0.00    +0.000 A 
ATOM      5  C   UNL     1       3.093   7.264  17.887  0.00  0.00    +0.000 A 
ATOM      6  C   UNL     1       4.357   6.804  17.516  0.00  0.00    +0.000 A 
ATOM      7  C   UNL     1       4.616   5.436  17.355  0.00  0.00    +0.000 A 
ATOM      8  C   UNL     1       3.566   4.538  17.590  0.00  0.00    +0.000 A 
BRANCH   3   9
ATOM      9  O   UNL     1       1.213   4.183  18.237  0.00  0.00    +0.000 OA
BRANCH   9  10
ATOM     10  C   UNL     1       1.495   2.980  18.952  0.00  0.00    +0.000 C 
BRANCH  10  11
ATOM     11  C   UNL     1       0.959   3.112  20.371  0.00  0.00    +0.000 C 
BRANCH  11  13
ATOM     12  C   UNL     1       3.390   2.599  20.761  0.00  0.00    +0.000 C 
ATOM     13  C   UNL     1       2.101   3.104  21.384  0.00  0.00    +0.000 C 
ENDBRANCH  11  13
ENDBRANCH  10  11
ENDBRANCH   9  10
ENDBRANCH   3   9
ENDBRANCH   1   7
BRANCH   1  14
ATOM     14  C   UNL     1       7.006   6.006  17.110  0.00  0.00    +0.000 C 
BRANCH  14  15
ATOM     15  C   UNL     1       7.790   5.929  18.439  0.00  0.00    +0.000 C 
ATOM     16  O   UNL     1       7.894   4.885  19.089  0.00  0.00    +0.000 OA
ATOM     17  N   UNL     1       8.371   7.090  18.915  0.00  0.00    +0.000 N 
ATOM     18  C   UNL     1       8.343   8.298  18.272  0.00  0.00    +0.000 C 
ATOM     19  O   UNL     1       7.802   8.488  17.192  0.00  0.00    +0.000 OA
ATOM     20  N   UNL     1       8.946   9.325  18.945  0.00  0.00    +0.000 N 
ATOM     21  H   UNL     1       8.850   6.998  19.794  0.00  0.00    +0.000 HD
ATOM     22  H   UNL     1       9.489   9.164  19.784  0.00  0.00    +0.000 HD
BRANCH  20  23
ATOM     23  C   UNL     1       8.925  10.653  18.348  0.00  0.00    +0.000 C 
ATOM     24  C   UNL     1      10.252  11.377  18.484  0.00  0.00    +0.000 C 
ENDBRANCH  20  23
ENDBRANCH  14  15
ENDBRANCH   1  14
TORSDOF 8
ENDMDL
MODEL 5
REMARK VINA RESULT:      -6.8      2.303      4.034
REMARK  Name = 
REMARK  10 active torsions:
REMARK  status: ('A' for Active; 'I' for Inactive)
REMARK    1  A    between atoms: C_1  and  C_2
REMARK    2  A    between atoms: C_2  and  C_3
REMARK    3  A    between atoms: C_3  and  C_4
REMARK    4  A    between atoms: C_4  and  O_5
REMARK    5  A    between atoms: O_5  and  C_6
REMARK    6  A    between atoms: C_10  and  N_11
REMARK    7  A    between atoms: N_11  and  C_12
REMARK    8  A    between atoms: C_12  and  C_13
REMARK    9  A    between atoms: N_18  and  C_19
REMARK   10  A    between atoms: C_19  and  C_20
REMARK                            x       y       z     vdW  Elec       q    Type
REMARK                         _______ _______ _______ _____ _____    ______ ____
ROOT
ATOM      1  N   UNL     1       6.080   5.195  18.401  0.00  0.00    +0.000 N 
ATOM      2  H   UNL     1       6.608   5.853  18.975  0.00  0.00    +0.000 HD
ENDROOT
BRANCH   1   7
ATOM      3  C   UNL     1       2.370   5.054  17.984  0.00  0.00    +0.000 A 
ATOM      4  C   UNL     1       2.090   6.416  17.832  0.00  0.00    +0.000 A 
ATOM      5  C   UNL     1       3.125   7.345  17.826  0.00  0.00    +0.000 A 
ATOM      6  C   UNL     1       4.444   6.920  17.990  0.00  0.00    +0.000 A 
ATOM      7  C   UNL     1       4.758   5.562  18.142  0.00  0.00    +0.000 A 
ATOM      8  C   UNL     1       3.702   4.641  18.136  0.00  0.00    +0.000 A 
BRANCH   3   9
ATOM      9  O   UNL     1       1.275   4.230  17.978  0.00  0.00    +0.000 OA
BRANCH   9  10
ATOM     10  C   UNL     1       1.518   2.877  18.364  0.00  0.00    +0.000 C 
BRANCH  10  11
ATOM     11  C   UNL     1       0.665   2.552  19.582  0.00  0.00    +0.000 C 
BRANCH  11  13
ATOM     12  C   UNL     1       2.429   2.890  21.343  0.00  0.00    +0.000 C 
ATOM     13  C   UNL     1       1.105   3.381  20.787  0.00  0.00    +0.000 C 
ENDBRANCH  11  13
ENDBRANCH  10  11
ENDBRANCH   9  10
ENDBRANCH   3   9
ENDBRANCH   1   7
BRANCH   1  14
ATOM     14  C   UNL     1       6.894   4.642  17.313  0.00  0.00    +0.000 C 
BRANCH  14  15
ATOM     15  C   UNL     1       7.297   5.741  16.306  0.00  0.00    +0.000 C 
ATOM     16  O   UNL     1       7.763   6.828  16.660  0.00  0.00    +0.000 OA
ATOM     17  N   UNL     1       7.100   5.491  14.960  0.00  0.00    +0.000 N 
ATOM     18  C   UNL     1       6.613   4.318  14.447  0.00  0.00    +0.000 C 
ATOM     19  O   UNL     1       6.302   3.350  15.126  0.00  0.00    +0.000 OA
ATOM     20  N   UNL     1       6.458   4.302  13.089  0.00  0.00    +0.000 N 
ATOM     21  H   UNL     1       7.354   6.242  14.344  0.00  0.00    +0.000 HD
ATOM     22  H   UNL     1       6.809   5.051  12.505  0.00  0.00    +0.000 HD
BRANCH  20  23
ATOM     23  C   UNL     1       5.908   3.106  12.467  0.00  0.00    +0.000 C 
ATOM     24  C   UNL     1       4.654   3.390  11.659  0.00  0.00    +0.000 C 
ENDBRANCH  20  23
ENDBRANCH  14  15
ENDBRANCH   1  14
TORSDOF 8
ENDMDL
MODEL 6
REMARK VINA RESULT:      -6.6      1.531      1.861
REMARK  Name = 
REMARK  10 active torsions:
REMARK  status: ('A' for Active; 'I' for Inactive)
REMARK    1  A    between atoms: C_1  and  C_2
REMARK    2  A    between atoms: C_2  and  C_3
REMARK    3  A    between atoms: C_3  and  C_4
REMARK    4  A    between atoms: C_4  and  O_5
REMARK    5  A    between atoms: O_5  and  C_6
REMARK    6  A    between atoms: C_10  and  N_11
REMARK    7  A    between atoms: N_11  and  C_12
REMARK    8  A    between atoms: C_12  and  C_13
REMARK    9  A    between atoms: N_18  and  C_19
REMARK   10  A    between atoms: C_19  and  C_20
REMARK                            x       y       z     vdW  Elec       q    Type
REMARK                         _______ _______ _______ _____ _____    ______ ____
ROOT
ATOM      1  N   UNL     1       5.723   7.017  17.074  0.00  0.00    +0.000 N 
ATOM      2  H   UNL     1       5.718   7.773  16.389  0.00  0.00    +0.000 HD
ENDROOT
BRANCH   1   7
ATOM      3  C   UNL     1       3.031   4.458  17.474  0.00  0.00    +0.000 A 
ATOM      4  C   UNL     1       2.017   5.254  18.016  0.00  0.00    +0.000 A 
ATOM      5  C   UNL     1       2.222   6.618  18.199  0.00  0.00    +0.000 A 
ATOM      6  C   UNL     1       3.448   7.190  17.856  0.00  0.00    +0.000 A 
ATOM      7  C   UNL     1       4.483   6.420  17.309  0.00  0.00    +0.000 A 
ATOM      8  C   UNL     1       4.254   5.050  17.125  0.00  0.00    +0.000 A 
BRANCH   3   9
ATOM      9  O   UNL     1       2.721   3.130  17.342  0.00  0.00    +0.000 OA
BRANCH   9  10
ATOM     10  C   UNL     1       3.603   2.221  18.001  0.00  0.00    +0.000 C 
BRANCH  10  11
ATOM     11  C   UNL     1       3.257   2.186  19.484  0.00  0.00    +0.000 C 
BRANCH  11  13
ATOM     12  C   UNL     1       1.260   2.954  20.806  0.00  0.00    +0.000 C 
ATOM     13  C   UNL     1       1.749   2.057  19.683  0.00  0.00    +0.000 C 
ENDBRANCH  11  13
ENDBRANCH  10  11
ENDBRANCH   9  10
ENDBRANCH   3   9
ENDBRANCH   1   7
BRANCH   1  14
ATOM     14  C   UNL     1       6.912   6.167  16.943  0.00  0.00    +0.000 C 
BRANCH  14  15
ATOM     15  C   UNL     1       7.568   5.911  18.318  0.00  0.00    +0.000 C 
ATOM     16  O   UNL     1       7.500   4.822  18.894  0.00  0.00    +0.000 OA
ATOM     17  N   UNL     1       8.233   6.962  18.922  0.00  0.00    +0.000 N 
ATOM     18  C   UNL     1       8.394   8.206  18.372  0.00  0.00    +0.000 C 
ATOM     19  O   UNL     1       7.969   8.528  17.272  0.00  0.00    +0.000 OA
ATOM     20  N   UNL     1       9.049   9.108  19.164  0.00  0.00    +0.000 N 
ATOM     21  H   UNL     1       8.623   6.758  19.825  0.00  0.00    +0.000 HD
ATOM     22  H   UNL     1       9.498   8.829  20.027  0.00  0.00    +0.000 HD
BRANCH  20  23
ATOM     23  C   UNL     1       9.226  10.466  18.668  0.00  0.00    +0.000 C 
ATOM     24  C   UNL     1       9.677  11.430  19.751  0.00  0.00    +0.000 C 
ENDBRANCH  20  23
ENDBRANCH  14  15
ENDBRANCH   1  14
TORSDOF 8
ENDMDL
MODEL 7
REMARK VINA RESULT:      -6.6      1.676      2.172
REMARK  Name = 
REMARK  10 active torsions:
REMARK  status: ('A' for Active; 'I' for Inactive)
REMARK    1  A    between atoms: C_1  and  C_2
REMARK    2  A    between atoms: C_2  and  C_3
REMARK    3  A    between atoms: C_3  and  C_4
REMARK    4  A    between atoms: C_4  and  O_5
REMARK    5  A    between atoms: O_5  and  C_6
REMARK    6  A    between atoms: C_10  and  N_11
REMARK    7  A    between atoms: N_11  and  C_12
REMARK    8  A    between atoms: C_12  and  C_13
REMARK    9  A    between atoms: N_18  and  C_19
REMARK   10  A    between atoms: C_19  and  C_20
REMARK                            x       y       z     vdW  Elec       q    Type
REMARK                         _______ _______ _______ _____ _____    ______ ____
ROOT
ATOM      1  N   UNL     1       5.672   6.210  16.513  0.00  0.00    +0.000 N 
ATOM      2  H   UNL     1       5.488   6.671  15.622  0.00  0.00    +0.000 HD
ENDROOT
BRANCH   1   7
ATOM      3  C   UNL     1       2.570   5.227  18.348  0.00  0.00    +0.000 A 
ATOM      4  C   UNL     1       2.372   3.945  17.825  0.00  0.00    +0.000 A 
ATOM      5  C   UNL     1       3.282   3.414  16.916  0.00  0.00    +0.000 A 
ATOM      6  C   UNL     1       4.384   4.170  16.512  0.00  0.00    +0.000 A 
ATOM      7  C   UNL     1       4.611   5.456  17.021  0.00  0.00    +0.000 A 
ATOM      8  C   UNL     1       3.689   5.969  17.942  0.00  0.00    +0.000 A 
BRANCH   3   9
ATOM      9  O   UNL     1       1.611   5.649  19.232  0.00  0.00    +0.000 OA
BRANCH   9  10
ATOM     10  C   UNL     1       1.814   5.266  20.593  0.00  0.00    +0.000 C 
BRANCH  10  11
ATOM     11  C   UNL     1       1.247   3.869  20.802  0.00  0.00    +0.000 C 
BRANCH  11  13
ATOM     12  C   UNL     1       3.291   2.424  21.049  0.00  0.00    +0.000 C 
ATOM     13  C   UNL     1       2.120   3.070  21.766  0.00  0.00    +0.000 C 
ENDBRANCH  11  13
ENDBRANCH  10  11
ENDBRANCH   9  10
ENDBRANCH   3   9
ENDBRANCH   1   7
BRANCH   1  14
ATOM     14  C   UNL     1       7.032   5.662  16.577  0.00  0.00    +0.000 C 
BRANCH  14  15
ATOM     15  C   UNL     1       7.495   5.490  18.040  0.00  0.00    +0.000 C 
ATOM     16  O   UNL     1       7.404   4.417  18.644  0.00  0.00    +0.000 OA
ATOM     17  N   UNL     1       8.006   6.597  18.691  0.00  0.00    +0.000 N 
ATOM     18  C   UNL     1       8.176   7.830  18.121  0.00  0.00    +0.000 C 
ATOM     19  O   UNL     1       7.899   8.091  16.959  0.00  0.00    +0.000 OA
ATOM     20  N   UNL     1       8.659   8.795  18.961  0.00  0.00    +0.000 N 
ATOM     21  H   UNL     1       8.272   6.445  19.648  0.00  0.00    +0.000 HD
ATOM     22  H   UNL     1       8.993   8.571  19.890  0.00  0.00    +0.000 HD
BRANCH  20  23
ATOM     23  C   UNL     1       8.831  10.144  18.442  0.00  0.00    +0.000 C 
ATOM     24  C   UNL     1       9.904  10.924  19.182  0.00  0.00    +0.000 C 
ENDBRANCH  20  23
ENDBRANCH  14  15
ENDBRANCH   1  14
TORSDOF 8
ENDMDL
MODEL 8
REMARK VINA RESULT:      -6.6      2.846      4.981
REMARK  Name = 
REMARK  10 active torsions:
REMARK  status: ('A' for Active; 'I' for Inactive)
REMARK    1  A    between atoms: C_1  and  C_2
REMARK    2  A    between atoms: C_2  and  C_3
REMARK    3  A    between atoms: C_3  and  C_4
REMARK    4  A    between atoms: C_4  and  O_5
REMARK    5  A    between atoms: O_5  and  C_6
REMARK    6  A    between atoms: C_10  and  N_11
REMARK    7  A    between atoms: N_11  and  C_12
REMARK    8  A    between atoms: C_12  and  C_13
REMARK    9  A    between atoms: N_18  and  C_19
REMARK   10  A    between atoms: C_19  and  C_20
REMARK                            x       y       z     vdW  Elec       q    Type
REMARK                         _______ _______ _______ _____ _____    ______ ____
ROOT
ATOM      1  N   UNL     1       5.245   3.543  18.947  0.00  0.00    +0.000 N 
ATOM      2  H   UNL     1       5.899   2.969  19.480  0.00  0.00    +0.000 HD
ENDROOT
BRANCH   1   7
ATOM      3  C   UNL     1       1.943   4.749  20.209  0.00  0.00    +0.000 A 
ATOM      4  C   UNL     1       1.226   3.549  20.205  0.00  0.00    +0.000 A 
ATOM      5  C   UNL     1       1.852   2.364  19.830  0.00  0.00    +0.000 A 
ATOM      6  C   UNL     1       3.192   2.377  19.441  0.00  0.00    +0.000 A 
ATOM      7  C   UNL     1       3.938   3.563  19.438  0.00  0.00    +0.000 A 
ATOM      8  C   UNL     1       3.292   4.745  19.827  0.00  0.00    +0.000 A 
BRANCH   3   9
ATOM      9  O   UNL     1       1.226   5.853  20.593  0.00  0.00    +0.000 OA
BRANCH   9  10
ATOM     10  C   UNL     1       1.970   7.068  20.692  0.00  0.00    +0.000 C 
BRANCH  10  11
ATOM     11  C   UNL     1       2.005   7.737  19.324  0.00  0.00    +0.000 C 
BRANCH  11  13
ATOM     12  C   UNL     1       1.228   9.721  17.988  0.00  0.00    +0.000 C 
ATOM     13  C   UNL     1       1.304   9.093  19.368  0.00  0.00    +0.000 C 
ENDBRANCH  11  13
ENDBRANCH  10  11
ENDBRANCH   9  10
ENDBRANCH   3   9
ENDBRANCH   1   7
BRANCH   1  14
ATOM     14  C   UNL     1       5.859   4.798  18.497  0.00  0.00    +0.000 C 
BRANCH  14  15
ATOM     15  C   UNL     1       7.263   4.549  17.902  0.00  0.00    +0.000 C 
ATOM     16  O   UNL     1       8.289   4.580  18.587  0.00  0.00    +0.000 OA
ATOM     17  N   UNL     1       7.356   4.307  16.544  0.00  0.00    +0.000 N 
ATOM     18  C   UNL     1       6.289   4.226  15.690  0.00  0.00    +0.000 C 
ATOM     19  O   UNL     1       5.123   4.354  16.035  0.00  0.00    +0.000 OA
ATOM     20  N   UNL     1       6.614   4.021  14.377  0.00  0.00    +0.000 N 
ATOM     21  H   UNL     1       8.289   4.175  16.197  0.00  0.00    +0.000 HD
ATOM     22  H   UNL     1       7.561   3.808  14.092  0.00  0.00    +0.000 HD
BRANCH  20  23
ATOM     23  C   UNL     1       5.538   3.964  13.397  0.00  0.00    +0.000 C 
ATOM     24  C   UNL     1       5.926   3.195  12.147  0.00  0.00    +0.000 C 
ENDBRANCH  20  23
ENDBRANCH  14  15
ENDBRANCH   1  14
TORSDOF 8
ENDMDL
MODEL 9
REMARK VINA RESULT:      -6.6      3.051      4.982
REMARK  Name = 
REMARK  10 active torsions:
REMARK  status: ('A' for Active; 'I' for Inactive)
REMARK    1  A    between atoms: C_1  and  C_2
REMARK    2  A    between atoms: C_2  and  C_3
REMARK    3  A    between atoms: C_3  and  C_4
REMARK    4  A    between atoms: C_4  and  O_5
REMARK    5  A    between atoms: O_5  and  C_6
REMARK    6  A    between atoms: C_10  and  N_11
REMARK    7  A    between atoms: N_11  and  C_12
REMARK    8  A    between atoms: C_12  and  C_13
REMARK    9  A    between atoms: N_18  and  C_19
REMARK   10  A    between atoms: C_19  and  C_20
REMARK                            x       y       z     vdW  Elec       q    Type
REMARK                         _______ _______ _______ _____ _____    ______ ____
ROOT
ATOM      1  N   UNL     1       5.120   6.803  16.502  0.00  0.00    +0.000 N 
ATOM      2  H   UNL     1       5.058   7.777  16.204  0.00  0.00    +0.000 HD
ENDROOT
BRANCH   1   7
ATOM      3  C   UNL     1       3.570   4.956  19.355  0.00  0.00    +0.000 A 
ATOM      4  C   UNL     1       2.615   5.893  19.763  0.00  0.00    +0.000 A 
ATOM      5  C   UNL     1       2.471   7.090  19.068  0.00  0.00    +0.000 A 
ATOM      6  C   UNL     1       3.292   7.363  17.973  0.00  0.00    +0.000 A 
ATOM      7  C   UNL     1       4.257   6.443  17.539  0.00  0.00    +0.000 A 
ATOM      8  C   UNL     1       4.380   5.240  18.246  0.00  0.00    +0.000 A 
BRANCH   3   9
ATOM      9  O   UNL     1       3.626   3.816  20.114  0.00  0.00    +0.000 OA
BRANCH   9  10
ATOM     10  C   UNL     1       4.167   2.667  19.461  0.00  0.00    +0.000 C 
BRANCH  10  11
ATOM     11  C   UNL     1       3.040   1.924  18.757  0.00  0.00    +0.000 C 
BRANCH  11  13
ATOM     12  C   UNL     1       0.625   2.625  18.707  0.00  0.00    +0.000 C 
ATOM     13  C   UNL     1       1.741   2.035  19.551  0.00  0.00    +0.000 C 
ENDBRANCH  11  13
ENDBRANCH  10  11
ENDBRANCH   9  10
ENDBRANCH   3   9
ENDBRANCH   1   7
BRANCH   1  14
ATOM     14  C   UNL     1       5.287   5.891  15.364  0.00  0.00    +0.000 C 
BRANCH  14  15
ATOM     15  C   UNL     1       6.744   5.389  15.263  0.00  0.00    +0.000 C 
ATOM     16  O   UNL     1       7.652   5.838  15.969  0.00  0.00    +0.000 OA
ATOM     17  N   UNL     1       7.029   4.414  14.324  0.00  0.00    +0.000 N 
ATOM     18  C   UNL     1       6.105   3.826  13.503  0.00  0.00    +0.000 C 
ATOM     19  O   UNL     1       4.911   4.093  13.513  0.00  0.00    +0.000 OA
ATOM     20  N   UNL     1       6.613   2.915  12.619  0.00  0.00    +0.000 N 
ATOM     21  H   UNL     1       7.993   4.135  14.277  0.00  0.00    +0.000 HD
ATOM     22  H   UNL     1       7.575   2.606  12.670  0.00  0.00    +0.000 HD
BRANCH  20  23
ATOM     23  C   UNL     1       5.701   2.273  11.683  0.00  0.00    +0.000 C 
ATOM     24  C   UNL     1       6.320   1.069  10.996  0.00  0.00    +0.000 C 
ENDBRANCH  20  23
ENDBRANCH  14  15
ENDBRANCH   1  14
TORSDOF 8
ENDMDL
