MODEL 1
REMARK VINA RESULT:      -7.9      0.000      0.000
REMARK  Name = 
REMARK  5 active torsions:
REMARK  status: ('A' for Active; 'I' for Inactive)
REMARK    1  A    between atoms: C_1  and  C_2
REMARK    2  A    between atoms: C_2  and  O_3
REMARK    3  A    between atoms: O_3  and  C_4
REMARK    4  A    between atoms: C_4  and  C_6
REMARK    5  A    between atoms: C_6  and  N_7
REMARK                            x       y       z     vdW  Elec       q    Type
REMARK                         _______ _______ _______ _____ _____    ______ ____
ROOT
ATOM      1  N   UNL     1       5.064   4.577  18.430  0.00  0.00    +0.000 N 
ATOM      2  C   UNL     1       4.357   3.689  19.248  0.00  0.00    +0.000 C 
ATOM      3  O   UNL     1       4.785   2.627  19.685  0.00  0.00    +0.000 OA
ATOM      4  C   UNL     1       2.921   4.332  19.531  0.00  0.00    +0.000 C 
ATOM      5  O   UNL     1       2.653   4.629  20.895  0.00  0.00    +0.000 OA
ATOM      6  C   UNL     1       2.406   3.453  21.658  0.00  0.00    +0.000 C 
ATOM      7  C   UNL     1       1.272   2.652  21.045  0.00  0.00    +0.000 C 
ATOM      8  C   UNL     1       1.554   2.416  19.572  0.00  0.00    +0.000 C 
ATOM      9  O   UNL     1       1.836   3.648  18.917  0.00  0.00    +0.000 OA
ATOM     10  C   UNL     1       3.075   5.653  18.807  0.00  0.00    +0.000 A 
ATOM     11  C   UNL     1       2.172   6.706  18.715  0.00  0.00    +0.000 A 
ATOM     12  C   UNL     1       2.561   7.847  18.010  0.00  0.00    +0.000 A 
ATOM     13 BR   UNL     1       1.366   9.305  17.860  0.00  0.00    +0.000 Br
ATOM     14  C   UNL     1       3.826   7.934  17.410  0.00  0.00    +0.000 A 
ATOM     15  C   UNL     1       4.729   6.874  17.507  0.00  0.00    +0.000 A 
ATOM     16  C   UNL     1       4.331   5.743  18.200  0.00  0.00    +0.000 A 
ENDROOT
BRANCH   1  17
ATOM     17  C   UNL     1       6.469   4.404  18.120  0.00  0.00    +0.000 C 
BRANCH  17  18
ATOM     18  C   UNL     1       6.784   4.545  16.634  0.00  0.00    +0.000 C 
ATOM     19  O   UNL     1       7.634   5.312  16.198  0.00  0.00    +0.000 OA
BRANCH  18  20
ATOM     20  O   UNL     1       5.966   3.773  15.867  0.00  0.00    +0.000 OA
BRANCH  20  22
ATOM     21  C   UNL     1       6.080   3.753  13.491  0.00  0.00    +0.000 C 
ATOM     22  C   UNL     1       5.425   4.399  14.698  0.00  0.00    +0.000 C 
ENDBRANCH  20  22
ENDBRANCH  18  20
ENDBRANCH  17  18
ENDBRANCH   1  17
TORSDOF 4
ENDMDL
MODEL 2
REMARK VINA RESULT:      -7.7      1.381      1.949
REMARK  Name = 
REMARK  5 active torsions:
REMARK  status: ('A' for Active; 'I' for Inactive)
REMARK    1  A    between atoms: C_1  and  C_2
REMARK    2  A    between atoms: C_2  and  O_3
REMARK    3  A    between atoms: O_3  and  C_4
REMARK    4  A    between atoms: C_4  and  C_6
REMARK    5  A    between atoms: C_6  and  N_7
REMARK                            x       y       z     vdW  Elec       q    Type
REMARK                         _______ _______ _______ _____ _____    ______ ____
ROOT
ATOM      1  N   UNL     1       4.375   4.659  18.036  0.00  0.00    +0.000 N 
ATOM      2  C   UNL     1       3.783   3.758  18.928  0.00  0.00    +0.000 C 
ATOM      3  O   UNL     1       4.193   2.631  19.180  0.00  0.00    +0.000 OA
ATOM      4  C   UNL     1       2.512   4.481  19.574  0.00  0.00    +0.000 C 
ATOM      5  O   UNL     1       2.579   4.674  20.980  0.00  0.00    +0.000 OA
ATOM      6  C   UNL     1       2.395   3.456  21.694  0.00  0.00    +0.000 C 
ATOM      7  C   UNL     1       1.082   2.804  21.298  0.00  0.00    +0.000 C 
ATOM      8  C   UNL     1       1.011   2.682  19.787  0.00  0.00    +0.000 C 
ATOM      9  O   UNL     1       1.258   3.942  19.175  0.00  0.00    +0.000 OA
ATOM     10  C   UNL     1       2.629   5.848  18.929  0.00  0.00    +0.000 A 
ATOM     11  C   UNL     1       1.833   6.971  19.120  0.00  0.00    +0.000 A 
ATOM     12  C   UNL     1       2.165   8.138  18.427  0.00  0.00    +0.000 A 
ATOM     13 BR   UNL     1       1.112   9.692  18.656  0.00  0.00    +0.000 Br
ATOM     14  C   UNL     1       3.270   8.180  17.564  0.00  0.00    +0.000 A 
ATOM     15  C   UNL     1       4.066   7.049  17.378  0.00  0.00    +0.000 A 
ATOM     16  C   UNL     1       3.724   5.895  18.062  0.00  0.00    +0.000 A 
ENDROOT
BRANCH   1  17
ATOM     17  C   UNL     1       5.653   4.407  17.404  0.00  0.00    +0.000 C 
BRANCH  17  18
ATOM     18  C   UNL     1       6.841   4.939  18.201  0.00  0.00    +0.000 C 
ATOM     19  O   UNL     1       6.916   4.867  19.422  0.00  0.00    +0.000 OA
BRANCH  18  20
ATOM     20  O   UNL     1       7.754   5.555  17.400  0.00  0.00    +0.000 OA
BRANCH  20  22
ATOM     21  C   UNL     1       7.884   7.886  17.854  0.00  0.00    +0.000 C 
ATOM     22  C   UNL     1       7.375   6.835  16.884  0.00  0.00    +0.000 C 
ENDBRANCH  20  22
ENDBRANCH  18  20
ENDBRANCH  17  18
ENDBRANCH   1  17
TORSDOF 4
ENDMDL
MODEL 3
REMARK VINA RESULT:      -7.6      1.208      1.986
REMARK  Name = 
REMARK  5 active torsions:
REMARK  status: ('A' for Active; 'I' for Inactive)
REMARK    1  A    between atoms: C_1  and  C_2
REMARK    2  A    between atoms: C_2  and  O_3
REMARK    3  A    between atoms: O_3  and  C_4
REMARK    4  A    between atoms: C_4  and  C_6
REMARK    5  A    between atoms: C_6  and  N_7
REMARK                            x       y       z     vdW  Elec       q    Type
REMARK                         _______ _______ _______ _____ _____    ______ ____
ROOT
ATOM      1  N   UNL     1       4.454   4.302  17.472  0.00  0.00    +0.000 N 
ATOM      2  C   UNL     1       3.806   3.486  18.405  0.00  0.00    +0.000 C 
ATOM      3  O   UNL     1       4.091   2.319  18.651  0.00  0.00    +0.000 OA
ATOM      4  C   UNL     1       2.667   4.361  19.106  0.00  0.00    +0.000 C 
ATOM      5  O   UNL     1       2.831   4.554  20.504  0.00  0.00    +0.000 OA
ATOM      6  C   UNL     1       2.539   3.373  21.244  0.00  0.00    +0.000 C 
ATOM      7  C   UNL     1       1.139   2.881  20.924  0.00  0.00    +0.000 C 
ATOM      8  C   UNL     1       0.974   2.757  19.420  0.00  0.00    +0.000 C 
ATOM      9  O   UNL     1       1.338   3.974  18.779  0.00  0.00    +0.000 OA
ATOM     10  C   UNL     1       2.913   5.698  18.437  0.00  0.00    +0.000 A 
ATOM     11  C   UNL     1       2.268   6.910  18.653  0.00  0.00    +0.000 A 
ATOM     12  C   UNL     1       2.701   8.024  17.929  0.00  0.00    +0.000 A 
ATOM     13 BR   UNL     1       1.855   9.695  18.190  0.00  0.00    +0.000 Br
ATOM     14  C   UNL     1       3.756   7.927  17.010  0.00  0.00    +0.000 A 
ATOM     15  C   UNL     1       4.400   6.707  16.798  0.00  0.00    +0.000 A 
ATOM     16  C   UNL     1       3.959   5.607  17.514  0.00  0.00    +0.000 A 
ENDROOT
BRANCH   1  17
ATOM     17  C   UNL     1       5.659   3.893  16.779  0.00  0.00    +0.000 C 
BRANCH  17  18
ATOM     18  C   UNL     1       6.939   4.401  17.434  0.00  0.00    +0.000 C 
ATOM     19  O   UNL     1       8.036   4.353  16.891  0.00  0.00    +0.000 OA
BRANCH  18  20
ATOM     20  O   UNL     1       6.719   4.840  18.705  0.00  0.00    +0.000 OA
BRANCH  20  22
ATOM     21  C   UNL     1       7.760   6.949  18.344  0.00  0.00    +0.000 C 
ATOM     22  C   UNL     1       7.706   5.727  19.243  0.00  0.00    +0.000 C 
ENDBRANCH  20  22
ENDBRANCH  18  20
ENDBRANCH  17  18
ENDBRANCH   1  17
TORSDOF 4
ENDMDL
MODEL 4
REMARK VINA RESULT:      -7.6      3.169      4.710
REMARK  Name = 
REMARK  5 active torsions:
REMARK  status: ('A' for Active; 'I' for Inactive)
REMARK    1  A    between atoms: C_1  and  C_2
REMARK    2  A    between atoms: C_2  and  O_3
REMARK    3  A    between atoms: O_3  and  C_4
REMARK    4  A    between atoms: C_4  and  C_6
REMARK    5  A    between atoms: C_6  and  N_7
REMARK                            x       y       z     vdW  Elec       q    Type
REMARK                         _______ _______ _______ _____ _____    ______ ____
ROOT
ATOM      1  N   UNL     1       6.650   5.287  17.835  0.00  0.00    +0.000 N 
ATOM      2  C   UNL     1       5.462   5.068  18.539  0.00  0.00    +0.000 C 
ATOM      3  O   UNL     1       5.252   5.390  19.703  0.00  0.00    +0.000 OA
ATOM      4  C   UNL     1       4.431   4.362  17.541  0.00  0.00    +0.000 C 
ATOM      5  O   UNL     1       3.254   5.109  17.264  0.00  0.00    +0.000 OA
ATOM      6  C   UNL     1       2.356   5.119  18.369  0.00  0.00    +0.000 C 
ATOM      7  C   UNL     1       2.013   3.699  18.784  0.00  0.00    +0.000 C 
ATOM      8  C   UNL     1       3.292   2.909  18.999  0.00  0.00    +0.000 C 
ATOM      9  O   UNL     1       4.134   3.008  17.857  0.00  0.00    +0.000 OA
ATOM     10  C   UNL     1       5.260   4.347  16.272  0.00  0.00    +0.000 A 
ATOM     11  C   UNL     1       4.905   3.895  15.007  0.00  0.00    +0.000 A 
ATOM     12  C   UNL     1       5.843   4.018  13.978  0.00  0.00    +0.000 A 
ATOM     13 BR   UNL     1       5.405   3.418  12.239  0.00  0.00    +0.000 Br
ATOM     14  C   UNL     1       7.106   4.581  14.211  0.00  0.00    +0.000 A 
ATOM     15  C   UNL     1       7.456   5.033  15.484  0.00  0.00    +0.000 A 
ATOM     16  C   UNL     1       6.524   4.900  16.499  0.00  0.00    +0.000 A 
ENDROOT
BRANCH   1  17
ATOM     17  C   UNL     1       7.744   6.070  18.372  0.00  0.00    +0.000 C 
BRANCH  17  18
ATOM     18  C   UNL     1       7.708   7.535  17.949  0.00  0.00    +0.000 C 
ATOM     19  O   UNL     1       6.989   7.957  17.051  0.00  0.00    +0.000 OA
BRANCH  18  20
ATOM     20  O   UNL     1       8.614   8.284  18.637  0.00  0.00    +0.000 OA
BRANCH  20  22
ATOM     21  C   UNL     1       9.416  10.387  19.406  0.00  0.00    +0.000 C 
ATOM     22  C   UNL     1       8.675   9.672  18.291  0.00  0.00    +0.000 C 
ENDBRANCH  20  22
ENDBRANCH  18  20
ENDBRANCH  17  18
ENDBRANCH   1  17
TORSDOF 4
ENDMDL
MODEL 5
REMARK VINA RESULT:      -7.5      1.005      1.845
REMARK  Name = 
REMARK  5 active torsions:
REMARK  status: ('A' for Active; 'I' for Inactive)
REMARK    1  A    between atoms: C_1  and  C_2
REMARK    2  A    between atoms: C_2  and  O_3
REMARK    3  A    between atoms: O_3  and  C_4
REMARK    4  A    between atoms: C_4  and  C_6
REMARK    5  A    between atoms: C_6  and  N_7
REMARK                            x       y       z     vdW  Elec       q    Type
REMARK                         _______ _______ _______ _____ _____    ______ ____
ROOT
ATOM      1  N   UNL     1       4.935   4.812  18.497  0.00  0.00    +0.000 N 
ATOM      2  C   UNL     1       4.281   3.879  19.308  0.00  0.00    +0.000 C 
ATOM      3  O   UNL     1       4.769   2.840  19.736  0.00  0.00    +0.000 OA
ATOM      4  C   UNL     1       2.810   4.436  19.596  0.00  0.00    +0.000 C 
ATOM      5  O   UNL     1       2.526   4.706  20.962  0.00  0.00    +0.000 OA
ATOM      6  C   UNL     1       2.347   3.512  21.716  0.00  0.00    +0.000 C 
ATOM      7  C   UNL     1       1.260   2.652  21.096  0.00  0.00    +0.000 C 
ATOM      8  C   UNL     1       1.555   2.445  19.621  0.00  0.00    +0.000 C 
ATOM      9  O   UNL     1       1.765   3.696  18.977  0.00  0.00    +0.000 OA
ATOM     10  C   UNL     1       2.888   5.770  18.882  0.00  0.00    +0.000 A 
ATOM     11  C   UNL     1       1.926   6.770  18.799  0.00  0.00    +0.000 A 
ATOM     12  C   UNL     1       2.249   7.937  18.103  0.00  0.00    +0.000 A 
ATOM     13 BR   UNL     1       0.972   9.326  17.965  0.00  0.00    +0.000 Br
ATOM     14  C   UNL     1       3.506   8.101  17.504  0.00  0.00    +0.000 A 
ATOM     15  C   UNL     1       4.469   7.094  17.592  0.00  0.00    +0.000 A 
ATOM     16  C   UNL     1       4.136   5.936  18.276  0.00  0.00    +0.000 A 
ENDROOT
BRANCH   1  17
ATOM     17  C   UNL     1       6.347   4.723  18.185  0.00  0.00    +0.000 C 
BRANCH  17  18
ATOM     18  C   UNL     1       6.670   5.047  16.730  0.00  0.00    +0.000 C 
ATOM     19  O   UNL     1       6.319   4.342  15.791  0.00  0.00    +0.000 OA
BRANCH  18  20
ATOM     20  O   UNL     1       7.444   6.162  16.619  0.00  0.00    +0.000 OA
BRANCH  20  22
ATOM     21  C   UNL     1       7.872   8.273  17.629  0.00  0.00    +0.000 C 
ATOM     22  C   UNL     1       7.850   6.771  17.849  0.00  0.00    +0.000 C 
ENDBRANCH  20  22
ENDBRANCH  18  20
ENDBRANCH  17  18
ENDBRANCH   1  17
TORSDOF 4
ENDMDL
MODEL 6
REMARK VINA RESULT:      -7.4      1.050      1.138
REMARK  Name = 
REMARK  5 active torsions:
REMARK  status: ('A' for Active; 'I' for Inactive)
REMARK    1  A    between atoms: C_1  and  C_2
REMARK    2  A    between atoms: C_2  and  O_3
REMARK    3  A    between atoms: O_3  and  C_4
REMARK    4  A    between atoms: C_4  and  C_6
REMARK    5  A    between atoms: C_6  and  N_7
REMARK                            x       y       z     vdW  Elec       q    Type
REMARK                         _______ _______ _______ _____ _____    ______ ____
ROOT
ATOM      1  N   UNL     1       4.352   4.117  17.426  0.00  0.00    +0.000 N 
ATOM      2  C   UNL     1       3.713   3.335  18.394  0.00  0.00    +0.000 C 
ATOM      3  O   UNL     1       3.960   2.159  18.638  0.00  0.00    +0.000 OA
ATOM      4  C   UNL     1       2.641   4.261  19.134  0.00  0.00    +0.000 C 
ATOM      5  O   UNL     1       2.872   4.458  20.522  0.00  0.00    +0.000 OA
ATOM      6  C   UNL     1       2.565   3.295  21.284  0.00  0.00    +0.000 C 
ATOM      7  C   UNL     1       1.134   2.858  21.029  0.00  0.00    +0.000 C 
ATOM      8  C   UNL     1       0.899   2.730  19.535  0.00  0.00    +0.000 C 
ATOM      9  O   UNL     1       1.285   3.926  18.868  0.00  0.00    +0.000 OA
ATOM     10  C   UNL     1       2.911   5.583  18.443  0.00  0.00    +0.000 A 
ATOM     11  C   UNL     1       2.326   6.821  18.675  0.00  0.00    +0.000 A 
ATOM     12  C   UNL     1       2.772   7.911  17.923  0.00  0.00    +0.000 A 
ATOM     13 BR   UNL     1       2.005   9.617  18.204  0.00  0.00    +0.000 Br
ATOM     14  C   UNL     1       3.782   7.764  16.960  0.00  0.00    +0.000 A 
ATOM     15  C   UNL     1       4.366   6.517  16.733  0.00  0.00    +0.000 A 
ATOM     16  C   UNL     1       3.912   5.442  17.477  0.00  0.00    +0.000 A 
ENDROOT
BRANCH   1  17
ATOM     17  C   UNL     1       5.508   3.654  16.686  0.00  0.00    +0.000 C 
BRANCH  17  18
ATOM     18  C   UNL     1       6.801   4.366  17.071  0.00  0.00    +0.000 C 
ATOM     19  O   UNL     1       7.161   4.525  18.232  0.00  0.00    +0.000 OA
BRANCH  18  20
ATOM     20  O   UNL     1       7.455   4.855  15.981  0.00  0.00    +0.000 OA
BRANCH  20  22
ATOM     21  C   UNL     1       7.706   5.250  13.649  0.00  0.00    +0.000 C 
ATOM     22  C   UNL     1       6.844   4.595  14.712  0.00  0.00    +0.000 C 
ENDBRANCH  20  22
ENDBRANCH  18  20
ENDBRANCH  17  18
ENDBRANCH   1  17
TORSDOF 4
ENDMDL
MODEL 7
REMARK VINA RESULT:      -7.3      1.884      2.694
REMARK  Name = 
REMARK  5 active torsions:
REMARK  status: ('A' for Active; 'I' for Inactive)
REMARK    1  A    between atoms: C_1  and  C_2
REMARK    2  A    between atoms: C_2  and  O_3
REMARK    3  A    between atoms: O_3  and  C_4
REMARK    4  A    between atoms: C_4  and  C_6
REMARK    5  A    between atoms: C_6  and  N_7
REMARK                            x       y       z     vdW  Elec       q    Type
REMARK                         _______ _______ _______ _____ _____    ______ ____
ROOT
ATOM      1  N   UNL     1       4.236   5.810  16.903  0.00  0.00    +0.000 N 
ATOM      2  C   UNL     1       4.260   4.458  17.264  0.00  0.00    +0.000 C 
ATOM      3  O   UNL     1       4.920   3.584  16.712  0.00  0.00    +0.000 OA
ATOM      4  C   UNL     1       3.307   4.280  18.535  0.00  0.00    +0.000 C 
ATOM      5  O   UNL     1       3.959   3.837  19.718  0.00  0.00    +0.000 OA
ATOM      6  C   UNL     1       4.315   2.460  19.646  0.00  0.00    +0.000 C 
ATOM      7  C   UNL     1       3.092   1.612  19.351  0.00  0.00    +0.000 C 
ATOM      8  C   UNL     1       2.378   2.157  18.126  0.00  0.00    +0.000 C 
ATOM      9  O   UNL     1       2.116   3.546  18.283  0.00  0.00    +0.000 OA
ATOM     10  C   UNL     1       2.898   5.721  18.763  0.00  0.00    +0.000 A 
ATOM     11  C   UNL     1       2.095   6.249  19.766  0.00  0.00    +0.000 A 
ATOM     12  C   UNL     1       1.887   7.630  19.784  0.00  0.00    +0.000 A 
ATOM     13 BR   UNL     1       0.802   8.394  21.132  0.00  0.00    +0.000 Br
ATOM     14  C   UNL     1       2.470   8.465  18.819  0.00  0.00    +0.000 A 
ATOM     15  C   UNL     1       3.276   7.928  17.814  0.00  0.00    +0.000 A 
ATOM     16  C   UNL     1       3.470   6.557  17.799  0.00  0.00    +0.000 A 
ENDROOT
BRANCH   1  17
ATOM     17  C   UNL     1       5.124   6.367  15.903  0.00  0.00    +0.000 C 
BRANCH  17  18
ATOM     18  C   UNL     1       6.587   6.387  16.333  0.00  0.00    +0.000 C 
ATOM     19  O   UNL     1       7.470   5.777  15.741  0.00  0.00    +0.000 OA
BRANCH  18  20
ATOM     20  O   UNL     1       6.769   7.100  17.480  0.00  0.00    +0.000 OA
BRANCH  20  22
ATOM     21  C   UNL     1       7.084   5.595  19.294  0.00  0.00    +0.000 C 
ATOM     22  C   UNL     1       7.763   6.599  18.380  0.00  0.00    +0.000 C 
ENDBRANCH  20  22
ENDBRANCH  18  20
ENDBRANCH  17  18
ENDBRANCH   1  17
TORSDOF 4
ENDMDL
MODEL 8
REMARK VINA RESULT:      -7.3      2.987      4.415
REMARK  Name = 
REMARK  5 active torsions:
REMARK  status: ('A' for Active; 'I' for Inactive)
REMARK    1  A    between atoms: C_1  and  C_2
REMARK    2  A    between atoms: C_2  and  O_3
REMARK    3  A    between atoms: O_3  and  C_4
REMARK    4  A    between atoms: C_4  and  C_6
REMARK    5  A    between atoms: C_6  and  N_7
REMARK                            x       y       z     vdW  Elec       q    Type
REMARK                         _______ _______ _______ _____ _____    ______ ____
ROOT
ATOM      1  N   UNL     1       5.646   5.338  17.964  0.00  0.00    +0.000 N 
ATOM      2  C   UNL     1       4.530   4.687  18.500  0.00  0.00    +0.000 C 
ATOM      3  O   UNL     1       4.055   4.884  19.613  0.00  0.00    +0.000 OA
ATOM      4  C   UNL     1       3.978   3.679  17.389  0.00  0.00    +0.000 C 
ATOM      5  O   UNL     1       2.662   3.955  16.927  0.00  0.00    +0.000 OA
ATOM      6  C   UNL     1       1.675   3.612  17.894  0.00  0.00    +0.000 C 
ATOM      7  C   UNL     1       1.814   2.156  18.299  0.00  0.00    +0.000 C 
ATOM      8  C   UNL     1       3.247   1.878  18.715  0.00  0.00    +0.000 C 
ATOM      9  O   UNL     1       4.150   2.303  17.700  0.00  0.00    +0.000 OA
ATOM     10  C   UNL     1       4.927   3.995  16.251  0.00  0.00    +0.000 A 
ATOM     11  C   UNL     1       4.944   3.475  14.962  0.00  0.00    +0.000 A 
ATOM     12  C   UNL     1       5.909   3.953  14.072  0.00  0.00    +0.000 A 
ATOM     13 BR   UNL     1       5.969   3.277  12.307  0.00  0.00    +0.000 Br
ATOM     14  C   UNL     1       6.836   4.931  14.463  0.00  0.00    +0.000 A 
ATOM     15  C   UNL     1       6.814   5.449  15.758  0.00  0.00    +0.000 A 
ATOM     16  C   UNL     1       5.859   4.963  16.636  0.00  0.00    +0.000 A 
ENDROOT
BRANCH   1  17
ATOM     17  C   UNL     1       6.294   6.452  18.627  0.00  0.00    +0.000 C 
BRANCH  17  18
ATOM     18  C   UNL     1       7.756   6.186  18.973  0.00  0.00    +0.000 C 
ATOM     19  O   UNL     1       8.147   5.139  19.475  0.00  0.00    +0.000 OA
BRANCH  18  20
ATOM     20  O   UNL     1       8.541   7.270  18.721  0.00  0.00    +0.000 OA
BRANCH  20  22
ATOM     21  C   UNL     1       8.525   9.605  18.270  0.00  0.00    +0.000 C 
ATOM     22  C   UNL     1       7.993   8.252  17.835  0.00  0.00    +0.000 C 
ENDBRANCH  20  22
ENDBRANCH  18  20
ENDBRANCH  17  18
ENDBRANCH   1  17
TORSDOF 4
ENDMDL
MODEL 9
REMARK VINA RESULT:      -7.2      1.451      4.693
REMARK  Name = 
REMARK  5 active torsions:
REMARK  status: ('A' for Active; 'I' for Inactive)
REMARK    1  A    between atoms: C_1  and  C_2
REMARK    2  A    between atoms: C_2  and  O_3
REMARK    3  A    between atoms: O_3  and  C_4
REMARK    4  A    between atoms: C_4  and  C_6
REMARK    5  A    between atoms: C_6  and  N_7
REMARK                            x       y       z     vdW  Elec       q    Type
REMARK                         _______ _______ _______ _____ _____    ______ ____
ROOT
ATOM      1  N   UNL     1       3.768   4.350  20.045  0.00  0.00    +0.000 N 
ATOM      2  C   UNL     1       4.719   3.942  19.104  0.00  0.00    +0.000 C 
ATOM      3  O   UNL     1       5.315   2.871  19.111  0.00  0.00    +0.000 OA
ATOM      4  C   UNL     1       4.849   5.103  18.013  0.00  0.00    +0.000 C 
ATOM      5  O   UNL     1       4.477   4.732  16.692  0.00  0.00    +0.000 OA
ATOM      6  C   UNL     1       5.449   3.890  16.081  0.00  0.00    +0.000 C 
ATOM      7  C   UNL     1       6.811   4.559  16.093  0.00  0.00    +0.000 C 
ATOM      8  C   UNL     1       7.145   5.008  17.504  0.00  0.00    +0.000 C 
ATOM      9  O   UNL     1       6.089   5.800  18.035  0.00  0.00    +0.000 OA
ATOM     10  C   UNL     1       3.794   6.064  18.522  0.00  0.00    +0.000 A 
ATOM     11  C   UNL     1       3.381   7.272  17.974  0.00  0.00    +0.000 A 
ATOM     12  C   UNL     1       2.356   7.970  18.618  0.00  0.00    +0.000 A 
ATOM     13 BR   UNL     1       1.759   9.618  17.908  0.00  0.00    +0.000 Br
ATOM     14  C   UNL     1       1.757   7.470  19.783  0.00  0.00    +0.000 A 
ATOM     15  C   UNL     1       2.176   6.255  20.328  0.00  0.00    +0.000 A 
ATOM     16  C   UNL     1       3.199   5.575  19.688  0.00  0.00    +0.000 A 
ENDROOT
BRANCH   1  17
ATOM     17  C   UNL     1       3.264   3.470  21.079  0.00  0.00    +0.000 C 
BRANCH  17  18
ATOM     18  C   UNL     1       1.942   2.800  20.715  0.00  0.00    +0.000 C 
ATOM     19  O   UNL     1       0.978   2.762  21.470  0.00  0.00    +0.000 OA
BRANCH  18  20
ATOM     20  O   UNL     1       1.997   2.201  19.493  0.00  0.00    +0.000 OA
BRANCH  20  22
ATOM     21  C   UNL     1       1.240   3.590  17.717  0.00  0.00    +0.000 C 
ATOM     22  C   UNL     1       0.879   2.431  18.629  0.00  0.00    +0.000 C 
ENDBRANCH  20  22
ENDBRANCH  18  20
ENDBRANCH  17  18
ENDBRANCH   1  17
TORSDOF 4
ENDMDL
