MODEL 1
REMARK VINA RESULT:      -6.9      0.000      0.000
REMARK  Name = 
REMARK  9 active torsions:
REMARK  status: ('A' for Active; 'I' for Inactive)
REMARK    1  A    between atoms: C_1  and  C_2
REMARK    2  A    between atoms: C_2  and  C_4
REMARK    3  A    between atoms: C_7  and  N_8
REMARK    4  A    between atoms: C_14  and  C_15
REMARK    5  A    between atoms: C_14  and  C_16
REMARK    6  A    between atoms: C_18  and  C_19
REMARK    7  A    between atoms: C_23  and  O_24
REMARK    8  A    between atoms: C_29  and  C_30
REMARK    9  A    between atoms: C_29  and  C_31
REMARK                            x       y       z     vdW  Elec       q    Type
REMARK                         _______ _______ _______ _____ _____    ______ ____
ROOT
ATOM      1  N   UNL     1      -2.029  13.288  20.227  0.00  0.00    +0.000 N 
ATOM      2  C   UNL     1      -0.606  13.468  20.397  0.00  0.00    +0.000 C 
ATOM      3  C   UNL     1       0.287  12.727  19.685  0.00  0.00    +0.000 C 
ATOM      4  C   UNL     1       1.759  12.987  19.808  0.00  0.00    +0.000 C 
ATOM      5  O   UNL     1       2.551  12.631  18.937  0.00  0.00    +0.000 OA
ATOM      6  C   UNL     1       2.259  13.738  21.019  0.00  0.00    +0.000 C 
ATOM      7  C   UNL     1       1.380  14.963  21.211  0.00  0.00    +0.000 C 
ATOM      8  C   UNL     1       1.463  15.896  19.979  0.00  0.00    +0.000 C 
ATOM      9  C   UNL     1       1.835  15.767  22.438  0.00  0.00    +0.000 C 
ATOM     10  C   UNL     1      -0.064  14.447  21.450  0.00  0.00    +0.000 C 
ATOM     11  C   UNL     1      -0.118  11.655  18.690  0.00  0.00    +0.000 C 
ATOM     12  C   UNL     1      -1.613  11.388  18.733  0.00  0.00    +0.000 C 
ATOM     13  C   UNL     1      -2.485  12.185  19.408  0.00  0.00    +0.000 C 
ATOM     14  C   UNL     1      -3.988  11.917  19.263  0.00  0.00    +0.000 C 
ATOM     15  C   UNL     1      -4.451  10.970  18.140  0.00  0.00    +0.000 C 
ATOM     16  C   UNL     1      -4.393  11.664  16.764  0.00  0.00    +0.000 C 
ATOM     17  C   UNL     1      -5.908  10.548  18.406  0.00  0.00    +0.000 C 
ATOM     18  C   UNL     1      -3.535   9.752  18.179  0.00  0.00    +0.000 C 
ATOM     19  C   UNL     1      -2.127  10.229  17.920  0.00  0.00    +0.000 C 
ATOM     20  O   UNL     1      -1.454   9.696  17.042  0.00  0.00    +0.000 OA
ENDROOT
BRANCH   1  24
ATOM     21  C   UNL     1      -4.828  16.056  21.987  0.00  0.00    +0.000 A 
ATOM     22  C   UNL     1      -4.677  14.773  22.512  0.00  0.00    +0.000 A 
ATOM     23  C   UNL     1      -3.700  13.910  21.989  0.00  0.00    +0.000 A 
ATOM     24  C   UNL     1      -2.977  14.221  20.820  0.00  0.00    +0.000 A 
ATOM     25  C   UNL     1      -3.221  15.497  20.274  0.00  0.00    +0.000 A 
ATOM     26  C   UNL     1      -4.066  16.435  20.889  0.00  0.00    +0.000 A 
BRANCH  21  28
ATOM     27  C   UNL     1      -6.886  16.391  23.481  0.00  0.00    +0.000 C 
ATOM     28  C   UNL     1      -5.816  16.980  22.599  0.00  0.00    +0.000 C 
ATOM     29  O   UNL     1      -5.758  18.181  22.351  0.00  0.00    +0.000 OA
ENDBRANCH  21  28
ENDBRANCH   1  24
BRANCH  11  30
ATOM     30  C   UNL     1       0.707  10.374  18.822  0.00  0.00    +0.000 A 
ATOM     31  C   UNL     1       1.457   9.914  17.710  0.00  0.00    +0.000 A 
ATOM     32  C   UNL     1       2.184   8.727  17.772  0.00  0.00    +0.000 A 
ATOM     33  C   UNL     1       2.185   7.974  18.940  0.00  0.00    +0.000 A 
ATOM     34  C   UNL     1       1.463   8.421  20.045  0.00  0.00    +0.000 A 
ATOM     35  C   UNL     1       0.730   9.602  19.994  0.00  0.00    +0.000 A 
BRANCH  34  36
ATOM     36  O   UNL     1       1.437   7.706  21.206  0.00  0.00    +0.000 OA
ATOM     37  H   UNL     1       2.297   7.813  21.644  0.00  0.00    +0.000 HD
ENDBRANCH  34  36
ENDBRANCH  11  30
TORSDOF 4
ENDMDL
MODEL 2
REMARK VINA RESULT:      -6.9      2.734      4.649
REMARK  Name = 
REMARK  9 active torsions:
REMARK  status: ('A' for Active; 'I' for Inactive)
REMARK    1  A    between atoms: C_1  and  C_2
REMARK    2  A    between atoms: C_2  and  C_4
REMARK    3  A    between atoms: C_7  and  N_8
REMARK    4  A    between atoms: C_14  and  C_15
REMARK    5  A    between atoms: C_14  and  C_16
REMARK    6  A    between atoms: C_18  and  C_19
REMARK    7  A    between atoms: C_23  and  O_24
REMARK    8  A    between atoms: C_29  and  C_30
REMARK    9  A    between atoms: C_29  and  C_31
REMARK                            x       y       z     vdW  Elec       q    Type
REMARK                         _______ _______ _______ _____ _____    ______ ____
ROOT
ATOM      1  N   UNL     1      -1.710  13.622  21.195  0.00  0.00    +0.000 N 
ATOM      2  C   UNL     1      -1.330  14.973  20.851  0.00  0.00    +0.000 C 
ATOM      3  C   UNL     1      -0.264  15.219  20.041  0.00  0.00    +0.000 C 
ATOM      4  C   UNL     1       0.065  16.622  19.623  0.00  0.00    +0.000 C 
ATOM      5  O   UNL     1       0.744  16.854  18.624  0.00  0.00    +0.000 OA
ATOM      6  C   UNL     1      -0.493  17.765  20.438  0.00  0.00    +0.000 C 
ATOM      7  C   UNL     1      -1.972  17.502  20.670  0.00  0.00    +0.000 C 
ATOM      8  C   UNL     1      -2.735  17.432  19.325  0.00  0.00    +0.000 C 
ATOM      9  C   UNL     1      -2.596  18.631  21.505  0.00  0.00    +0.000 C 
ATOM     10  C   UNL     1      -2.072  16.172  21.463  0.00  0.00    +0.000 C 
ATOM     11  C   UNL     1       0.614  14.128  19.455  0.00  0.00    +0.000 C 
ATOM     12  C   UNL     1       0.274  12.766  20.036  0.00  0.00    +0.000 C 
ATOM     13  C   UNL     1      -0.833  12.543  20.796  0.00  0.00    +0.000 C 
ATOM     14  C   UNL     1      -1.164  11.103  21.204  0.00  0.00    +0.000 C 
ATOM     15  C   UNL     1      -0.417   9.957  20.496  0.00  0.00    +0.000 C 
ATOM     16  C   UNL     1      -0.963   9.730  19.073  0.00  0.00    +0.000 C 
ATOM     17  C   UNL     1      -0.611   8.658  21.300  0.00  0.00    +0.000 C 
ATOM     18  C   UNL     1       1.057  10.341  20.463  0.00  0.00    +0.000 C 
ATOM     19  C   UNL     1       1.181  11.620  19.672  0.00  0.00    +0.000 C 
ATOM     20  O   UNL     1       1.978  11.686  18.740  0.00  0.00    +0.000 OA
ENDROOT
BRANCH   1  24
ATOM     21  C   UNL     1      -5.436  12.826  23.214  0.00  0.00    +0.000 A 
ATOM     22  C   UNL     1      -4.244  12.901  23.933  0.00  0.00    +0.000 A 
ATOM     23  C   UNL     1      -3.049  13.249  23.280  0.00  0.00    +0.000 A 
ATOM     24  C   UNL     1      -2.968  13.350  21.877  0.00  0.00    +0.000 A 
ATOM     25  C   UNL     1      -4.182  13.186  21.183  0.00  0.00    +0.000 A 
ATOM     26  C   UNL     1      -5.412  13.012  21.837  0.00  0.00    +0.000 A 
BRANCH  21  28
ATOM     27  C   UNL     1      -7.574  13.687  24.341  0.00  0.00    +0.000 C 
ATOM     28  C   UNL     1      -6.701  12.529  23.933  0.00  0.00    +0.000 C 
ATOM     29  O   UNL     1      -6.985  11.365  24.203  0.00  0.00    +0.000 OA
ENDBRANCH  21  28
ENDBRANCH   1  24
BRANCH  11  30
ATOM     30  C   UNL     1       2.107  14.447  19.551  0.00  0.00    +0.000 A 
ATOM     31  C   UNL     1       2.682  14.696  20.823  0.00  0.00    +0.000 A 
ATOM     32  C   UNL     1       4.027  15.037  20.952  0.00  0.00    +0.000 A 
ATOM     33  C   UNL     1       4.830  15.133  19.821  0.00  0.00    +0.000 A 
ATOM     34  C   UNL     1       4.280  14.877  18.566  0.00  0.00    +0.000 A 
ATOM     35  C   UNL     1       2.939  14.540  18.425  0.00  0.00    +0.000 A 
BRANCH  34  36
ATOM     36  O   UNL     1       5.036  14.965  17.434  0.00  0.00    +0.000 OA
ATOM     37  H   UNL     1       5.366  15.876  17.363  0.00  0.00    +0.000 HD
ENDBRANCH  34  36
ENDBRANCH  11  30
TORSDOF 4
ENDMDL
MODEL 3
REMARK VINA RESULT:      -6.9      2.658      6.843
REMARK  Name = 
REMARK  9 active torsions:
REMARK  status: ('A' for Active; 'I' for Inactive)
REMARK    1  A    between atoms: C_1  and  C_2
REMARK    2  A    between atoms: C_2  and  C_4
REMARK    3  A    between atoms: C_7  and  N_8
REMARK    4  A    between atoms: C_14  and  C_15
REMARK    5  A    between atoms: C_14  and  C_16
REMARK    6  A    between atoms: C_18  and  C_19
REMARK    7  A    between atoms: C_23  and  O_24
REMARK    8  A    between atoms: C_29  and  C_30
REMARK    9  A    between atoms: C_29  and  C_31
REMARK                            x       y       z     vdW  Elec       q    Type
REMARK                         _______ _______ _______ _____ _____    ______ ____
ROOT
ATOM      1  N   UNL     1      -2.996  11.756  18.701  0.00  0.00    +0.000 N 
ATOM      2  C   UNL     1      -1.752  11.736  19.435  0.00  0.00    +0.000 C 
ATOM      3  C   UNL     1      -1.715  12.025  20.765  0.00  0.00    +0.000 C 
ATOM      4  C   UNL     1      -0.430  11.913  21.531  0.00  0.00    +0.000 C 
ATOM      5  O   UNL     1      -0.419  11.787  22.754  0.00  0.00    +0.000 OA
ATOM      6  C   UNL     1       0.870  11.920  20.761  0.00  0.00    +0.000 C 
ATOM      7  C   UNL     1       0.736  10.948  19.601  0.00  0.00    +0.000 C 
ATOM      8  C   UNL     1       0.472   9.513  20.116  0.00  0.00    +0.000 C 
ATOM      9  C   UNL     1       2.029  10.917  18.772  0.00  0.00    +0.000 C 
ATOM     10  C   UNL     1      -0.423  11.467  18.711  0.00  0.00    +0.000 C 
ATOM     11  C   UNL     1      -2.941  12.406  21.574  0.00  0.00    +0.000 C 
ATOM     12  C   UNL     1      -4.156  12.610  20.686  0.00  0.00    +0.000 C 
ATOM     13  C   UNL     1      -4.177  12.255  19.372  0.00  0.00    +0.000 C 
ATOM     14  C   UNL     1      -5.501  12.361  18.605  0.00  0.00    +0.000 C 
ATOM     15  C   UNL     1      -6.795  12.568  19.414  0.00  0.00    +0.000 C 
ATOM     16  C   UNL     1      -7.241  11.260  20.099  0.00  0.00    +0.000 C 
ATOM     17  C   UNL     1      -7.917  13.020  18.461  0.00  0.00    +0.000 C 
ATOM     18  C   UNL     1      -6.507  13.655  20.443  0.00  0.00    +0.000 C 
ATOM     19  C   UNL     1      -5.398  13.158  21.338  0.00  0.00    +0.000 C 
ATOM     20  O   UNL     1      -5.545  13.175  22.557  0.00  0.00    +0.000 OA
ENDROOT
BRANCH   1  24
ATOM     21  C   UNL     1      -3.226  10.222  14.678  0.00  0.00    +0.000 A 
ATOM     22  C   UNL     1      -2.278   9.725  15.571  0.00  0.00    +0.000 A 
ATOM     23  C   UNL     1      -2.269  10.167  16.905  0.00  0.00    +0.000 A 
ATOM     24  C   UNL     1      -3.071  11.240  17.341  0.00  0.00    +0.000 A 
ATOM     25  C   UNL     1      -3.957  11.767  16.382  0.00  0.00    +0.000 A 
ATOM     26  C   UNL     1      -4.098  11.218  15.098  0.00  0.00    +0.000 A 
BRANCH  21  28
ATOM     27  C   UNL     1      -4.603   9.622  12.599  0.00  0.00    +0.000 C 
ATOM     28  C   UNL     1      -3.267   9.691  13.292  0.00  0.00    +0.000 C 
ATOM     29  O   UNL     1      -2.232   9.295  12.763  0.00  0.00    +0.000 OA
ENDBRANCH  21  28
ENDBRANCH   1  24
BRANCH  11  30
ATOM     30  C   UNL     1      -2.695  13.594  22.507  0.00  0.00    +0.000 A 
ATOM     31  C   UNL     1      -2.115  14.777  21.983  0.00  0.00    +0.000 A 
ATOM     32  C   UNL     1      -1.830  15.865  22.806  0.00  0.00    +0.000 A 
ATOM     33  C   UNL     1      -2.119  15.803  24.164  0.00  0.00    +0.000 A 
ATOM     34  C   UNL     1      -2.702  14.651  24.689  0.00  0.00    +0.000 A 
ATOM     35  C   UNL     1      -2.987  13.557  23.879  0.00  0.00    +0.000 A 
BRANCH  34  36
ATOM     36  O   UNL     1      -2.996  14.552  26.017  0.00  0.00    +0.000 OA
ATOM     37  H   UNL     1      -3.916  14.836  26.143  0.00  0.00    +0.000 HD
ENDBRANCH  34  36
ENDBRANCH  11  30
TORSDOF 4
ENDMDL
MODEL 4
REMARK VINA RESULT:      -6.8      2.566      6.887
REMARK  Name = 
REMARK  9 active torsions:
REMARK  status: ('A' for Active; 'I' for Inactive)
REMARK    1  A    between atoms: C_1  and  C_2
REMARK    2  A    between atoms: C_2  and  C_4
REMARK    3  A    between atoms: C_7  and  N_8
REMARK    4  A    between atoms: C_14  and  C_15
REMARK    5  A    between atoms: C_14  and  C_16
REMARK    6  A    between atoms: C_18  and  C_19
REMARK    7  A    between atoms: C_23  and  O_24
REMARK    8  A    between atoms: C_29  and  C_30
REMARK    9  A    between atoms: C_29  and  C_31
REMARK                            x       y       z     vdW  Elec       q    Type
REMARK                         _______ _______ _______ _____ _____    ______ ____
ROOT
ATOM      1  N   UNL     1      -2.953  11.758  18.673  0.00  0.00    +0.000 N 
ATOM      2  C   UNL     1      -1.683  11.768  19.360  0.00  0.00    +0.000 C 
ATOM      3  C   UNL     1      -1.604  12.061  20.688  0.00  0.00    +0.000 C 
ATOM      4  C   UNL     1      -0.289  11.981  21.406  0.00  0.00    +0.000 C 
ATOM      5  O   UNL     1      -0.230  11.857  22.628  0.00  0.00    +0.000 OA
ATOM      6  C   UNL     1       0.981  12.017  20.589  0.00  0.00    +0.000 C 
ATOM      7  C   UNL     1       0.828  11.040  19.435  0.00  0.00    +0.000 C 
ATOM      8  C   UNL     1       0.617   9.600  19.961  0.00  0.00    +0.000 C 
ATOM      9  C   UNL     1       2.090  11.038  18.559  0.00  0.00    +0.000 C 
ATOM     10  C   UNL     1      -0.376  11.530  18.588  0.00  0.00    +0.000 C 
ATOM     11  C   UNL     1      -2.808  12.414  21.541  0.00  0.00    +0.000 C 
ATOM     12  C   UNL     1      -4.060  12.587  20.698  0.00  0.00    +0.000 C 
ATOM     13  C   UNL     1      -4.120  12.229  19.386  0.00  0.00    +0.000 C 
ATOM     14  C   UNL     1      -5.473  12.303  18.668  0.00  0.00    +0.000 C 
ATOM     15  C   UNL     1      -6.741  12.480  19.524  0.00  0.00    +0.000 C 
ATOM     16  C   UNL     1      -7.131  11.164  20.226  0.00  0.00    +0.000 C 
ATOM     17  C   UNL     1      -7.908  12.904  18.613  0.00  0.00    +0.000 C 
ATOM     18  C   UNL     1      -6.442  13.576  20.540  0.00  0.00    +0.000 C 
ATOM     19  C   UNL     1      -5.289  13.107  21.395  0.00  0.00    +0.000 C 
ATOM     20  O   UNL     1      -5.391  13.123  22.618  0.00  0.00    +0.000 OA
ENDROOT
BRANCH   1  24
ATOM     21  C   UNL     1      -3.295  10.211  14.662  0.00  0.00    +0.000 A 
ATOM     22  C   UNL     1      -2.355   9.683  15.546  0.00  0.00    +0.000 A 
ATOM     23  C   UNL     1      -2.312  10.131  16.877  0.00  0.00    +0.000 A 
ATOM     24  C   UNL     1      -3.066  11.237  17.317  0.00  0.00    +0.000 A 
ATOM     25  C   UNL     1      -3.943  11.793  16.366  0.00  0.00    +0.000 A 
ATOM     26  C   UNL     1      -4.122  11.243  15.087  0.00  0.00    +0.000 A 
BRANCH  21  28
ATOM     27  C   UNL     1      -4.726   9.628  12.615  0.00  0.00    +0.000 C 
ATOM     28  C   UNL     1      -3.375   9.674  13.280  0.00  0.00    +0.000 C 
ATOM     29  O   UNL     1      -2.359   9.256  12.732  0.00  0.00    +0.000 OA
ENDBRANCH  21  28
ENDBRANCH   1  24
BRANCH  11  30
ATOM     30  C   UNL     1      -2.556  13.609  22.462  0.00  0.00    +0.000 A 
ATOM     31  C   UNL     1      -2.663  13.437  23.866  0.00  0.00    +0.000 A 
ATOM     32  C   UNL     1      -2.490  14.509  24.739  0.00  0.00    +0.000 A 
ATOM     33  C   UNL     1      -2.202  15.773  24.238  0.00  0.00    +0.000 A 
ATOM     34  C   UNL     1      -2.080  15.953  22.861  0.00  0.00    +0.000 A 
ATOM     35  C   UNL     1      -2.255  14.892  21.980  0.00  0.00    +0.000 A 
BRANCH  34  36
ATOM     36  O   UNL     1      -1.802  17.179  22.333  0.00  0.00    +0.000 OA
ATOM     37  H   UNL     1      -1.614  17.064  21.387  0.00  0.00    +0.000 HD
ENDBRANCH  34  36
ENDBRANCH  11  30
TORSDOF 4
ENDMDL
MODEL 5
REMARK VINA RESULT:      -6.7      2.616      6.234
REMARK  Name = 
REMARK  9 active torsions:
REMARK  status: ('A' for Active; 'I' for Inactive)
REMARK    1  A    between atoms: C_1  and  C_2
REMARK    2  A    between atoms: C_2  and  C_4
REMARK    3  A    between atoms: C_7  and  N_8
REMARK    4  A    between atoms: C_14  and  C_15
REMARK    5  A    between atoms: C_14  and  C_16
REMARK    6  A    between atoms: C_18  and  C_19
REMARK    7  A    between atoms: C_23  and  O_24
REMARK    8  A    between atoms: C_29  and  C_30
REMARK    9  A    between atoms: C_29  and  C_31
REMARK                            x       y       z     vdW  Elec       q    Type
REMARK                         _______ _______ _______ _____ _____    ______ ____
ROOT
ATOM      1  N   UNL     1      -1.786  14.230  21.761  0.00  0.00    +0.000 N 
ATOM      2  C   UNL     1      -1.118  13.409  20.778  0.00  0.00    +0.000 C 
ATOM      3  C   UNL     1       0.175  13.647  20.425  0.00  0.00    +0.000 C 
ATOM      4  C   UNL     1       0.882  12.733  19.468  0.00  0.00    +0.000 C 
ATOM      5  O   UNL     1       2.110  12.676  19.421  0.00  0.00    +0.000 OA
ATOM      6  C   UNL     1       0.050  11.842  18.577  0.00  0.00    +0.000 C 
ATOM      7  C   UNL     1      -1.005  11.167  19.437  0.00  0.00    +0.000 C 
ATOM      8  C   UNL     1      -0.345  10.296  20.533  0.00  0.00    +0.000 C 
ATOM      9  C   UNL     1      -1.892  10.249  18.581  0.00  0.00    +0.000 C 
ATOM     10  C   UNL     1      -1.880  12.296  20.042  0.00  0.00    +0.000 C 
ATOM     11  C   UNL     1       1.006  14.779  21.000  0.00  0.00    +0.000 C 
ATOM     12  C   UNL     1       0.165  15.711  21.857  0.00  0.00    +0.000 C 
ATOM     13  C   UNL     1      -1.106  15.414  22.239  0.00  0.00    +0.000 C 
ATOM     14  C   UNL     1      -1.812  16.349  23.228  0.00  0.00    +0.000 C 
ATOM     15  C   UNL     1      -0.961  17.397  23.970  0.00  0.00    +0.000 C 
ATOM     16  C   UNL     1      -0.135  16.749  25.099  0.00  0.00    +0.000 C 
ATOM     17  C   UNL     1      -1.894  18.449  24.598  0.00  0.00    +0.000 C 
ATOM     18  C   UNL     1      -0.056  18.050  22.932  0.00  0.00    +0.000 C 
ATOM     19  C   UNL     1       0.825  16.972  22.349  0.00  0.00    +0.000 C 
ATOM     20  O   UNL     1       2.043  17.127  22.324  0.00  0.00    +0.000 OA
ENDROOT
BRANCH   1  24
ATOM     21  C   UNL     1      -5.634  13.087  23.338  0.00  0.00    +0.000 A 
ATOM     22  C   UNL     1      -5.545  13.884  22.198  0.00  0.00    +0.000 A 
ATOM     23  C   UNL     1      -4.289  14.177  21.640  0.00  0.00    +0.000 A 
ATOM     24  C   UNL     1      -3.087  13.847  22.295  0.00  0.00    +0.000 A 
ATOM     25  C   UNL     1      -3.225  13.112  23.489  0.00  0.00    +0.000 A 
ATOM     26  C   UNL     1      -4.467  12.663  23.963  0.00  0.00    +0.000 A 
BRANCH  21  28
ATOM     27  C   UNL     1      -7.851  13.838  24.385  0.00  0.00    +0.000 C 
ATOM     28  C   UNL     1      -6.972  12.728  23.872  0.00  0.00    +0.000 C 
ATOM     29  O   UNL     1      -7.313  11.549  23.913  0.00  0.00    +0.000 OA
ENDBRANCH  21  28
ENDBRANCH   1  24
BRANCH  11  30
ATOM     30  C   UNL     1       1.809  15.531  19.937  0.00  0.00    +0.000 A 
ATOM     31  C   UNL     1       1.120  16.270  18.942  0.00  0.00    +0.000 A 
ATOM     32  C   UNL     1       1.810  16.930  17.927  0.00  0.00    +0.000 A 
ATOM     33  C   UNL     1       3.198  16.874  17.881  0.00  0.00    +0.000 A 
ATOM     34  C   UNL     1       3.888  16.163  18.861  0.00  0.00    +0.000 A 
ATOM     35  C   UNL     1       3.211  15.497  19.876  0.00  0.00    +0.000 A 
BRANCH  34  36
ATOM     36  O   UNL     1       5.250  16.083  18.847  0.00  0.00    +0.000 OA
ATOM     37  H   UNL     1       5.496  15.225  18.465  0.00  0.00    +0.000 HD
ENDBRANCH  34  36
ENDBRANCH  11  30
TORSDOF 4
ENDMDL
MODEL 6
REMARK VINA RESULT:      -6.7      1.123      1.416
REMARK  Name = 
REMARK  9 active torsions:
REMARK  status: ('A' for Active; 'I' for Inactive)
REMARK    1  A    between atoms: C_1  and  C_2
REMARK    2  A    between atoms: C_2  and  C_4
REMARK    3  A    between atoms: C_7  and  N_8
REMARK    4  A    between atoms: C_14  and  C_15
REMARK    5  A    between atoms: C_14  and  C_16
REMARK    6  A    between atoms: C_18  and  C_19
REMARK    7  A    between atoms: C_23  and  O_24
REMARK    8  A    between atoms: C_29  and  C_30
REMARK    9  A    between atoms: C_29  and  C_31
REMARK                            x       y       z     vdW  Elec       q    Type
REMARK                         _______ _______ _______ _____ _____    ______ ____
ROOT
ATOM      1  N   UNL     1      -2.709  13.479  20.422  0.00  0.00    +0.000 N 
ATOM      2  C   UNL     1      -1.299  13.695  20.649  0.00  0.00    +0.000 C 
ATOM      3  C   UNL     1      -0.359  12.991  19.959  0.00  0.00    +0.000 C 
ATOM      4  C   UNL     1       1.100  13.288  20.142  0.00  0.00    +0.000 C 
ATOM      5  O   UNL     1       1.933  12.971  19.295  0.00  0.00    +0.000 OA
ATOM      6  C   UNL     1       1.532  14.030  21.385  0.00  0.00    +0.000 C 
ATOM      7  C   UNL     1       0.613  15.227  21.564  0.00  0.00    +0.000 C 
ATOM      8  C   UNL     1       0.717  16.185  20.353  0.00  0.00    +0.000 C 
ATOM      9  C   UNL     1       1.000  16.020  22.823  0.00  0.00    +0.000 C 
ATOM     10  C   UNL     1      -0.823  14.668  21.740  0.00  0.00    +0.000 C 
ATOM     11  C   UNL     1      -0.697  11.928  18.929  0.00  0.00    +0.000 C 
ATOM     12  C   UNL     1      -2.185  11.620  18.912  0.00  0.00    +0.000 C 
ATOM     13  C   UNL     1      -3.103  12.381  19.567  0.00  0.00    +0.000 C 
ATOM     14  C   UNL     1      -4.591  12.074  19.360  0.00  0.00    +0.000 C 
ATOM     15  C   UNL     1      -4.986  11.137  18.203  0.00  0.00    +0.000 C 
ATOM     16  C   UNL     1      -4.895  11.858  16.844  0.00  0.00    +0.000 C 
ATOM     17  C   UNL     1      -6.439  10.671  18.407  0.00  0.00    +0.000 C 
ATOM     18  C   UNL     1      -4.039   9.944  18.256  0.00  0.00    +0.000 C 
ATOM     19  C   UNL     1      -2.635  10.463  18.059  0.00  0.00    +0.000 C 
ATOM     20  O   UNL     1      -1.915   9.965  17.197  0.00  0.00    +0.000 OA
ENDROOT
BRANCH   1  24
ATOM     21  C   UNL     1      -5.647  16.138  22.124  0.00  0.00    +0.000 A 
ATOM     22  C   UNL     1      -5.404  14.891  22.698  0.00  0.00    +0.000 A 
ATOM     23  C   UNL     1      -4.383  14.070  22.191  0.00  0.00    +0.000 A 
ATOM     24  C   UNL     1      -3.704  14.375  20.995  0.00  0.00    +0.000 A 
ATOM     25  C   UNL     1      -4.040  15.608  20.402  0.00  0.00    +0.000 A 
ATOM     26  C   UNL     1      -4.931  16.516  20.994  0.00  0.00    +0.000 A 
BRANCH  21  28
ATOM     27  C   UNL     1      -6.497  18.513  22.587  0.00  0.00    +0.000 C 
ATOM     28  C   UNL     1      -6.681  17.023  22.717  0.00  0.00    +0.000 C 
ATOM     29  O   UNL     1      -7.629  16.529  23.320  0.00  0.00    +0.000 OA
ENDBRANCH  21  28
ENDBRANCH   1  24
BRANCH  11  30
ATOM     30  C   UNL     1       0.157  10.667  19.070  0.00  0.00    +0.000 A 
ATOM     31  C   UNL     1       0.141   9.952  20.295  0.00  0.00    +0.000 A 
ATOM     32  C   UNL     1       0.940   8.826  20.483  0.00  0.00    +0.000 A 
ATOM     33  C   UNL     1       1.768   8.384  19.459  0.00  0.00    +0.000 A 
ATOM     34  C   UNL     1       1.784   9.069  18.245  0.00  0.00    +0.000 A 
ATOM     35  C   UNL     1       0.994  10.197  18.047  0.00  0.00    +0.000 A 
BRANCH  34  36
ATOM     36  O   UNL     1       2.587   8.667  17.219  0.00  0.00    +0.000 OA
ATOM     37  H   UNL     1       2.251   7.817  16.890  0.00  0.00    +0.000 HD
ENDBRANCH  34  36
ENDBRANCH  11  30
TORSDOF 4
ENDMDL
MODEL 7
REMARK VINA RESULT:      -6.7      2.726      4.587
REMARK  Name = 
REMARK  9 active torsions:
REMARK  status: ('A' for Active; 'I' for Inactive)
REMARK    1  A    between atoms: C_1  and  C_2
REMARK    2  A    between atoms: C_2  and  C_4
REMARK    3  A    between atoms: C_7  and  N_8
REMARK    4  A    between atoms: C_14  and  C_15
REMARK    5  A    between atoms: C_14  and  C_16
REMARK    6  A    between atoms: C_18  and  C_19
REMARK    7  A    between atoms: C_23  and  O_24
REMARK    8  A    between atoms: C_29  and  C_30
REMARK    9  A    between atoms: C_29  and  C_31
REMARK                            x       y       z     vdW  Elec       q    Type
REMARK                         _______ _______ _______ _____ _____    ______ ____
ROOT
ATOM      1  N   UNL     1      -1.760  13.638  21.157  0.00  0.00    +0.000 N 
ATOM      2  C   UNL     1      -1.407  14.993  20.805  0.00  0.00    +0.000 C 
ATOM      3  C   UNL     1      -0.350  15.256  19.987  0.00  0.00    +0.000 C 
ATOM      4  C   UNL     1      -0.050  16.662  19.561  0.00  0.00    +0.000 C 
ATOM      5  O   UNL     1       0.619  16.901  18.558  0.00  0.00    +0.000 OA
ATOM      6  C   UNL     1      -0.625  17.799  20.373  0.00  0.00    +0.000 C 
ATOM      7  C   UNL     1      -2.097  17.509  20.614  0.00  0.00    +0.000 C 
ATOM      8  C   UNL     1      -2.866  17.418  19.274  0.00  0.00    +0.000 C 
ATOM      9  C   UNL     1      -2.739  18.630  21.446  0.00  0.00    +0.000 C 
ATOM     10  C   UNL     1      -2.168  16.181  21.414  0.00  0.00    +0.000 C 
ATOM     11  C   UNL     1       0.545  14.178  19.403  0.00  0.00    +0.000 C 
ATOM     12  C   UNL     1       0.235  12.813  19.993  0.00  0.00    +0.000 C 
ATOM     13  C   UNL     1      -0.864  12.573  20.759  0.00  0.00    +0.000 C 
ATOM     14  C   UNL     1      -1.166  11.129  21.176  0.00  0.00    +0.000 C 
ATOM     15  C   UNL     1      -0.401   9.994  20.470  0.00  0.00    +0.000 C 
ATOM     16  C   UNL     1      -0.950   9.749  19.051  0.00  0.00    +0.000 C 
ATOM     17  C   UNL     1      -0.566   8.695  21.282  0.00  0.00    +0.000 C 
ATOM     18  C   UNL     1       1.066  10.405  20.428  0.00  0.00    +0.000 C 
ATOM     19  C   UNL     1       1.161  11.682  19.630  0.00  0.00    +0.000 C 
ATOM     20  O   UNL     1       1.951  11.759  18.693  0.00  0.00    +0.000 OA
ENDROOT
BRANCH   1  24
ATOM     21  C   UNL     1      -5.454  12.761  23.201  0.00  0.00    +0.000 A 
ATOM     22  C   UNL     1      -5.421  12.862  21.811  0.00  0.00    +0.000 A 
ATOM     23  C   UNL     1      -4.198  13.058  21.148  0.00  0.00    +0.000 A 
ATOM     24  C   UNL     1      -3.009  13.345  21.847  0.00  0.00    +0.000 A 
ATOM     25  C   UNL     1      -3.105  13.315  23.252  0.00  0.00    +0.000 A 
ATOM     26  C   UNL     1      -4.282  12.947  23.923  0.00  0.00    +0.000 A 
BRANCH  21  28
ATOM     27  C   UNL     1      -7.524  13.648  24.430  0.00  0.00    +0.000 C 
ATOM     28  C   UNL     1      -6.745  12.481  23.880  0.00  0.00    +0.000 C 
ATOM     29  O   UNL     1      -7.125  11.321  24.005  0.00  0.00    +0.000 OA
ENDBRANCH  21  28
ENDBRANCH   1  24
BRANCH  11  30
ATOM     30  C   UNL     1       2.032  14.526  19.489  0.00  0.00    +0.000 A 
ATOM     31  C   UNL     1       2.772  14.709  18.293  0.00  0.00    +0.000 A 
ATOM     32  C   UNL     1       4.139  14.979  18.325  0.00  0.00    +0.000 A 
ATOM     33  C   UNL     1       4.798  15.077  19.544  0.00  0.00    +0.000 A 
ATOM     34  C   UNL     1       4.081  14.913  20.728  0.00  0.00    +0.000 A 
ATOM     35  C   UNL     1       2.718  14.639  20.708  0.00  0.00    +0.000 A 
BRANCH  34  36
ATOM     36  O   UNL     1       4.695  14.999  21.942  0.00  0.00    +0.000 OA
ATOM     37  H   UNL     1       4.136  14.545  22.595  0.00  0.00    +0.000 HD
ENDBRANCH  34  36
ENDBRANCH  11  30
TORSDOF 4
ENDMDL
MODEL 8
REMARK VINA RESULT:      -6.7      2.640      6.257
REMARK  Name = 
REMARK  9 active torsions:
REMARK  status: ('A' for Active; 'I' for Inactive)
REMARK    1  A    between atoms: C_1  and  C_2
REMARK    2  A    between atoms: C_2  and  C_4
REMARK    3  A    between atoms: C_7  and  N_8
REMARK    4  A    between atoms: C_14  and  C_15
REMARK    5  A    between atoms: C_14  and  C_16
REMARK    6  A    between atoms: C_18  and  C_19
REMARK    7  A    between atoms: C_23  and  O_24
REMARK    8  A    between atoms: C_29  and  C_30
REMARK    9  A    between atoms: C_29  and  C_31
REMARK                            x       y       z     vdW  Elec       q    Type
REMARK                         _______ _______ _______ _____ _____    ______ ____
ROOT
ATOM      1  N   UNL     1      -1.746  14.193  21.778  0.00  0.00    +0.000 N 
ATOM      2  C   UNL     1      -1.092  13.366  20.791  0.00  0.00    +0.000 C 
ATOM      3  C   UNL     1       0.208  13.577  20.445  0.00  0.00    +0.000 C 
ATOM      4  C   UNL     1       0.898  12.655  19.484  0.00  0.00    +0.000 C 
ATOM      5  O   UNL     1       2.124  12.571  19.441  0.00  0.00    +0.000 OA
ATOM      6  C   UNL     1       0.050  11.790  18.582  0.00  0.00    +0.000 C 
ATOM      7  C   UNL     1      -1.024  11.132  19.433  0.00  0.00    +0.000 C 
ATOM      8  C   UNL     1      -0.388  10.238  20.524  0.00  0.00    +0.000 C 
ATOM      9  C   UNL     1      -1.928  10.242  18.566  0.00  0.00    +0.000 C 
ATOM     10  C   UNL     1      -1.876  12.276  20.044  0.00  0.00    +0.000 C 
ATOM     11  C   UNL     1       1.062  14.686  21.033  0.00  0.00    +0.000 C 
ATOM     12  C   UNL     1       0.239  15.629  21.894  0.00  0.00    +0.000 C 
ATOM     13  C   UNL     1      -1.041  15.358  22.269  0.00  0.00    +0.000 C 
ATOM     14  C   UNL     1      -1.729  16.301  23.263  0.00  0.00    +0.000 C 
ATOM     15  C   UNL     1      -0.858  17.323  24.016  0.00  0.00    +0.000 C 
ATOM     16  C   UNL     1      -0.051  16.648  25.143  0.00  0.00    +0.000 C 
ATOM     17  C   UNL     1      -1.770  18.391  24.649  0.00  0.00    +0.000 C 
ATOM     18  C   UNL     1       0.066  17.964  22.988  0.00  0.00    +0.000 C 
ATOM     19  C   UNL     1       0.925  16.871  22.399  0.00  0.00    +0.000 C 
ATOM     20  O   UNL     1       2.146  16.998  22.380  0.00  0.00    +0.000 OA
ENDROOT
BRANCH   1  24
ATOM     21  C   UNL     1      -5.626  13.144  23.342  0.00  0.00    +0.000 A 
ATOM     22  C   UNL     1      -4.466  12.628  23.920  0.00  0.00    +0.000 A 
ATOM     23  C   UNL     1      -3.206  13.045  23.462  0.00  0.00    +0.000 A 
ATOM     24  C   UNL     1      -3.056  13.835  22.305  0.00  0.00    +0.000 A 
ATOM     25  C   UNL     1      -4.254  14.267  21.703  0.00  0.00    +0.000 A 
ATOM     26  C   UNL     1      -5.517  14.002  22.254  0.00  0.00    +0.000 A 
BRANCH  21  28
ATOM     27  C   UNL     1      -7.886  13.838  24.333  0.00  0.00    +0.000 C 
ATOM     28  C   UNL     1      -6.948  12.747  23.886  0.00  0.00    +0.000 C 
ATOM     29  O   UNL     1      -7.230  11.557  23.990  0.00  0.00    +0.000 OA
ENDBRANCH  21  28
ENDBRANCH   1  24
BRANCH  11  30
ATOM     30  C   UNL     1       1.886  15.428  19.979  0.00  0.00    +0.000 A 
ATOM     31  C   UNL     1       3.299  15.311  19.996  0.00  0.00    +0.000 A 
ATOM     32  C   UNL     1       4.090  16.008  19.085  0.00  0.00    +0.000 A 
ATOM     33  C   UNL     1       3.496  16.830  18.135  0.00  0.00    +0.000 A 
ATOM     34  C   UNL     1       2.107  16.943  18.099  0.00  0.00    +0.000 A 
ATOM     35  C   UNL     1       1.307  16.257  19.006  0.00  0.00    +0.000 A 
BRANCH  34  36
ATOM     36  O   UNL     1       1.489  17.744  17.185  0.00  0.00    +0.000 OA
ATOM     37  H   UNL     1       1.944  18.602  17.180  0.00  0.00    +0.000 HD
ENDBRANCH  34  36
ENDBRANCH  11  30
TORSDOF 4
ENDMDL
MODEL 9
REMARK VINA RESULT:      -6.3      2.765      4.642
REMARK  Name = 
REMARK  9 active torsions:
REMARK  status: ('A' for Active; 'I' for Inactive)
REMARK    1  A    between atoms: C_1  and  C_2
REMARK    2  A    between atoms: C_2  and  C_4
REMARK    3  A    between atoms: C_7  and  N_8
REMARK    4  A    between atoms: C_14  and  C_15
REMARK    5  A    between atoms: C_14  and  C_16
REMARK    6  A    between atoms: C_18  and  C_19
REMARK    7  A    between atoms: C_23  and  O_24
REMARK    8  A    between atoms: C_29  and  C_30
REMARK    9  A    between atoms: C_29  and  C_31
REMARK                            x       y       z     vdW  Elec       q    Type
REMARK                         _______ _______ _______ _____ _____    ______ ____
ROOT
ATOM      1  N   UNL     1      -1.574  14.239  21.873  0.00  0.00    +0.000 N 
ATOM      2  C   UNL     1      -0.927  15.448  22.324  0.00  0.00    +0.000 C 
ATOM      3  C   UNL     1       0.192  15.920  21.707  0.00  0.00    +0.000 C 
ATOM      4  C   UNL     1       0.801  17.223  22.132  0.00  0.00    +0.000 C 
ATOM      5  O   UNL     1       1.544  17.859  21.386  0.00  0.00    +0.000 OA
ATOM      6  C   UNL     1       0.452  17.771  23.495  0.00  0.00    +0.000 C 
ATOM      7  C   UNL     1      -1.056  17.690  23.665  0.00  0.00    +0.000 C 
ATOM      8  C   UNL     1      -1.775  18.541  22.590  0.00  0.00    +0.000 C 
ATOM      9  C   UNL     1      -1.473  18.227  25.043  0.00  0.00    +0.000 C 
ATOM     10  C   UNL     1      -1.439  16.190  23.569  0.00  0.00    +0.000 C 
ATOM     11  C   UNL     1       0.857  15.226  20.533  0.00  0.00    +0.000 C 
ATOM     12  C   UNL     1       0.240  13.863  20.267  0.00  0.00    +0.000 C 
ATOM     13  C   UNL     1      -0.912  13.447  20.858  0.00  0.00    +0.000 C 
ATOM     14  C   UNL     1      -1.531  12.119  20.405  0.00  0.00    +0.000 C 
ATOM     15  C   UNL     1      -1.001  11.475  19.111  0.00  0.00    +0.000 C 
ATOM     16  C   UNL     1      -1.536  12.205  17.863  0.00  0.00    +0.000 C 
ATOM     17  C   UNL     1      -1.470  10.009  19.050  0.00  0.00    +0.000 C 
ATOM     18  C   UNL     1       0.521  11.538  19.174  0.00  0.00    +0.000 C 
ATOM     19  C   UNL     1       0.917  12.993  19.240  0.00  0.00    +0.000 C 
ATOM     20  O   UNL     1       1.740  13.438  18.445  0.00  0.00    +0.000 OA
ENDROOT
BRANCH   1  24
ATOM     21  C   UNL     1      -5.446  13.109  23.399  0.00  0.00    +0.000 A 
ATOM     22  C   UNL     1      -4.283  12.584  23.961  0.00  0.00    +0.000 A 
ATOM     23  C   UNL     1      -3.025  13.025  23.517  0.00  0.00    +0.000 A 
ATOM     24  C   UNL     1      -2.882  13.854  22.387  0.00  0.00    +0.000 A 
ATOM     25  C   UNL     1      -4.083  14.296  21.798  0.00  0.00    +0.000 A 
ATOM     26  C   UNL     1      -5.344  14.002  22.340  0.00  0.00    +0.000 A 
BRANCH  21  28
ATOM     27  C   UNL     1      -7.761  13.756  24.294  0.00  0.00    +0.000 C 
ATOM     28  C   UNL     1      -6.766  12.685  23.930  0.00  0.00    +0.000 C 
ATOM     29  O   UNL     1      -7.001  11.490  24.088  0.00  0.00    +0.000 OA
ENDBRANCH  21  28
ENDBRANCH   1  24
BRANCH  11  30
ATOM     30  C   UNL     1       2.380  15.160  20.663  0.00  0.00    +0.000 A 
ATOM     31  C   UNL     1       3.187  15.843  19.717  0.00  0.00    +0.000 A 
ATOM     32  C   UNL     1       4.577  15.771  19.769  0.00  0.00    +0.000 A 
ATOM     33  C   UNL     1       5.196  15.024  20.764  0.00  0.00    +0.000 A 
ATOM     34  C   UNL     1       4.416  14.359  21.708  0.00  0.00    +0.000 A 
ATOM     35  C   UNL     1       3.027  14.420  21.664  0.00  0.00    +0.000 A 
BRANCH  34  36
ATOM     36  O   UNL     1       4.988  13.612  22.696  0.00  0.00    +0.000 OA
ATOM     37  H   UNL     1       4.481  12.789  22.783  0.00  0.00    +0.000 HD
ENDBRANCH  34  36
ENDBRANCH  11  30
TORSDOF 4
ENDMDL
