MODEL 1
REMARK VINA RESULT:      -7.0      0.000      0.000
REMARK  Name = 
REMARK  7 active torsions:
REMARK  status: ('A' for Active; 'I' for Inactive)
REMARK    1  A    between atoms: C_1  and  O_2
REMARK    2  A    between atoms: O_2  and  C_3
REMARK    3  A    between atoms: C_12  and  O_13
REMARK    4  A    between atoms: O_13  and  C_14
REMARK    5  A    between atoms: C_18  and  O_19
REMARK    6  A    between atoms: C_20  and  O_21
REMARK    7  A    between atoms: O_21  and  C_22
REMARK                            x       y       z     vdW  Elec       q    Type
REMARK                         _______ _______ _______ _____ _____    ______ ____
ROOT
ATOM      1  C   UNL     1       2.465   4.426  20.738  0.00  0.00    +0.000 A 
ATOM      2  C   UNL     1       1.851   5.644  20.407  0.00  0.00    +0.000 A 
ATOM      3  C   UNL     1       2.422   6.527  19.477  0.00  0.00    +0.000 A 
ATOM      4  C   UNL     1       1.836   7.768  19.210  0.00  0.00    +0.000 A 
ATOM      5  C   UNL     1       2.408   8.564  18.234  0.00  0.00    +0.000 A 
ATOM      6  N   UNL     1       3.458   8.190  17.464  0.00  0.00    +0.000 NA
ATOM      7  C   UNL     1       4.061   7.004  17.754  0.00  0.00    +0.000 A 
ATOM      8  C   UNL     1       3.601   6.173  18.802  0.00  0.00    +0.000 A 
ATOM      9  C   UNL     1       4.311   5.067  19.280  0.00  0.00    +0.000 A 
ATOM     10  C   UNL     1       3.722   4.156  20.205  0.00  0.00    +0.000 A 
ATOM     11  C   UNL     1       5.775   4.956  18.978  0.00  0.00    +0.000 C 
ATOM     12  C   UNL     1       6.323   5.814  17.797  0.00  0.00    +0.000 C 
ATOM     13  C   UNL     1       7.091   4.814  16.890  0.00  0.00    +0.000 C 
ATOM     14  C   UNL     1       6.748   4.151  15.544  0.00  0.00    +0.000 C 
ATOM     15  C   UNL     1       5.735   4.994  14.755  0.00  0.00    +0.000 C 
ATOM     16  C   UNL     1       5.222   6.330  15.413  0.00  0.00    +0.000 C 
ATOM     17  C   UNL     1       5.334   6.667  16.967  0.00  0.00    +0.000 C 
ENDROOT
BRANCH   1  19
ATOM     18  C   UNL     1       1.078   2.529  21.035  0.00  0.00    +0.000 C 
ATOM     19  O   UNL     1       1.908   3.530  21.601  0.00  0.00    +0.000 OA
ENDBRANCH   1  19
BRANCH  10  20
ATOM     20  O   UNL     1       4.502   3.050  20.445  0.00  0.00    +0.000 OA
ATOM     21  C   UNL     1       4.313   1.908  19.626  0.00  0.00    +0.000 C 
ENDBRANCH  10  20
BRANCH  14  22
ATOM     22  O   UNL     1       6.223   2.804  15.753  0.00  0.00    +0.000 OA
ATOM     23  H   UNL     1       6.327   2.560  16.690  0.00  0.00    +0.000 HD
ENDBRANCH  14  22
BRANCH  15  24
ATOM     24  O   UNL     1       6.462   5.257  13.537  0.00  0.00    +0.000 OA
ATOM     25  C   UNL     1       6.718   4.147  12.706  0.00  0.00    +0.000 C 
ENDBRANCH  15  24
TORSDOF 4
ENDMDL
MODEL 2
REMARK VINA RESULT:      -6.2      7.593     10.461
REMARK  Name = 
REMARK  7 active torsions:
REMARK  status: ('A' for Active; 'I' for Inactive)
REMARK    1  A    between atoms: C_1  and  O_2
REMARK    2  A    between atoms: O_2  and  C_3
REMARK    3  A    between atoms: C_12  and  O_13
REMARK    4  A    between atoms: O_13  and  C_14
REMARK    5  A    between atoms: C_18  and  O_19
REMARK    6  A    between atoms: C_20  and  O_21
REMARK    7  A    between atoms: O_21  and  C_22
REMARK                            x       y       z     vdW  Elec       q    Type
REMARK                         _______ _______ _______ _____ _____    ______ ____
ROOT
ATOM      1  C   UNL     1      -5.724  12.777  21.332  0.00  0.00    +0.000 A 
ATOM      2  C   UNL     1      -6.143  12.356  20.060  0.00  0.00    +0.000 A 
ATOM      3  C   UNL     1      -5.220  12.060  19.044  0.00  0.00    +0.000 A 
ATOM      4  C   UNL     1      -5.653  11.710  17.761  0.00  0.00    +0.000 A 
ATOM      5  C   UNL     1      -4.698  11.362  16.822  0.00  0.00    +0.000 A 
ATOM      6  N   UNL     1      -3.372  11.267  17.083  0.00  0.00    +0.000 NA
ATOM      7  C   UNL     1      -2.943  11.654  18.316  0.00  0.00    +0.000 A 
ATOM      8  C   UNL     1      -3.842  12.117  19.304  0.00  0.00    +0.000 A 
ATOM      9  C   UNL     1      -3.435  12.729  20.494  0.00  0.00    +0.000 A 
ATOM     10  C   UNL     1      -4.366  13.006  21.536  0.00  0.00    +0.000 A 
ATOM     11  C   UNL     1      -2.047  13.287  20.587  0.00  0.00    +0.000 C 
ATOM     12  C   UNL     1      -1.004  12.770  19.551  0.00  0.00    +0.000 C 
ATOM     13  C   UNL     1       0.214  12.306  20.397  0.00  0.00    +0.000 C 
ATOM     14  C   UNL     1       0.731  10.915  20.807  0.00  0.00    +0.000 C 
ATOM     15  C   UNL     1       0.265   9.838  19.815  0.00  0.00    +0.000 C 
ATOM     16  C   UNL     1      -0.628  10.296  18.601  0.00  0.00    +0.000 C 
ATOM     17  C   UNL     1      -1.426  11.675  18.543  0.00  0.00    +0.000 C 
ENDROOT
BRANCH   1  19
ATOM     18  C   UNL     1      -7.557  12.019  22.627  0.00  0.00    +0.000 C 
ATOM     19  O   UNL     1      -6.596  13.025  22.351  0.00  0.00    +0.000 OA
ENDBRANCH   1  19
BRANCH  10  20
ATOM     20  O   UNL     1      -3.769  13.465  22.687  0.00  0.00    +0.000 OA
ATOM     21  C   UNL     1      -3.611  12.558  23.765  0.00  0.00    +0.000 C 
ENDBRANCH  10  20
BRANCH  14  22
ATOM     22  O   UNL     1       0.283  10.578  22.157  0.00  0.00    +0.000 OA
ATOM     23  H   UNL     1       0.888   9.919  22.541  0.00  0.00    +0.000 HD
ENDBRANCH  14  22
BRANCH  15  24
ATOM     24  O   UNL     1       1.524   9.298  19.362  0.00  0.00    +0.000 OA
ATOM     25  C   UNL     1       1.807   9.432  17.987  0.00  0.00    +0.000 C 
ENDBRANCH  15  24
TORSDOF 4
ENDMDL
MODEL 3
REMARK VINA RESULT:      -6.2      7.447     10.809
REMARK  Name = 
REMARK  7 active torsions:
REMARK  status: ('A' for Active; 'I' for Inactive)
REMARK    1  A    between atoms: C_1  and  O_2
REMARK    2  A    between atoms: O_2  and  C_3
REMARK    3  A    between atoms: C_12  and  O_13
REMARK    4  A    between atoms: O_13  and  C_14
REMARK    5  A    between atoms: C_18  and  O_19
REMARK    6  A    between atoms: C_20  and  O_21
REMARK    7  A    between atoms: O_21  and  C_22
REMARK                            x       y       z     vdW  Elec       q    Type
REMARK                         _______ _______ _______ _____ _____    ______ ____
ROOT
ATOM      1  C   UNL     1      -5.972  12.333  18.728  0.00  0.00    +0.000 A 
ATOM      2  C   UNL     1      -5.593  11.621  17.580  0.00  0.00    +0.000 A 
ATOM      3  C   UNL     1      -4.269  11.198  17.380  0.00  0.00    +0.000 A 
ATOM      4  C   UNL     1      -3.891  10.552  16.199  0.00  0.00    +0.000 A 
ATOM      5  C   UNL     1      -2.589  10.099  16.091  0.00  0.00    +0.000 A 
ATOM      6  N   UNL     1      -1.671  10.174  17.084  0.00  0.00    +0.000 NA
ATOM      7  C   UNL     1      -2.020  10.846  18.215  0.00  0.00    +0.000 A 
ATOM      8  C   UNL     1      -3.300  11.427  18.370  0.00  0.00    +0.000 A 
ATOM      9  C   UNL     1      -3.630  12.307  19.405  0.00  0.00    +0.000 A 
ATOM     10  C   UNL     1      -4.977  12.716  19.624  0.00  0.00    +0.000 A 
ATOM     11  C   UNL     1      -2.528  12.990  20.159  0.00  0.00    +0.000 C 
ATOM     12  C   UNL     1      -1.107  12.358  20.063  0.00  0.00    +0.000 C 
ATOM     13  C   UNL     1      -0.636  12.188  21.534  0.00  0.00    +0.000 C 
ATOM     14  C   UNL     1      -0.532  10.963  22.461  0.00  0.00    +0.000 C 
ATOM     15  C   UNL     1      -0.389   9.666  21.649  0.00  0.00    +0.000 C 
ATOM     16  C   UNL     1      -0.382   9.781  20.078  0.00  0.00    +0.000 C 
ATOM     17  C   UNL     1      -0.921  11.045  19.267  0.00  0.00    +0.000 C 
ENDROOT
BRANCH   1  19
ATOM     18  C   UNL     1      -7.764  13.786  18.190  0.00  0.00    +0.000 C 
ATOM     19  O   UNL     1      -7.259  12.713  18.969  0.00  0.00    +0.000 OA
ENDBRANCH   1  19
BRANCH  10  20
ATOM     20  O   UNL     1      -5.138  13.455  20.772  0.00  0.00    +0.000 OA
ATOM     21  C   UNL     1      -5.630  12.796  21.928  0.00  0.00    +0.000 C 
ENDBRANCH  10  20
BRANCH  14  22
ATOM     22  O   UNL     1      -1.699  10.879  23.336  0.00  0.00    +0.000 OA
ATOM     23  H   UNL     1      -2.453  10.524  22.833  0.00  0.00    +0.000 HD
ENDBRANCH  14  22
BRANCH  15  24
ATOM     24  O   UNL     1       0.867   9.154  22.141  0.00  0.00    +0.000 OA
ATOM     25  C   UNL     1       1.539   8.235  21.308  0.00  0.00    +0.000 C 
ENDBRANCH  15  24
TORSDOF 4
ENDMDL
MODEL 4
REMARK VINA RESULT:      -6.1      2.591      4.208
REMARK  Name = 
REMARK  7 active torsions:
REMARK  status: ('A' for Active; 'I' for Inactive)
REMARK    1  A    between atoms: C_1  and  O_2
REMARK    2  A    between atoms: O_2  and  C_3
REMARK    3  A    between atoms: C_12  and  O_13
REMARK    4  A    between atoms: O_13  and  C_14
REMARK    5  A    between atoms: C_18  and  O_19
REMARK    6  A    between atoms: C_20  and  O_21
REMARK    7  A    between atoms: O_21  and  C_22
REMARK                            x       y       z     vdW  Elec       q    Type
REMARK                         _______ _______ _______ _____ _____    ______ ____
ROOT
ATOM      1  C   UNL     1       1.434   7.643  20.878  0.00  0.00    +0.000 A 
ATOM      2  C   UNL     1       1.235   6.313  21.278  0.00  0.00    +0.000 A 
ATOM      3  C   UNL     1       1.758   5.238  20.542  0.00  0.00    +0.000 A 
ATOM      4  C   UNL     1       1.493   3.916  20.913  0.00  0.00    +0.000 A 
ATOM      5  C   UNL     1       2.093   2.902  20.189  0.00  0.00    +0.000 A 
ATOM      6  N   UNL     1       2.982   3.103  19.187  0.00  0.00    +0.000 NA
ATOM      7  C   UNL     1       3.205   4.387  18.791  0.00  0.00    +0.000 A 
ATOM      8  C   UNL     1       2.556   5.479  19.413  0.00  0.00    +0.000 A 
ATOM      9  C   UNL     1       2.579   6.783  18.906  0.00  0.00    +0.000 A 
ATOM     10  C   UNL     1       2.071   7.878  19.663  0.00  0.00    +0.000 A 
ATOM     11  C   UNL     1       2.948   6.998  17.469  0.00  0.00    +0.000 C 
ATOM     12  C   UNL     1       3.711   5.843  16.752  0.00  0.00    +0.000 C 
ATOM     13  C   UNL     1       4.964   6.511  16.123  0.00  0.00    +0.000 C 
ATOM     14  C   UNL     1       6.451   6.523  16.522  0.00  0.00    +0.000 C 
ATOM     15  C   UNL     1       6.808   5.287  17.361  0.00  0.00    +0.000 C 
ATOM     16  C   UNL     1       5.659   4.256  17.676  0.00  0.00    +0.000 C 
ATOM     17  C   UNL     1       4.103   4.585  17.563  0.00  0.00    +0.000 C 
ENDROOT
BRANCH   1  19
ATOM     18  C   UNL     1      -0.429   8.821  21.748  0.00  0.00    +0.000 C 
ATOM     19  O   UNL     1       0.977   8.706  21.600  0.00  0.00    +0.000 OA
ENDBRANCH   1  19
BRANCH  10  20
ATOM     20  O   UNL     1       2.314   9.098  19.078  0.00  0.00    +0.000 OA
ATOM     21  C   UNL     1       1.227   9.774  18.467  0.00  0.00    +0.000 C 
ENDBRANCH  10  20
BRANCH  14  22
ATOM     22  O   UNL     1       6.774   7.741  17.263  0.00  0.00    +0.000 OA
ATOM     23  H   UNL     1       5.972   8.283  17.355  0.00  0.00    +0.000 HD
ENDBRANCH  14  22
BRANCH  15  24
ATOM     24  O   UNL     1       7.846   4.683  16.560  0.00  0.00    +0.000 OA
ATOM     25  C   UNL     1       7.555   4.497  15.193  0.00  0.00    +0.000 C 
ENDBRANCH  15  24
TORSDOF 4
ENDMDL
MODEL 5
REMARK VINA RESULT:      -5.9      7.723     10.849
REMARK  Name = 
REMARK  7 active torsions:
REMARK  status: ('A' for Active; 'I' for Inactive)
REMARK    1  A    between atoms: C_1  and  O_2
REMARK    2  A    between atoms: O_2  and  C_3
REMARK    3  A    between atoms: C_12  and  O_13
REMARK    4  A    between atoms: O_13  and  C_14
REMARK    5  A    between atoms: C_18  and  O_19
REMARK    6  A    between atoms: C_20  and  O_21
REMARK    7  A    between atoms: O_21  and  C_22
REMARK                            x       y       z     vdW  Elec       q    Type
REMARK                         _______ _______ _______ _____ _____    ______ ____
ROOT
ATOM      1  C   UNL     1      -6.224  12.657  20.556  0.00  0.00    +0.000 A 
ATOM      2  C   UNL     1      -6.245  12.309  19.197  0.00  0.00    +0.000 A 
ATOM      3  C   UNL     1      -5.062  12.039  18.489  0.00  0.00    +0.000 A 
ATOM      4  C   UNL     1      -5.091  11.763  17.119  0.00  0.00    +0.000 A 
ATOM      5  C   UNL     1      -3.901  11.437  16.493  0.00  0.00    +0.000 A 
ATOM      6  N   UNL     1      -2.717  11.294  17.134  0.00  0.00    +0.000 NA
ATOM      7  C   UNL     1      -2.675  11.610  18.458  0.00  0.00    +0.000 A 
ATOM      8  C   UNL     1      -3.826  12.047  19.155  0.00  0.00    +0.000 A 
ATOM      9  C   UNL     1      -3.790  12.590  20.443  0.00  0.00    +0.000 A 
ATOM     10  C   UNL     1      -4.989  12.841  21.171  0.00  0.00    +0.000 A 
ATOM     11  C   UNL     1      -2.489  13.107  20.979  0.00  0.00    +0.000 C 
ATOM     12  C   UNL     1      -1.187  12.614  20.278  0.00  0.00    +0.000 C 
ATOM     13  C   UNL     1      -0.285  12.078  21.424  0.00  0.00    +0.000 C 
ATOM     14  C   UNL     1       0.069  10.656  21.895  0.00  0.00    +0.000 C 
ATOM     15  C   UNL     1      -0.087   9.641  20.752  0.00  0.00    +0.000 C 
ATOM     16  C   UNL     1      -0.568  10.180  19.352  0.00  0.00    +0.000 C 
ATOM     17  C   UNL     1      -1.297  11.581  19.132  0.00  0.00    +0.000 C 
ENDROOT
BRANCH   1  19
ATOM     18  C   UNL     1      -7.916  11.760  21.951  0.00  0.00    +0.000 C 
ATOM     19  O   UNL     1      -7.361  12.878  21.278  0.00  0.00    +0.000 OA
ENDBRANCH   1  19
BRANCH  10  20
ATOM     20  O   UNL     1      -4.762  13.227  22.471  0.00  0.00    +0.000 OA
ATOM     21  C   UNL     1      -5.069  14.563  22.834  0.00  0.00    +0.000 C 
ENDBRANCH  10  20
BRANCH  14  22
ATOM     22  O   UNL     1      -0.768  10.265  23.027  0.00  0.00    +0.000 OA
ATOM     23  H   UNL     1      -1.705  10.369  22.786  0.00  0.00    +0.000 HD
ENDBRANCH  14  22
BRANCH  15  24
ATOM     24  O   UNL     1       1.245   9.091  20.670  0.00  0.00    +0.000 OA
ATOM     25  C   UNL     1       1.378   7.721  20.976  0.00  0.00    +0.000 C 
ENDBRANCH  15  24
TORSDOF 4
ENDMDL
MODEL 6
REMARK VINA RESULT:      -5.9      7.809     11.711
REMARK  Name = 
REMARK  7 active torsions:
REMARK  status: ('A' for Active; 'I' for Inactive)
REMARK    1  A    between atoms: C_1  and  O_2
REMARK    2  A    between atoms: O_2  and  C_3
REMARK    3  A    between atoms: C_12  and  O_13
REMARK    4  A    between atoms: O_13  and  C_14
REMARK    5  A    between atoms: C_18  and  O_19
REMARK    6  A    between atoms: C_20  and  O_21
REMARK    7  A    between atoms: O_21  and  C_22
REMARK                            x       y       z     vdW  Elec       q    Type
REMARK                         _______ _______ _______ _____ _____    ______ ____
ROOT
ATOM      1  C   UNL     1      -2.673  10.238  17.184  0.00  0.00    +0.000 A 
ATOM      2  C   UNL     1      -1.366   9.944  17.602  0.00  0.00    +0.000 A 
ATOM      3  C   UNL     1      -0.804  10.552  18.737  0.00  0.00    +0.000 A 
ATOM      4  C   UNL     1       0.523  10.303  19.101  0.00  0.00    +0.000 A 
ATOM      5  C   UNL     1       0.998  10.877  20.267  0.00  0.00    +0.000 A 
ATOM      6  N   UNL     1       0.242  11.606  21.121  0.00  0.00    +0.000 NA
ATOM      7  C   UNL     1      -1.036  11.891  20.745  0.00  0.00    +0.000 A 
ATOM      8  C   UNL     1      -1.571  11.426  19.521  0.00  0.00    +0.000 A 
ATOM      9  C   UNL     1      -2.787  11.870  18.991  0.00  0.00    +0.000 A 
ATOM     10  C   UNL     1      -3.371  11.238  17.856  0.00  0.00    +0.000 A 
ATOM     11  C   UNL     1      -3.375  13.154  19.494  0.00  0.00    +0.000 C 
ATOM     12  C   UNL     1      -2.854  13.683  20.865  0.00  0.00    +0.000 C 
ATOM     13  C   UNL     1      -4.131  13.943  21.712  0.00  0.00    +0.000 C 
ATOM     14  C   UNL     1      -4.791  13.171  22.868  0.00  0.00    +0.000 C 
ATOM     15  C   UNL     1      -3.763  12.306  23.614  0.00  0.00    +0.000 C 
ATOM     16  C   UNL     1      -2.273  12.333  23.102  0.00  0.00    +0.000 C 
ATOM     17  C   UNL     1      -1.829  12.836  21.656  0.00  0.00    +0.000 C 
ENDROOT
BRANCH   1  19
ATOM     18  C   UNL     1      -2.961  10.158  14.834  0.00  0.00    +0.000 C 
ATOM     19  O   UNL     1      -3.260   9.628  16.114  0.00  0.00    +0.000 OA
ENDBRANCH   1  19
BRANCH  10  20
ATOM     20  O   UNL     1      -4.633  11.702  17.568  0.00  0.00    +0.000 OA
ATOM     21  C   UNL     1      -5.743  10.978  18.074  0.00  0.00    +0.000 C 
ENDBRANCH  10  20
BRANCH  14  22
ATOM     22  O   UNL     1      -5.881  12.335  22.371  0.00  0.00    +0.000 OA
ATOM     23  H   UNL     1      -5.836  11.461  22.798  0.00  0.00    +0.000 HD
ENDBRANCH  14  22
BRANCH  15  24
ATOM     24  O   UNL     1      -3.864  12.827  24.955  0.00  0.00    +0.000 OA
ATOM     25  C   UNL     1      -3.352  14.125  25.165  0.00  0.00    +0.000 C 
ENDBRANCH  15  24
TORSDOF 4
ENDMDL
MODEL 7
REMARK VINA RESULT:      -5.7      9.506     12.079
REMARK  Name = 
REMARK  7 active torsions:
REMARK  status: ('A' for Active; 'I' for Inactive)
REMARK    1  A    between atoms: C_1  and  O_2
REMARK    2  A    between atoms: O_2  and  C_3
REMARK    3  A    between atoms: C_12  and  O_13
REMARK    4  A    between atoms: O_13  and  C_14
REMARK    5  A    between atoms: C_18  and  O_19
REMARK    6  A    between atoms: C_20  and  O_21
REMARK    7  A    between atoms: O_21  and  C_22
REMARK                            x       y       z     vdW  Elec       q    Type
REMARK                         _______ _______ _______ _____ _____    ______ ____
ROOT
ATOM      1  C   UNL     1       9.608  15.119  18.258  0.00  0.00    +0.000 A 
ATOM      2  C   UNL     1       9.764  13.762  17.935  0.00  0.00    +0.000 A 
ATOM      3  C   UNL     1       9.634  12.756  18.906  0.00  0.00    +0.000 A 
ATOM      4  C   UNL     1       9.861  11.414  18.585  0.00  0.00    +0.000 A 
ATOM      5  C   UNL     1       9.649  10.463  19.567  0.00  0.00    +0.000 A 
ATOM      6  N   UNL     1       9.165  10.737  20.801  0.00  0.00    +0.000 NA
ATOM      7  C   UNL     1       8.989  12.046  21.133  0.00  0.00    +0.000 A 
ATOM      8  C   UNL     1       9.275  13.088  20.222  0.00  0.00    +0.000 A 
ATOM      9  C   UNL     1       9.325  14.439  20.582  0.00  0.00    +0.000 A 
ATOM     10  C   UNL     1       9.431  15.462  19.596  0.00  0.00    +0.000 A 
ATOM     11  C   UNL     1       9.478  14.801  22.029  0.00  0.00    +0.000 C 
ATOM     12  C   UNL     1       9.125  13.702  23.076  0.00  0.00    +0.000 C 
ATOM     13  C   UNL     1       8.128  14.378  24.056  0.00  0.00    +0.000 C 
ATOM     14  C   UNL     1       6.601  14.274  24.229  0.00  0.00    +0.000 C 
ATOM     15  C   UNL     1       6.075  12.934  23.694  0.00  0.00    +0.000 C 
ATOM     16  C   UNL     1       7.119  11.929  23.076  0.00  0.00    +0.000 C 
ATOM     17  C   UNL     1       8.578  12.342  22.581  0.00  0.00    +0.000 C 
ENDROOT
BRANCH   1  19
ATOM     18  C   UNL     1      10.938  16.303  16.696  0.00  0.00    +0.000 C 
ATOM     19  O   UNL     1       9.683  16.112  17.326  0.00  0.00    +0.000 OA
ENDBRANCH   1  19
BRANCH  10  20
ATOM     20  O   UNL     1       9.310  16.729  20.115  0.00  0.00    +0.000 OA
ATOM     21  C   UNL     1      10.479  17.526  20.212  0.00  0.00    +0.000 C 
ENDBRANCH  10  20
BRANCH  14  22
ATOM     22  O   UNL     1       5.931  15.381  23.550  0.00  0.00    +0.000 OA
ATOM     23  H   UNL     1       6.598  16.014  23.231  0.00  0.00    +0.000 HD
ENDBRANCH  14  22
BRANCH  15  24
ATOM     24  O   UNL     1       5.449  12.378  24.870  0.00  0.00    +0.000 OA
ATOM     25  C   UNL     1       6.106  11.286  25.473  0.00  0.00    +0.000 C 
ENDBRANCH  15  24
TORSDOF 4
ENDMDL
MODEL 8
REMARK VINA RESULT:      -5.7      7.126     10.322
REMARK  Name = 
REMARK  7 active torsions:
REMARK  status: ('A' for Active; 'I' for Inactive)
REMARK    1  A    between atoms: C_1  and  O_2
REMARK    2  A    between atoms: O_2  and  C_3
REMARK    3  A    between atoms: C_12  and  O_13
REMARK    4  A    between atoms: O_13  and  C_14
REMARK    5  A    between atoms: C_18  and  O_19
REMARK    6  A    between atoms: C_20  and  O_21
REMARK    7  A    between atoms: O_21  and  C_22
REMARK                            x       y       z     vdW  Elec       q    Type
REMARK                         _______ _______ _______ _____ _____    ______ ____
ROOT
ATOM      1  C   UNL     1      -5.247  12.901  19.875  0.00  0.00    +0.000 A 
ATOM      2  C   UNL     1      -5.318  12.235  18.642  0.00  0.00    +0.000 A 
ATOM      3  C   UNL     1      -4.187  11.636  18.064  0.00  0.00    +0.000 A 
ATOM      4  C   UNL     1      -4.257  11.038  16.802  0.00  0.00    +0.000 A 
ATOM      5  C   UNL     1      -3.127  10.404  16.316  0.00  0.00    +0.000 A 
ATOM      6  N   UNL     1      -1.975  10.261  17.014  0.00  0.00    +0.000 NA
ATOM      7  C   UNL     1      -1.887  10.884  18.221  0.00  0.00    +0.000 A 
ATOM      8  C   UNL     1      -2.962  11.636  18.749  0.00  0.00    +0.000 A 
ATOM      9  C   UNL     1      -2.848  12.470  19.866  0.00  0.00    +0.000 A 
ATOM     10  C   UNL     1      -3.998  13.057  20.469  0.00  0.00    +0.000 A 
ATOM     11  C   UNL     1      -1.486  12.917  20.305  0.00  0.00    +0.000 C 
ATOM     12  C   UNL     1      -0.269  12.089  19.791  0.00  0.00    +0.000 C 
ATOM     13  C   UNL     1       0.548  11.732  21.064  0.00  0.00    +0.000 C 
ATOM     14  C   UNL     1       0.694  10.435  21.880  0.00  0.00    +0.000 C 
ATOM     15  C   UNL     1       0.394   9.201  21.014  0.00  0.00    +0.000 C 
ATOM     16  C   UNL     1      -0.006   9.440  19.510  0.00  0.00    +0.000 C 
ATOM     17  C   UNL     1      -0.527  10.831  18.929  0.00  0.00    +0.000 C 
ENDROOT
BRANCH   1  19
ATOM     18  C   UNL     1      -7.062  14.418  19.738  0.00  0.00    +0.000 C 
ATOM     19  O   UNL     1      -6.339  13.449  20.481  0.00  0.00    +0.000 OA
ENDBRANCH   1  19
BRANCH  10  20
ATOM     20  O   UNL     1      -3.716  13.717  21.641  0.00  0.00    +0.000 OA
ATOM     21  C   UNL     1      -3.804  15.132  21.650  0.00  0.00    +0.000 C 
ENDBRANCH  10  20
BRANCH  14  22
ATOM     22  O   UNL     1      -0.189  10.457  23.043  0.00  0.00    +0.000 OA
ATOM     23  H   UNL     1       0.076  11.184  23.634  0.00  0.00    +0.000 HD
ENDBRANCH  14  22
BRANCH  15  24
ATOM     24  O   UNL     1       1.632   8.468  21.116  0.00  0.00    +0.000 OA
ATOM     25  C   UNL     1       1.931   7.591  20.052  0.00  0.00    +0.000 C 
ENDBRANCH  15  24
TORSDOF 4
ENDMDL
MODEL 9
REMARK VINA RESULT:      -5.6      5.840      8.841
REMARK  Name = 
REMARK  7 active torsions:
REMARK  status: ('A' for Active; 'I' for Inactive)
REMARK    1  A    between atoms: C_1  and  O_2
REMARK    2  A    between atoms: O_2  and  C_3
REMARK    3  A    between atoms: C_12  and  O_13
REMARK    4  A    between atoms: O_13  and  C_14
REMARK    5  A    between atoms: C_18  and  O_19
REMARK    6  A    between atoms: C_20  and  O_21
REMARK    7  A    between atoms: O_21  and  C_22
REMARK                            x       y       z     vdW  Elec       q    Type
REMARK                         _______ _______ _______ _____ _____    ______ ____
ROOT
ATOM      1  C   UNL     1       1.367   8.298  20.562  0.00  0.00    +0.000 A 
ATOM      2  C   UNL     1       0.895   8.816  21.778  0.00  0.00    +0.000 A 
ATOM      3  C   UNL     1      -0.007   9.892  21.817  0.00  0.00    +0.000 A 
ATOM      4  C   UNL     1      -0.414  10.444  23.035  0.00  0.00    +0.000 A 
ATOM      5  C   UNL     1      -1.357  11.456  23.011  0.00  0.00    +0.000 A 
ATOM      6  N   UNL     1      -1.969  11.901  21.888  0.00  0.00    +0.000 NA
ATOM      7  C   UNL     1      -1.540  11.401  20.696  0.00  0.00    +0.000 A 
ATOM      8  C   UNL     1      -0.510  10.433  20.624  0.00  0.00    +0.000 A 
ATOM      9  C   UNL     1       0.113  10.056  19.430  0.00  0.00    +0.000 A 
ATOM     10  C   UNL     1       1.009   8.948  19.385  0.00  0.00    +0.000 A 
ATOM     11  C   UNL     1       0.000  10.953  18.235  0.00  0.00    +0.000 C 
ATOM     12  C   UNL     1      -1.151  12.004  18.243  0.00  0.00    +0.000 C 
ATOM     13  C   UNL     1      -1.899  11.799  16.897  0.00  0.00    +0.000 C 
ATOM     14  C   UNL     1      -3.237  11.128  16.538  0.00  0.00    +0.000 C 
ATOM     15  C   UNL     1      -4.191  11.119  17.742  0.00  0.00    +0.000 C 
ATOM     16  C   UNL     1      -3.678  11.755  19.089  0.00  0.00    +0.000 C 
ATOM     17  C   UNL     1      -2.144  12.020  19.430  0.00  0.00    +0.000 C 
ENDROOT
BRANCH   1  19
ATOM     18  C   UNL     1       1.609   5.942  20.595  0.00  0.00    +0.000 C 
ATOM     19  O   UNL     1       2.206   7.224  20.494  0.00  0.00    +0.000 OA
ENDBRANCH   1  19
BRANCH  10  20
ATOM     20  O   UNL     1       1.406   8.627  18.108  0.00  0.00    +0.000 OA
ATOM     21  C   UNL     1       2.796   8.568  17.836  0.00  0.00    +0.000 C 
ENDBRANCH  10  20
BRANCH  14  22
ATOM     22  O   UNL     1      -3.017   9.763  16.064  0.00  0.00    +0.000 OA
ATOM     23  H   UNL     1      -2.329   9.341  16.607  0.00  0.00    +0.000 HD
ENDBRANCH  14  22
BRANCH  15  24
ATOM     24  O   UNL     1      -5.323  11.845  17.220  0.00  0.00    +0.000 OA
ATOM     25  C   UNL     1      -6.014  12.671  18.131  0.00  0.00    +0.000 C 
ENDBRANCH  15  24
TORSDOF 4
ENDMDL
