MODEL 1
REMARK VINA RESULT:      -8.0      0.000      0.000
REMARK  Name = 
REMARK  7 active torsions:
REMARK  status: ('A' for Active; 'I' for Inactive)
REMARK    1  A    between atoms: C_1  and  C_2
REMARK    2  A    between atoms: N_4  and  C_5
REMARK    3  A    between atoms: C_9  and  S_10
REMARK    4  A    between atoms: S_10  and  N_13
REMARK    5  A    between atoms: N_13  and  C_14
REMARK    6  A    between atoms: C_19  and  C_20
REMARK    7  A    between atoms: C_20  and  O_22
REMARK                            x       y       z     vdW  Elec       q    Type
REMARK                         _______ _______ _______ _____ _____    ______ ____
ROOT
ATOM      1  S   UNL     1       2.370   5.873  19.211  0.00  0.00    +0.000 S 
ATOM      2  O   UNL     1       1.954   5.401  20.519  0.00  0.00    +0.000 OA
ATOM      3  O   UNL     1       1.862   5.265  18.003  0.00  0.00    +0.000 OA
ENDROOT
BRANCH   1   8
ATOM      4  C   UNL     1       1.129   9.642  20.207  0.00  0.00    +0.000 A 
ATOM      5  C   UNL     1       1.319  10.292  18.970  0.00  0.00    +0.000 A 
ATOM      6  C   UNL     1       1.825   9.634  17.847  0.00  0.00    +0.000 A 
ATOM      7  C   UNL     1       2.174   8.293  17.931  0.00  0.00    +0.000 A 
ATOM      8  C   UNL     1       2.024   7.625  19.148  0.00  0.00    +0.000 A 
ATOM      9  C   UNL     1       1.504   8.288  20.279  0.00  0.00    +0.000 A 
BRANCH   4  13
ATOM     10  C   UNL     1      -0.589  13.603  22.358  0.00  0.00    +0.000 C 
ATOM     11  C   UNL     1      -0.286  12.177  22.077  0.00  0.00    +0.000 C 
ATOM     12  N   UNL     1       0.625  11.737  21.264  0.00  0.00    +0.000 NA
ATOM     13  N   UNL     1       0.584  10.352  21.284  0.00  0.00    +0.000 N 
ATOM     14  C   UNL     1      -0.434   9.801  22.196  0.00  0.00    +0.000 C 
ATOM     15  C   UNL     1      -1.055  11.068  22.703  0.00  0.00    +0.000 C 
ATOM     16  O   UNL     1      -1.998  11.235  23.449  0.00  0.00    +0.000 OA
ENDBRANCH   4  13
ENDBRANCH   1   8
BRANCH   1  17
ATOM     17  N   UNL     1       4.076   5.828  19.149  0.00  0.00    +0.000 N 
ATOM     18  H   UNL     1       4.432   5.223  19.903  0.00  0.00    +0.000 HD
BRANCH  17  19
ATOM     19  C   UNL     1       4.604   5.449  17.857  0.00  0.00    +0.000 A 
ATOM     20  C   UNL     1       4.863   6.455  16.920  0.00  0.00    +0.000 A 
ATOM     21  C   UNL     1       5.319   6.128  15.638  0.00  0.00    +0.000 A 
ATOM     22  C   UNL     1       5.530   4.797  15.284  0.00  0.00    +0.000 A 
ATOM     23  C   UNL     1       5.277   3.784  16.211  0.00  0.00    +0.000 A 
ATOM     24  C   UNL     1       4.775   4.100  17.485  0.00  0.00    +0.000 A 
BRANCH  24  25
ATOM     25  C   UNL     1       4.464   3.022  18.458  0.00  0.00    +0.000 C 
ATOM     26  O   UNL     1       3.532   2.246  18.305  0.00  0.00    +0.000 OA
BRANCH  25  27
ATOM     27  O   UNL     1       5.308   2.956  19.510  0.00  0.00    +0.000 OA
ATOM     28  H   UNL     1       6.128   3.477  19.412  0.00  0.00    +0.000 HD
ENDBRANCH  25  27
ENDBRANCH  24  25
ENDBRANCH  17  19
ENDBRANCH   1  17
TORSDOF 6
ENDMDL
MODEL 2
REMARK VINA RESULT:      -7.9      3.157      8.284
REMARK  Name = 
REMARK  7 active torsions:
REMARK  status: ('A' for Active; 'I' for Inactive)
REMARK    1  A    between atoms: C_1  and  C_2
REMARK    2  A    between atoms: N_4  and  C_5
REMARK    3  A    between atoms: C_9  and  S_10
REMARK    4  A    between atoms: S_10  and  N_13
REMARK    5  A    between atoms: N_13  and  C_14
REMARK    6  A    between atoms: C_19  and  C_20
REMARK    7  A    between atoms: C_20  and  O_22
REMARK                            x       y       z     vdW  Elec       q    Type
REMARK                         _______ _______ _______ _____ _____    ______ ____
ROOT
ATOM      1  S   UNL     1       0.452  10.208  20.298  0.00  0.00    +0.000 S 
ATOM      2  O   UNL     1      -0.746   9.568  20.811  0.00  0.00    +0.000 OA
ATOM      3  O   UNL     1       1.347  10.925  21.175  0.00  0.00    +0.000 OA
ENDROOT
BRANCH   1   8
ATOM      4  C   UNL     1       2.528   6.788  19.442  0.00  0.00    +0.000 A 
ATOM      5  C   UNL     1       3.004   7.111  18.155  0.00  0.00    +0.000 A 
ATOM      6  C   UNL     1       2.707   8.324  17.528  0.00  0.00    +0.000 A 
ATOM      7  C   UNL     1       1.903   9.255  18.171  0.00  0.00    +0.000 A 
ATOM      8  C   UNL     1       1.391   8.955  19.436  0.00  0.00    +0.000 A 
ATOM      9  C   UNL     1       1.700   7.734  20.071  0.00  0.00    +0.000 A 
BRANCH   4  13
ATOM     10  C   UNL     1       1.612   2.602  21.659  0.00  0.00    +0.000 C 
ATOM     11  C   UNL     1       2.321   3.663  20.900  0.00  0.00    +0.000 C 
ATOM     12  N   UNL     1       1.979   4.914  20.838  0.00  0.00    +0.000 NA
ATOM     13  N   UNL     1       2.892   5.569  20.027  0.00  0.00    +0.000 N 
ATOM     14  C   UNL     1       3.953   4.692  19.500  0.00  0.00    +0.000 C 
ATOM     15  C   UNL     1       3.523   3.374  20.072  0.00  0.00    +0.000 C 
ATOM     16  O   UNL     1       3.991   2.264  19.923  0.00  0.00    +0.000 OA
ENDBRANCH   4  13
ENDBRANCH   1   8
BRANCH   1  17
ATOM     17  N   UNL     1      -0.009  11.261  19.035  0.00  0.00    +0.000 N 
ATOM     18  H   UNL     1       0.683  11.208  18.273  0.00  0.00    +0.000 HD
BRANCH  17  19
ATOM     19  C   UNL     1      -1.357  11.046  18.557  0.00  0.00    +0.000 A 
ATOM     20  C   UNL     1      -1.565  10.094  17.552  0.00  0.00    +0.000 A 
ATOM     21  C   UNL     1      -2.844   9.896  17.019  0.00  0.00    +0.000 A 
ATOM     22  C   UNL     1      -3.925  10.637  17.491  0.00  0.00    +0.000 A 
ATOM     23  C   UNL     1      -3.731  11.588  18.494  0.00  0.00    +0.000 A 
ATOM     24  C   UNL     1      -2.443  11.826  19.003  0.00  0.00    +0.000 A 
BRANCH  24  25
ATOM     25  C   UNL     1      -2.225  12.868  20.039  0.00  0.00    +0.000 C 
ATOM     26  O   UNL     1      -2.639  12.754  21.183  0.00  0.00    +0.000 OA
BRANCH  25  27
ATOM     27  O   UNL     1      -1.513  13.936  19.619  0.00  0.00    +0.000 OA
ATOM     28  H   UNL     1      -1.180  14.513  20.332  0.00  0.00    +0.000 HD
ENDBRANCH  25  27
ENDBRANCH  24  25
ENDBRANCH  17  19
ENDBRANCH   1  17
TORSDOF 6
ENDMDL
MODEL 3
REMARK VINA RESULT:      -7.9      4.285      8.346
REMARK  Name = 
REMARK  7 active torsions:
REMARK  status: ('A' for Active; 'I' for Inactive)
REMARK    1  A    between atoms: C_1  and  C_2
REMARK    2  A    between atoms: N_4  and  C_5
REMARK    3  A    between atoms: C_9  and  S_10
REMARK    4  A    between atoms: S_10  and  N_13
REMARK    5  A    between atoms: N_13  and  C_14
REMARK    6  A    between atoms: C_19  and  C_20
REMARK    7  A    between atoms: C_20  and  O_22
REMARK                            x       y       z     vdW  Elec       q    Type
REMARK                         _______ _______ _______ _____ _____    ______ ____
ROOT
ATOM      1  S   UNL     1       3.658   2.293  18.711  0.00  0.00    +0.000 S 
ATOM      2  O   UNL     1       3.727   1.194  17.766  0.00  0.00    +0.000 OA
ATOM      3  O   UNL     1       3.914   2.083  20.117  0.00  0.00    +0.000 OA
ENDROOT
BRANCH   1   8
ATOM      4  C   UNL     1       5.956   4.640  16.273  0.00  0.00    +0.000 A 
ATOM      5  C   UNL     1       6.621   5.416  17.243  0.00  0.00    +0.000 A 
ATOM      6  C   UNL     1       6.388   5.267  18.612  0.00  0.00    +0.000 A 
ATOM      7  C   UNL     1       5.460   4.334  19.057  0.00  0.00    +0.000 A 
ATOM      8  C   UNL     1       4.763   3.567  18.121  0.00  0.00    +0.000 A 
ATOM      9  C   UNL     1       5.008   3.712  16.739  0.00  0.00    +0.000 A 
BRANCH   4  13
ATOM     10  C   UNL     1       8.852   5.856  12.611  0.00  0.00    +0.000 C 
ATOM     11  C   UNL     1       7.718   5.270  13.369  0.00  0.00    +0.000 C 
ATOM     12  N   UNL     1       7.358   5.594  14.574  0.00  0.00    +0.000 NA
ATOM     13  N   UNL     1       6.264   4.816  14.918  0.00  0.00    +0.000 N 
ATOM     14  C   UNL     1       5.835   3.891  13.854  0.00  0.00    +0.000 C 
ATOM     15  C   UNL     1       6.871   4.182  12.810  0.00  0.00    +0.000 C 
ATOM     16  O   UNL     1       7.057   3.670  11.725  0.00  0.00    +0.000 OA
ENDBRANCH   4  13
ENDBRANCH   1   8
BRANCH   1  17
ATOM     17  N   UNL     1       2.125   3.031  18.557  0.00  0.00    +0.000 N 
ATOM     18  H   UNL     1       1.414   2.447  19.022  0.00  0.00    +0.000 HD
BRANCH  17  19
ATOM     19  C   UNL     1       2.086   4.401  19.019  0.00  0.00    +0.000 A 
ATOM     20  C   UNL     1       2.340   5.423  18.098  0.00  0.00    +0.000 A 
ATOM     21  C   UNL     1       2.371   6.759  18.514  0.00  0.00    +0.000 A 
ATOM     22  C   UNL     1       2.139   7.086  19.848  0.00  0.00    +0.000 A 
ATOM     23  C   UNL     1       1.882   6.075  20.776  0.00  0.00    +0.000 A 
ATOM     24  C   UNL     1       1.895   4.728  20.376  0.00  0.00    +0.000 A 
BRANCH  24  25
ATOM     25  C   UNL     1       1.665   3.648  21.369  0.00  0.00    +0.000 C 
ATOM     26  O   UNL     1       2.341   3.529  22.380  0.00  0.00    +0.000 OA
BRANCH  25  27
ATOM     27  O   UNL     1       0.635   2.825  21.074  0.00  0.00    +0.000 OA
ATOM     28  H   UNL     1       0.485   2.108  21.719  0.00  0.00    +0.000 HD
ENDBRANCH  25  27
ENDBRANCH  24  25
ENDBRANCH  17  19
ENDBRANCH   1  17
TORSDOF 6
ENDMDL
MODEL 4
REMARK VINA RESULT:      -7.6      4.343      8.271
REMARK  Name = 
REMARK  7 active torsions:
REMARK  status: ('A' for Active; 'I' for Inactive)
REMARK    1  A    between atoms: C_1  and  C_2
REMARK    2  A    between atoms: N_4  and  C_5
REMARK    3  A    between atoms: C_9  and  S_10
REMARK    4  A    between atoms: S_10  and  N_13
REMARK    5  A    between atoms: N_13  and  C_14
REMARK    6  A    between atoms: C_19  and  C_20
REMARK    7  A    between atoms: C_20  and  O_22
REMARK                            x       y       z     vdW  Elec       q    Type
REMARK                         _______ _______ _______ _____ _____    ______ ____
ROOT
ATOM      1  S   UNL     1       3.151   6.666  18.201  0.00  0.00    +0.000 S 
ATOM      2  O   UNL     1       2.888   8.088  18.327  0.00  0.00    +0.000 OA
ATOM      3  O   UNL     1       2.202   5.787  17.559  0.00  0.00    +0.000 OA
ENDROOT
BRANCH   1   8
ATOM      4  C   UNL     1       6.099   5.451  15.636  0.00  0.00    +0.000 A 
ATOM      5  C   UNL     1       7.209   6.088  16.228  0.00  0.00    +0.000 A 
ATOM      6  C   UNL     1       7.097   6.886  17.368  0.00  0.00    +0.000 A 
ATOM      7  C   UNL     1       5.852   7.086  17.951  0.00  0.00    +0.000 A 
ATOM      8  C   UNL     1       4.727   6.493  17.375  0.00  0.00    +0.000 A 
ATOM      9  C   UNL     1       4.844   5.679  16.229  0.00  0.00    +0.000 A 
BRANCH   4  13
ATOM     10  C   UNL     1       4.620   3.118  11.682  0.00  0.00    +0.000 C 
ATOM     11  C   UNL     1       5.508   3.750  12.689  0.00  0.00    +0.000 C 
ATOM     12  N   UNL     1       5.179   4.068  13.904  0.00  0.00    +0.000 NA
ATOM     13  N   UNL     1       6.287   4.636  14.514  0.00  0.00    +0.000 N 
ATOM     14  C   UNL     1       7.475   4.700  13.645  0.00  0.00    +0.000 C 
ATOM     15  C   UNL     1       6.914   4.128  12.377  0.00  0.00    +0.000 C 
ATOM     16  O   UNL     1       7.425   3.988  11.286  0.00  0.00    +0.000 OA
ENDBRANCH   4  13
ENDBRANCH   1   8
BRANCH   1  17
ATOM     17  N   UNL     1       3.478   6.047  19.758  0.00  0.00    +0.000 N 
ATOM     18  H   UNL     1       3.241   6.756  20.467  0.00  0.00    +0.000 HD
BRANCH  17  19
ATOM     19  C   UNL     1       2.839   4.777  20.029  0.00  0.00    +0.000 A 
ATOM     20  C   UNL     1       1.595   4.780  20.669  0.00  0.00    +0.000 A 
ATOM     21  C   UNL     1       0.969   3.573  21.003  0.00  0.00    +0.000 A 
ATOM     22  C   UNL     1       1.573   2.357  20.691  0.00  0.00    +0.000 A 
ATOM     23  C   UNL     1       2.813   2.342  20.050  0.00  0.00    +0.000 A 
ATOM     24  C   UNL     1       3.471   3.548  19.753  0.00  0.00    +0.000 A 
BRANCH  24  25
ATOM     25  C   UNL     1       4.810   3.535  19.111  0.00  0.00    +0.000 C 
ATOM     26  O   UNL     1       5.792   4.048  19.626  0.00  0.00    +0.000 OA
BRANCH  25  27
ATOM     27  O   UNL     1       4.856   2.890  17.925  0.00  0.00    +0.000 OA
ATOM     28  H   UNL     1       5.745   2.823  17.529  0.00  0.00    +0.000 HD
ENDBRANCH  25  27
ENDBRANCH  24  25
ENDBRANCH  17  19
ENDBRANCH   1  17
TORSDOF 6
ENDMDL
MODEL 5
REMARK VINA RESULT:      -7.6      4.732      8.415
REMARK  Name = 
REMARK  7 active torsions:
REMARK  status: ('A' for Active; 'I' for Inactive)
REMARK    1  A    between atoms: C_1  and  C_2
REMARK    2  A    between atoms: N_4  and  C_5
REMARK    3  A    between atoms: C_9  and  S_10
REMARK    4  A    between atoms: S_10  and  N_13
REMARK    5  A    between atoms: N_13  and  C_14
REMARK    6  A    between atoms: C_19  and  C_20
REMARK    7  A    between atoms: C_20  and  O_22
REMARK                            x       y       z     vdW  Elec       q    Type
REMARK                         _______ _______ _______ _____ _____    ______ ____
ROOT
ATOM      1  S   UNL     1       3.360   6.211  18.338  0.00  0.00    +0.000 S 
ATOM      2  O   UNL     1       3.404   6.390  19.777  0.00  0.00    +0.000 OA
ATOM      3  O   UNL     1       2.892   7.266  17.470  0.00  0.00    +0.000 OA
ENDROOT
BRANCH   1   8
ATOM      4  C   UNL     1       6.498   4.850  16.093  0.00  0.00    +0.000 A 
ATOM      5  C   UNL     1       7.507   4.829  17.078  0.00  0.00    +0.000 A 
ATOM      6  C   UNL     1       7.276   5.227  18.397  0.00  0.00    +0.000 A 
ATOM      7  C   UNL     1       6.018   5.678  18.772  0.00  0.00    +0.000 A 
ATOM      8  C   UNL     1       5.002   5.738  17.815  0.00  0.00    +0.000 A 
ATOM      9  C   UNL     1       5.234   5.326  16.486  0.00  0.00    +0.000 A 
BRANCH   4  13
ATOM     10  C   UNL     1       5.377   2.849  11.850  0.00  0.00    +0.000 C 
ATOM     11  C   UNL     1       6.109   3.609  12.894  0.00  0.00    +0.000 C 
ATOM     12  N   UNL     1       5.905   3.537  14.174  0.00  0.00    +0.000 NA
ATOM     13  N   UNL     1       6.788   4.404  14.798  0.00  0.00    +0.000 N 
ATOM     14  C   UNL     1       7.677   5.119  13.865  0.00  0.00    +0.000 C 
ATOM     15  C   UNL     1       7.170   4.596  12.555  0.00  0.00    +0.000 C 
ATOM     16  O   UNL     1       7.490   4.881  11.419  0.00  0.00    +0.000 OA
ENDBRANCH   4  13
ENDBRANCH   1   8
BRANCH   1  17
ATOM     17  N   UNL     1       2.446   4.807  18.005  0.00  0.00    +0.000 N 
ATOM     18  H   UNL     1       2.922   4.251  17.280  0.00  0.00    +0.000 HD
BRANCH  17  19
ATOM     19  C   UNL     1       2.140   4.017  19.178  0.00  0.00    +0.000 A 
ATOM     20  C   UNL     1       1.065   4.408  19.984  0.00  0.00    +0.000 A 
ATOM     21  C   UNL     1       0.770   3.708  21.159  0.00  0.00    +0.000 A 
ATOM     22  C   UNL     1       1.538   2.607  21.533  0.00  0.00    +0.000 A 
ATOM     23  C   UNL     1       2.611   2.206  20.736  0.00  0.00    +0.000 A 
ATOM     24  C   UNL     1       2.943   2.931  19.579  0.00  0.00    +0.000 A 
BRANCH  24  25
ATOM     25  C   UNL     1       4.111   2.533  18.753  0.00  0.00    +0.000 C 
ATOM     26  O   UNL     1       4.023   2.304  17.556  0.00  0.00    +0.000 OA
BRANCH  25  27
ATOM     27  O   UNL     1       5.279   2.469  19.428  0.00  0.00    +0.000 OA
ATOM     28  H   UNL     1       5.247   2.822  20.337  0.00  0.00    +0.000 HD
ENDBRANCH  25  27
ENDBRANCH  24  25
ENDBRANCH  17  19
ENDBRANCH   1  17
TORSDOF 6
ENDMDL
MODEL 6
REMARK VINA RESULT:      -7.6      4.494      8.185
REMARK  Name = 
REMARK  7 active torsions:
REMARK  status: ('A' for Active; 'I' for Inactive)
REMARK    1  A    between atoms: C_1  and  C_2
REMARK    2  A    between atoms: N_4  and  C_5
REMARK    3  A    between atoms: C_9  and  S_10
REMARK    4  A    between atoms: S_10  and  N_13
REMARK    5  A    between atoms: N_13  and  C_14
REMARK    6  A    between atoms: C_19  and  C_20
REMARK    7  A    between atoms: C_20  and  O_22
REMARK                            x       y       z     vdW  Elec       q    Type
REMARK                         _______ _______ _______ _____ _____    ______ ____
ROOT
ATOM      1  S   UNL     1       2.914   6.661  18.384  0.00  0.00    +0.000 S 
ATOM      2  O   UNL     1       2.868   6.954  19.804  0.00  0.00    +0.000 OA
ATOM      3  O   UNL     1       2.655   7.688  17.402  0.00  0.00    +0.000 OA
ENDROOT
BRANCH   1   8
ATOM      4  C   UNL     1       6.066   4.881  16.478  0.00  0.00    +0.000 A 
ATOM      5  C   UNL     1       6.924   4.672  17.577  0.00  0.00    +0.000 A 
ATOM      6  C   UNL     1       6.590   5.063  18.875  0.00  0.00    +0.000 A 
ATOM      7  C   UNL     1       5.378   5.698  19.114  0.00  0.00    +0.000 A 
ATOM      8  C   UNL     1       4.516   5.947  18.044  0.00  0.00    +0.000 A 
ATOM      9  C   UNL     1       4.851   5.541  16.735  0.00  0.00    +0.000 A 
BRANCH   4  13
ATOM     10  C   UNL     1       5.206   3.201  12.039  0.00  0.00    +0.000 C 
ATOM     11  C   UNL     1       5.905   3.808  13.199  0.00  0.00    +0.000 C 
ATOM     12  N   UNL     1       5.531   3.733  14.440  0.00  0.00    +0.000 NA
ATOM     13  N   UNL     1       6.448   4.432  15.208  0.00  0.00    +0.000 N 
ATOM     14  C   UNL     1       7.547   5.025  14.426  0.00  0.00    +0.000 C 
ATOM     15  C   UNL     1       7.138   4.625  13.039  0.00  0.00    +0.000 C 
ATOM     16  O   UNL     1       7.641   4.889  11.967  0.00  0.00    +0.000 OA
ENDBRANCH   4  13
ENDBRANCH   1   8
BRANCH   1  17
ATOM     17  N   UNL     1       1.854   5.357  18.077  0.00  0.00    +0.000 N 
ATOM     18  H   UNL     1       2.063   4.954  17.152  0.00  0.00    +0.000 HD
BRANCH  17  19
ATOM     19  C   UNL     1       1.849   4.351  19.117  0.00  0.00    +0.000 A 
ATOM     20  C   UNL     1       1.349   4.696  20.377  0.00  0.00    +0.000 A 
ATOM     21  C   UNL     1       1.379   3.772  21.428  0.00  0.00    +0.000 A 
ATOM     22  C   UNL     1       1.899   2.494  21.226  0.00  0.00    +0.000 A 
ATOM     23  C   UNL     1       2.398   2.138  19.973  0.00  0.00    +0.000 A 
ATOM     24  C   UNL     1       2.414   3.074  18.925  0.00  0.00    +0.000 A 
BRANCH  24  25
ATOM     25  C   UNL     1       2.985   2.712  17.603  0.00  0.00    +0.000 C 
ATOM     26  O   UNL     1       4.063   2.147  17.484  0.00  0.00    +0.000 OA
BRANCH  25  27
ATOM     27  O   UNL     1       2.206   3.036  16.549  0.00  0.00    +0.000 OA
ATOM     28  H   UNL     1       1.916   3.967  16.524  0.00  0.00    +0.000 HD
ENDBRANCH  25  27
ENDBRANCH  24  25
ENDBRANCH  17  19
ENDBRANCH   1  17
TORSDOF 6
ENDMDL
MODEL 7
REMARK VINA RESULT:      -7.5      1.648      2.022
REMARK  Name = 
REMARK  7 active torsions:
REMARK  status: ('A' for Active; 'I' for Inactive)
REMARK    1  A    between atoms: C_1  and  C_2
REMARK    2  A    between atoms: N_4  and  C_5
REMARK    3  A    between atoms: C_9  and  S_10
REMARK    4  A    between atoms: S_10  and  N_13
REMARK    5  A    between atoms: N_13  and  C_14
REMARK    6  A    between atoms: C_19  and  C_20
REMARK    7  A    between atoms: C_20  and  O_22
REMARK                            x       y       z     vdW  Elec       q    Type
REMARK                         _______ _______ _______ _____ _____    ______ ____
ROOT
ATOM      1  S   UNL     1       2.974   5.170  19.561  0.00  0.00    +0.000 S 
ATOM      2  O   UNL     1       2.529   4.799  20.892  0.00  0.00    +0.000 OA
ATOM      3  O   UNL     1       2.613   4.379  18.408  0.00  0.00    +0.000 OA
ENDROOT
BRANCH   1   8
ATOM      4  C   UNL     1       1.427   8.917  20.114  0.00  0.00    +0.000 A 
ATOM      5  C   UNL     1       1.450   9.385  18.784  0.00  0.00    +0.000 A 
ATOM      6  C   UNL     1       1.931   8.613  17.725  0.00  0.00    +0.000 A 
ATOM      7  C   UNL     1       2.424   7.338  17.969  0.00  0.00    +0.000 A 
ATOM      8  C   UNL     1       2.442   6.853  19.278  0.00  0.00    +0.000 A 
ATOM      9  C   UNL     1       1.946   7.631  20.345  0.00  0.00    +0.000 A 
BRANCH   4  13
ATOM     10  C   UNL     1      -0.519  12.987  21.822  0.00  0.00    +0.000 C 
ATOM     11  C   UNL     1      -0.093  11.569  21.723  0.00  0.00    +0.000 C 
ATOM     12  N   UNL     1       0.792  11.094  20.900  0.00  0.00    +0.000 NA
ATOM     13  N   UNL     1       0.897   9.730  21.123  0.00  0.00    +0.000 N 
ATOM     14  C   UNL     1       0.017   9.235  22.196  0.00  0.00    +0.000 C 
ATOM     15  C   UNL     1      -0.691  10.503  22.571  0.00  0.00    +0.000 C 
ATOM     16  O   UNL     1      -1.585  10.696  23.369  0.00  0.00    +0.000 OA
ENDBRANCH   4  13
ENDBRANCH   1   8
BRANCH   1  17
ATOM     17  N   UNL     1       4.675   5.318  19.591  0.00  0.00    +0.000 N 
ATOM     18  H   UNL     1       5.056   4.745  20.359  0.00  0.00    +0.000 HD
BRANCH  17  19
ATOM     19  C   UNL     1       5.310   5.019  18.327  0.00  0.00    +0.000 A 
ATOM     20  C   UNL     1       4.538   4.445  17.311  0.00  0.00    +0.000 A 
ATOM     21  C   UNL     1       5.125   4.085  16.093  0.00  0.00    +0.000 A 
ATOM     22  C   UNL     1       6.484   4.305  15.875  0.00  0.00    +0.000 A 
ATOM     23  C   UNL     1       7.264   4.878  16.879  0.00  0.00    +0.000 A 
ATOM     24  C   UNL     1       6.693   5.200  18.123  0.00  0.00    +0.000 A 
BRANCH  24  25
ATOM     25  C   UNL     1       7.530   5.770  19.209  0.00  0.00    +0.000 C 
ATOM     26  O   UNL     1       7.584   5.276  20.325  0.00  0.00    +0.000 OA
BRANCH  25  27
ATOM     27  O   UNL     1       8.241   6.861  18.854  0.00  0.00    +0.000 OA
ATOM     28  H   UNL     1       8.670   7.331  19.594  0.00  0.00    +0.000 HD
ENDBRANCH  25  27
ENDBRANCH  24  25
ENDBRANCH  17  19
ENDBRANCH   1  17
TORSDOF 6
ENDMDL
MODEL 8
REMARK VINA RESULT:      -7.5      2.447      3.783
REMARK  Name = 
REMARK  7 active torsions:
REMARK  status: ('A' for Active; 'I' for Inactive)
REMARK    1  A    between atoms: C_1  and  C_2
REMARK    2  A    between atoms: N_4  and  C_5
REMARK    3  A    between atoms: C_9  and  S_10
REMARK    4  A    between atoms: S_10  and  N_13
REMARK    5  A    between atoms: N_13  and  C_14
REMARK    6  A    between atoms: C_19  and  C_20
REMARK    7  A    between atoms: C_20  and  O_22
REMARK                            x       y       z     vdW  Elec       q    Type
REMARK                         _______ _______ _______ _____ _____    ______ ____
ROOT
ATOM      1  S   UNL     1       4.425   4.040  17.953  0.00  0.00    +0.000 S 
ATOM      2  O   UNL     1       5.686   3.993  18.670  0.00  0.00    +0.000 OA
ATOM      3  O   UNL     1       3.898   2.868  17.294  0.00  0.00    +0.000 OA
ENDROOT
BRANCH   1   8
ATOM      4  C   UNL     1       2.044   6.525  20.166  0.00  0.00    +0.000 A 
ATOM      5  C   UNL     1       1.419   5.577  21.002  0.00  0.00    +0.000 A 
ATOM      6  C   UNL     1       1.680   4.208  20.911  0.00  0.00    +0.000 A 
ATOM      7  C   UNL     1       2.575   3.738  19.959  0.00  0.00    +0.000 A 
ATOM      8  C   UNL     1       3.191   4.647  19.096  0.00  0.00    +0.000 A 
ATOM      9  C   UNL     1       2.934   6.030  19.196  0.00  0.00    +0.000 A 
BRANCH   4  13
ATOM     10  C   UNL     1       0.551  10.857  18.660  0.00  0.00    +0.000 C 
ATOM     11  C   UNL     1       0.941   9.741  19.556  0.00  0.00    +0.000 C 
ATOM     12  N   UNL     1       1.612   8.684  19.211  0.00  0.00    +0.000 NA
ATOM     13  N   UNL     1       1.763   7.886  20.335  0.00  0.00    +0.000 N 
ATOM     14  C   UNL     1       1.153   8.452  21.551  0.00  0.00    +0.000 C 
ATOM     15  C   UNL     1       0.552   9.708  20.992  0.00  0.00    +0.000 C 
ATOM     16  O   UNL     1      -0.132  10.555  21.527  0.00  0.00    +0.000 OA
ENDBRANCH   4  13
ENDBRANCH   1   8
BRANCH   1  17
ATOM     17  N   UNL     1       4.516   5.299  16.803  0.00  0.00    +0.000 N 
ATOM     18  H   UNL     1       4.746   6.184  17.279  0.00  0.00    +0.000 HD
BRANCH  17  19
ATOM     19  C   UNL     1       5.419   5.025  15.707  0.00  0.00    +0.000 A 
ATOM     20  C   UNL     1       4.967   4.222  14.654  0.00  0.00    +0.000 A 
ATOM     21  C   UNL     1       5.826   3.883  13.602  0.00  0.00    +0.000 A 
ATOM     22  C   UNL     1       7.139   4.351  13.588  0.00  0.00    +0.000 A 
ATOM     23  C   UNL     1       7.601   5.155  14.631  0.00  0.00    +0.000 A 
ATOM     24  C   UNL     1       6.759   5.462  15.714  0.00  0.00    +0.000 A 
BRANCH  24  25
ATOM     25  C   UNL     1       7.262   6.280  16.847  0.00  0.00    +0.000 C 
ATOM     26  O   UNL     1       7.092   7.488  16.912  0.00  0.00    +0.000 OA
BRANCH  25  27
ATOM     27  O   UNL     1       7.899   5.576  17.807  0.00  0.00    +0.000 OA
ATOM     28  H   UNL     1       8.678   6.020  18.193  0.00  0.00    +0.000 HD
ENDBRANCH  25  27
ENDBRANCH  24  25
ENDBRANCH  17  19
ENDBRANCH   1  17
TORSDOF 6
ENDMDL
MODEL 9
REMARK VINA RESULT:      -7.5      2.733      8.754
REMARK  Name = 
REMARK  7 active torsions:
REMARK  status: ('A' for Active; 'I' for Inactive)
REMARK    1  A    between atoms: C_1  and  C_2
REMARK    2  A    between atoms: N_4  and  C_5
REMARK    3  A    between atoms: C_9  and  S_10
REMARK    4  A    between atoms: S_10  and  N_13
REMARK    5  A    between atoms: N_13  and  C_14
REMARK    6  A    between atoms: C_19  and  C_20
REMARK    7  A    between atoms: C_20  and  O_22
REMARK                            x       y       z     vdW  Elec       q    Type
REMARK                         _______ _______ _______ _____ _____    ______ ____
ROOT
ATOM      1  S   UNL     1       0.830  10.288  21.371  0.00  0.00    +0.000 S 
ATOM      2  O   UNL     1       1.036   9.663  22.664  0.00  0.00    +0.000 OA
ATOM      3  O   UNL     1       1.410  11.575  21.064  0.00  0.00    +0.000 OA
ENDROOT
BRANCH   1   8
ATOM      4  C   UNL     1       2.254   6.915  19.545  0.00  0.00    +0.000 A 
ATOM      5  C   UNL     1       2.369   7.388  18.222  0.00  0.00    +0.000 A 
ATOM      6  C   UNL     1       2.017   8.689  17.857  0.00  0.00    +0.000 A 
ATOM      7  C   UNL     1       1.518   9.564  18.814  0.00  0.00    +0.000 A 
ATOM      8  C   UNL     1       1.365   9.119  20.129  0.00  0.00    +0.000 A 
ATOM      9  C   UNL     1       1.731   7.808  20.498  0.00  0.00    +0.000 A 
BRANCH   4  13
ATOM     10  C   UNL     1       1.766   2.615  21.677  0.00  0.00    +0.000 C 
ATOM     11  C   UNL     1       2.241   3.682  20.761  0.00  0.00    +0.000 C 
ATOM     12  N   UNL     1       2.073   4.959  20.924  0.00  0.00    +0.000 NA
ATOM     13  N   UNL     1       2.659   5.610  19.850  0.00  0.00    +0.000 N 
ATOM     14  C   UNL     1       3.289   4.700  18.877  0.00  0.00    +0.000 C 
ATOM     15  C   UNL     1       2.957   3.374  19.493  0.00  0.00    +0.000 C 
ATOM     16  O   UNL     1       3.172   2.248  19.095  0.00  0.00    +0.000 OA
ENDBRANCH   4  13
ENDBRANCH   1   8
BRANCH   1  17
ATOM     17  N   UNL     1      -0.852  10.385  21.090  0.00  0.00    +0.000 N 
ATOM     18  H   UNL     1      -1.320   9.577  21.527  0.00  0.00    +0.000 HD
BRANCH  17  19
ATOM     19  C   UNL     1      -1.442  11.640  21.501  0.00  0.00    +0.000 A 
ATOM     20  C   UNL     1      -1.570  11.900  22.870  0.00  0.00    +0.000 A 
ATOM     21  C   UNL     1      -2.189  13.075  23.312  0.00  0.00    +0.000 A 
ATOM     22  C   UNL     1      -2.674  14.003  22.393  0.00  0.00    +0.000 A 
ATOM     23  C   UNL     1      -2.549  13.756  21.025  0.00  0.00    +0.000 A 
ATOM     24  C   UNL     1      -1.972  12.558  20.572  0.00  0.00    +0.000 A 
BRANCH  24  25
ATOM     25  C   UNL     1      -1.878  12.272  19.118  0.00  0.00    +0.000 C 
ATOM     26  O   UNL     1      -0.812  12.078  18.553  0.00  0.00    +0.000 OA
BRANCH  25  27
ATOM     27  O   UNL     1      -3.066  12.221  18.479  0.00  0.00    +0.000 OA
ATOM     28  H   UNL     1      -3.247  11.383  18.014  0.00  0.00    +0.000 HD
ENDBRANCH  25  27
ENDBRANCH  24  25
ENDBRANCH  17  19
ENDBRANCH   1  17
TORSDOF 6
ENDMDL
