MODEL 1
REMARK VINA RESULT:      -6.9      0.000      0.000
REMARK  Name = 
REMARK  16 active torsions:
REMARK  status: ('A' for Active; 'I' for Inactive)
REMARK    1  A    between atoms: C_1  and  O_2
REMARK    2  A    between atoms: O_2  and  C_3
REMARK    3  A    between atoms: C_6  and  C_7
REMARK    4  A    between atoms: C_8  and  C_9
REMARK    5  A    between atoms: C_11  and  O_12
REMARK    6  A    between atoms: O_12  and  C_13
REMARK    7  A    between atoms: C_14  and  O_15
REMARK    8  A    between atoms: O_15  and  C_16
REMARK    9  A    between atoms: C_17  and  O_18
REMARK   10  A    between atoms: O_18  and  C_19
REMARK   11  A    between atoms: C_22  and  O_23
REMARK   12  A    between atoms: O_23  and  C_24
REMARK   13  A    between atoms: C_24  and  C_25
REMARK   14  A    between atoms: C_25  and  O_26
REMARK   15  A    between atoms: O_26  and  S_27
REMARK   16  A    between atoms: S_27  and  C_28
REMARK                            x       y       z     vdW  Elec       q    Type
REMARK                         _______ _______ _______ _____ _____    ______ ____
ROOT
ATOM      1  C   UNL     1       1.858   7.046  20.265  0.00  0.00    +0.000 A 
ATOM      2  C   UNL     1       1.481   5.808  20.808  0.00  0.00    +0.000 A 
ATOM      3  C   UNL     1       1.581   4.640  20.052  0.00  0.00    +0.000 A 
ATOM      4  C   UNL     1       1.999   4.702  18.724  0.00  0.00    +0.000 A 
ATOM      5  C   UNL     1       2.256   5.943  18.140  0.00  0.00    +0.000 A 
ATOM      6  C   UNL     1       2.223   7.112  18.909  0.00  0.00    +0.000 A 
ENDROOT
BRANCH   1   8
ATOM      7  C   UNL     1       0.587   8.628  21.489  0.00  0.00    +0.000 C 
ATOM      8  O   UNL     1       1.860   8.192  21.016  0.00  0.00    +0.000 OA
ENDBRANCH   1   8
BRANCH   4   9
ATOM      9  C   UNL     1       2.325   3.479  17.999  0.00  0.00    +0.000 C 
ATOM     10  C   UNL     1       3.479   3.142  17.415  0.00  0.00    +0.000 C 
BRANCH  10  11
ATOM     11  C   UNL     1       4.741   3.881  17.377  0.00  0.00    +0.000 A 
ATOM     12  C   UNL     1       5.269   4.290  16.155  0.00  0.00    +0.000 A 
ATOM     13  C   UNL     1       6.310   5.224  16.116  0.00  0.00    +0.000 A 
ATOM     14  C   UNL     1       6.860   5.718  17.322  0.00  0.00    +0.000 A 
ATOM     15  C   UNL     1       6.379   5.240  18.557  0.00  0.00    +0.000 A 
ATOM     16  C   UNL     1       5.317   4.324  18.568  0.00  0.00    +0.000 A 
BRANCH  13  17
ATOM     17  O   UNL     1       6.820   5.728  14.940  0.00  0.00    +0.000 OA
ATOM     18  C   UNL     1       7.145   4.771  13.937  0.00  0.00    +0.000 C 
ENDBRANCH  13  17
BRANCH  14  19
ATOM     19  O   UNL     1       7.893   6.621  17.184  0.00  0.00    +0.000 OA
ATOM     20  C   UNL     1       7.579   7.979  17.472  0.00  0.00    +0.000 C 
ENDBRANCH  14  19
BRANCH  15  21
ATOM     21  O   UNL     1       6.972   5.708  19.709  0.00  0.00    +0.000 OA
ATOM     22  C   UNL     1       8.296   5.285  20.000  0.00  0.00    +0.000 C 
ENDBRANCH  15  21
ENDBRANCH  10  11
ENDBRANCH   4   9
BRANCH   6  23
ATOM     23  O   UNL     1       2.578   8.230  18.196  0.00  0.00    +0.000 OA
BRANCH  23  24
ATOM     24  C   UNL     1       1.506   9.058  17.758  0.00  0.00    +0.000 C 
BRANCH  24  25
ATOM     25  C   UNL     1       1.671  10.459  18.338  0.00  0.00    +0.000 C 
BRANCH  25  26
ATOM     26  O   UNL     1       0.375  11.018  18.474  0.00  0.00    +0.000 OA
BRANCH  26  27
ATOM     27  S   UNL     1       0.166  12.239  19.524  0.00  0.00    +0.000 S 
ATOM     28  C   UNL     1      -1.378  11.662  20.189  0.00  0.00    +0.000 C 
ATOM     29  O   UNL     1       1.180  12.146  20.550  0.00  0.00    +0.000 OA
ATOM     30  O   UNL     1      -0.074  13.455  18.779  0.00  0.00    +0.000 OA
ENDBRANCH  26  27
ENDBRANCH  25  26
ENDBRANCH  24  25
ENDBRANCH  23  24
ENDBRANCH   6  23
TORSDOF 11
ENDMDL
MODEL 2
REMARK VINA RESULT:      -6.8      2.779      8.322
REMARK  Name = 
REMARK  16 active torsions:
REMARK  status: ('A' for Active; 'I' for Inactive)
REMARK    1  A    between atoms: C_1  and  O_2
REMARK    2  A    between atoms: O_2  and  C_3
REMARK    3  A    between atoms: C_6  and  C_7
REMARK    4  A    between atoms: C_8  and  C_9
REMARK    5  A    between atoms: C_11  and  O_12
REMARK    6  A    between atoms: O_12  and  C_13
REMARK    7  A    between atoms: C_14  and  O_15
REMARK    8  A    between atoms: O_15  and  C_16
REMARK    9  A    between atoms: C_17  and  O_18
REMARK   10  A    between atoms: O_18  and  C_19
REMARK   11  A    between atoms: C_22  and  O_23
REMARK   12  A    between atoms: O_23  and  C_24
REMARK   13  A    between atoms: C_24  and  C_25
REMARK   14  A    between atoms: C_25  and  O_26
REMARK   15  A    between atoms: O_26  and  S_27
REMARK   16  A    between atoms: S_27  and  C_28
REMARK                            x       y       z     vdW  Elec       q    Type
REMARK                         _______ _______ _______ _____ _____    ______ ____
ROOT
ATOM      1  C   UNL     1       1.773   4.852  20.006  0.00  0.00    +0.000 A 
ATOM      2  C   UNL     1       1.672   6.107  20.623  0.00  0.00    +0.000 A 
ATOM      3  C   UNL     1       2.033   7.268  19.939  0.00  0.00    +0.000 A 
ATOM      4  C   UNL     1       2.558   7.182  18.651  0.00  0.00    +0.000 A 
ATOM      5  C   UNL     1       2.778   5.929  18.078  0.00  0.00    +0.000 A 
ATOM      6  C   UNL     1       2.357   4.765  18.730  0.00  0.00    +0.000 A 
ENDROOT
BRANCH   1   8
ATOM      7  C   UNL     1       2.064   3.309  21.781  0.00  0.00    +0.000 C 
ATOM      8  O   UNL     1       1.336   3.708  20.622  0.00  0.00    +0.000 OA
ENDBRANCH   1   8
BRANCH   4   9
ATOM      9  C   UNL     1       2.723   8.387  17.844  0.00  0.00    +0.000 C 
ATOM     10  C   UNL     1       1.994   9.507  17.865  0.00  0.00    +0.000 C 
BRANCH  10  11
ATOM     11  C   UNL     1       0.863   9.853  18.725  0.00  0.00    +0.000 A 
ATOM     12  C   UNL     1       1.059  10.028  20.092  0.00  0.00    +0.000 A 
ATOM     13  C   UNL     1       0.063  10.623  20.875  0.00  0.00    +0.000 A 
ATOM     14  C   UNL     1      -1.163  11.005  20.284  0.00  0.00    +0.000 A 
ATOM     15  C   UNL     1      -1.391  10.752  18.918  0.00  0.00    +0.000 A 
ATOM     16  C   UNL     1      -0.366  10.178  18.150  0.00  0.00    +0.000 A 
BRANCH  13  17
ATOM     17  O   UNL     1       0.228  10.897  22.215  0.00  0.00    +0.000 OA
ATOM     18  C   UNL     1       0.040   9.801  23.105  0.00  0.00    +0.000 C 
ENDBRANCH  13  17
BRANCH  14  19
ATOM     19  O   UNL     1      -2.090  11.567  21.137  0.00  0.00    +0.000 OA
ATOM     20  C   UNL     1      -2.164  12.989  21.130  0.00  0.00    +0.000 C 
ENDBRANCH  14  19
BRANCH  15  21
ATOM     21  O   UNL     1      -2.616  11.093  18.389  0.00  0.00    +0.000 OA
ATOM     22  C   UNL     1      -3.198  10.221  17.430  0.00  0.00    +0.000 C 
ENDBRANCH  15  21
ENDBRANCH  10  11
ENDBRANCH   4   9
BRANCH   6  23
ATOM     23  O   UNL     1       2.578   3.629  17.991  0.00  0.00    +0.000 OA
BRANCH  23  24
ATOM     24  C   UNL     1       3.523   3.748  16.933  0.00  0.00    +0.000 C 
BRANCH  24  25
ATOM     25  C   UNL     1       4.937   3.733  17.506  0.00  0.00    +0.000 C 
BRANCH  25  26
ATOM     26  O   UNL     1       5.768   4.446  16.605  0.00  0.00    +0.000 OA
BRANCH  26  27
ATOM     27  S   UNL     1       7.112   5.149  17.184  0.00  0.00    +0.000 S 
ATOM     28  C   UNL     1       6.460   5.516  18.796  0.00  0.00    +0.000 C 
ATOM     29  O   UNL     1       8.142   4.142  17.315  0.00  0.00    +0.000 OA
ATOM     30  O   UNL     1       7.329   6.391  16.475  0.00  0.00    +0.000 OA
ENDBRANCH  26  27
ENDBRANCH  25  26
ENDBRANCH  24  25
ENDBRANCH  23  24
ENDBRANCH   6  23
TORSDOF 11
ENDMDL
MODEL 3
REMARK VINA RESULT:      -6.8      2.725      8.172
REMARK  Name = 
REMARK  16 active torsions:
REMARK  status: ('A' for Active; 'I' for Inactive)
REMARK    1  A    between atoms: C_1  and  O_2
REMARK    2  A    between atoms: O_2  and  C_3
REMARK    3  A    between atoms: C_6  and  C_7
REMARK    4  A    between atoms: C_8  and  C_9
REMARK    5  A    between atoms: C_11  and  O_12
REMARK    6  A    between atoms: O_12  and  C_13
REMARK    7  A    between atoms: C_14  and  O_15
REMARK    8  A    between atoms: O_15  and  C_16
REMARK    9  A    between atoms: C_17  and  O_18
REMARK   10  A    between atoms: O_18  and  C_19
REMARK   11  A    between atoms: C_22  and  O_23
REMARK   12  A    between atoms: O_23  and  C_24
REMARK   13  A    between atoms: C_24  and  C_25
REMARK   14  A    between atoms: C_25  and  O_26
REMARK   15  A    between atoms: O_26  and  S_27
REMARK   16  A    between atoms: S_27  and  C_28
REMARK                            x       y       z     vdW  Elec       q    Type
REMARK                         _______ _______ _______ _____ _____    ______ ____
ROOT
ATOM      1  C   UNL     1       3.265   4.443  19.635  0.00  0.00    +0.000 A 
ATOM      2  C   UNL     1       2.019   5.038  19.388  0.00  0.00    +0.000 A 
ATOM      3  C   UNL     1       1.931   6.243  18.691  0.00  0.00    +0.000 A 
ATOM      4  C   UNL     1       3.091   6.900  18.287  0.00  0.00    +0.000 A 
ATOM      5  C   UNL     1       4.337   6.379  18.638  0.00  0.00    +0.000 A 
ATOM      6  C   UNL     1       4.434   5.138  19.278  0.00  0.00    +0.000 A 
ENDROOT
BRANCH   1   8
ATOM      7  C   UNL     1       2.525   2.994  21.357  0.00  0.00    +0.000 C 
ATOM      8  O   UNL     1       3.372   3.214  20.232  0.00  0.00    +0.000 OA
ENDBRANCH   1   8
BRANCH   4   9
ATOM      9  C   UNL     1       3.012   8.031  17.368  0.00  0.00    +0.000 C 
ATOM     10  C   UNL     1       2.203   9.093  17.425  0.00  0.00    +0.000 C 
BRANCH  10  11
ATOM     11  C   UNL     1       1.208   9.439  18.440  0.00  0.00    +0.000 A 
ATOM     12  C   UNL     1       1.585   9.533  19.777  0.00  0.00    +0.000 A 
ATOM     13  C   UNL     1       0.726  10.126  20.709  0.00  0.00    +0.000 A 
ATOM     14  C   UNL     1      -0.547  10.588  20.301  0.00  0.00    +0.000 A 
ATOM     15  C   UNL     1      -0.958  10.417  18.965  0.00  0.00    +0.000 A 
ATOM     16  C   UNL     1      -0.068   9.843  18.044  0.00  0.00    +0.000 A 
BRANCH  13  17
ATOM     17  O   UNL     1       1.072  10.322  22.028  0.00  0.00    +0.000 OA
ATOM     18  C   UNL     1       0.673   9.302  22.938  0.00  0.00    +0.000 C 
ENDBRANCH  13  17
BRANCH  14  19
ATOM     19  O   UNL     1      -1.330  11.142  21.292  0.00  0.00    +0.000 OA
ATOM     20  C   UNL     1      -1.371  12.564  21.335  0.00  0.00    +0.000 C 
ENDBRANCH  14  19
BRANCH  15  21
ATOM     21  O   UNL     1      -2.223  10.835  18.616  0.00  0.00    +0.000 OA
ATOM     22  C   UNL     1      -3.023   9.963  17.829  0.00  0.00    +0.000 C 
ENDBRANCH  15  21
ENDBRANCH  10  11
ENDBRANCH   4   9
BRANCH   6  23
ATOM     23  O   UNL     1       5.733   4.739  19.476  0.00  0.00    +0.000 OA
BRANCH  23  24
ATOM     24  C   UNL     1       6.726   5.477  18.771  0.00  0.00    +0.000 C 
BRANCH  24  25
ATOM     25  C   UNL     1       7.360   4.591  17.703  0.00  0.00    +0.000 C 
BRANCH  25  26
ATOM     26  O   UNL     1       6.376   4.350  16.711  0.00  0.00    +0.000 OA
BRANCH  26  27
ATOM     27  S   UNL     1       6.423   5.227  15.346  0.00  0.00    +0.000 S 
ATOM     28  C   UNL     1       6.106   3.876  14.236  0.00  0.00    +0.000 C 
ATOM     29  O   UNL     1       5.287   6.121  15.331  0.00  0.00    +0.000 OA
ATOM     30  O   UNL     1       7.777   5.692  15.140  0.00  0.00    +0.000 OA
ENDBRANCH  26  27
ENDBRANCH  25  26
ENDBRANCH  24  25
ENDBRANCH  23  24
ENDBRANCH   6  23
TORSDOF 11
ENDMDL
MODEL 4
REMARK VINA RESULT:      -6.4      2.889      8.494
REMARK  Name = 
REMARK  16 active torsions:
REMARK  status: ('A' for Active; 'I' for Inactive)
REMARK    1  A    between atoms: C_1  and  O_2
REMARK    2  A    between atoms: O_2  and  C_3
REMARK    3  A    between atoms: C_6  and  C_7
REMARK    4  A    between atoms: C_8  and  C_9
REMARK    5  A    between atoms: C_11  and  O_12
REMARK    6  A    between atoms: O_12  and  C_13
REMARK    7  A    between atoms: C_14  and  O_15
REMARK    8  A    between atoms: O_15  and  C_16
REMARK    9  A    between atoms: C_17  and  O_18
REMARK   10  A    between atoms: O_18  and  C_19
REMARK   11  A    between atoms: C_22  and  O_23
REMARK   12  A    between atoms: O_23  and  C_24
REMARK   13  A    between atoms: C_24  and  C_25
REMARK   14  A    between atoms: C_25  and  O_26
REMARK   15  A    between atoms: O_26  and  S_27
REMARK   16  A    between atoms: S_27  and  C_28
REMARK                            x       y       z     vdW  Elec       q    Type
REMARK                         _______ _______ _______ _____ _____    ______ ____
ROOT
ATOM      1  C   UNL     1       2.035   5.658  20.399  0.00  0.00    +0.000 A 
ATOM      2  C   UNL     1       1.464   6.901  20.708  0.00  0.00    +0.000 A 
ATOM      3  C   UNL     1       1.629   7.992  19.854  0.00  0.00    +0.000 A 
ATOM      4  C   UNL     1       2.418   7.870  18.712  0.00  0.00    +0.000 A 
ATOM      5  C   UNL     1       3.090   6.673  18.464  0.00  0.00    +0.000 A 
ATOM      6  C   UNL     1       2.878   5.555  19.278  0.00  0.00    +0.000 A 
ENDROOT
BRANCH   1   8
ATOM      7  C   UNL     1       0.995   3.537  20.581  0.00  0.00    +0.000 C 
ATOM      8  O   UNL     1       1.809   4.548  21.171  0.00  0.00    +0.000 OA
ENDBRANCH   1   8
BRANCH   4   9
ATOM      9  C   UNL     1       2.412   8.922  17.701  0.00  0.00    +0.000 C 
ATOM     10  C   UNL     1       1.712  10.060  17.690  0.00  0.00    +0.000 C 
BRANCH  10  11
ATOM     11  C   UNL     1       0.796  10.587  18.700  0.00  0.00    +0.000 A 
ATOM     12  C   UNL     1       1.296  11.300  19.787  0.00  0.00    +0.000 A 
ATOM     13  C   UNL     1       0.431  12.039  20.601  0.00  0.00    +0.000 A 
ATOM     14  C   UNL     1      -0.961  12.025  20.349  0.00  0.00    +0.000 A 
ATOM     15  C   UNL     1      -1.473  11.236  19.299  0.00  0.00    +0.000 A 
ATOM     16  C   UNL     1      -0.581  10.525  18.482  0.00  0.00    +0.000 A 
BRANCH  13  17
ATOM     17  O   UNL     1       0.872  12.829  21.640  0.00  0.00    +0.000 OA
ATOM     18  C   UNL     1       1.529  14.038  21.273  0.00  0.00    +0.000 C 
ENDBRANCH  13  17
BRANCH  14  19
ATOM     19  O   UNL     1      -1.735  12.768  21.214  0.00  0.00    +0.000 OA
ATOM     20  C   UNL     1      -2.202  12.090  22.375  0.00  0.00    +0.000 C 
ENDBRANCH  14  19
BRANCH  15  21
ATOM     21  O   UNL     1      -2.837  11.208  19.114  0.00  0.00    +0.000 OA
ATOM     22  C   UNL     1      -3.342  11.452  17.809  0.00  0.00    +0.000 C 
ENDBRANCH  15  21
ENDBRANCH  10  11
ENDBRANCH   4   9
BRANCH   6  23
ATOM     23  O   UNL     1       3.555   4.442  18.844  0.00  0.00    +0.000 OA
BRANCH  23  24
ATOM     24  C   UNL     1       3.331   4.065  17.490  0.00  0.00    +0.000 C 
BRANCH  24  25
ATOM     25  C   UNL     1       4.658   3.692  16.836  0.00  0.00    +0.000 C 
BRANCH  25  26
ATOM     26  O   UNL     1       5.549   4.776  17.036  0.00  0.00    +0.000 OA
BRANCH  26  27
ATOM     27  S   UNL     1       6.113   5.564  15.732  0.00  0.00    +0.000 S 
ATOM     28  C   UNL     1       5.941   4.208  14.596  0.00  0.00    +0.000 C 
ATOM     29  O   UNL     1       5.169   6.597  15.372  0.00  0.00    +0.000 OA
ATOM     30  O   UNL     1       7.521   5.833  15.926  0.00  0.00    +0.000 OA
ENDBRANCH  26  27
ENDBRANCH  25  26
ENDBRANCH  24  25
ENDBRANCH  23  24
ENDBRANCH   6  23
TORSDOF 11
ENDMDL
MODEL 5
REMARK VINA RESULT:      -6.4      2.518      4.539
REMARK  Name = 
REMARK  16 active torsions:
REMARK  status: ('A' for Active; 'I' for Inactive)
REMARK    1  A    between atoms: C_1  and  O_2
REMARK    2  A    between atoms: O_2  and  C_3
REMARK    3  A    between atoms: C_6  and  C_7
REMARK    4  A    between atoms: C_8  and  C_9
REMARK    5  A    between atoms: C_11  and  O_12
REMARK    6  A    between atoms: O_12  and  C_13
REMARK    7  A    between atoms: C_14  and  O_15
REMARK    8  A    between atoms: O_15  and  C_16
REMARK    9  A    between atoms: C_17  and  O_18
REMARK   10  A    between atoms: O_18  and  C_19
REMARK   11  A    between atoms: C_22  and  O_23
REMARK   12  A    between atoms: O_23  and  C_24
REMARK   13  A    between atoms: C_24  and  C_25
REMARK   14  A    between atoms: C_25  and  O_26
REMARK   15  A    between atoms: O_26  and  S_27
REMARK   16  A    between atoms: S_27  and  C_28
REMARK                            x       y       z     vdW  Elec       q    Type
REMARK                         _______ _______ _______ _____ _____    ______ ____
ROOT
ATOM      1  C   UNL     1       0.866   9.911  21.372  0.00  0.00    +0.000 A 
ATOM      2  C   UNL     1       1.336   8.602  21.182  0.00  0.00    +0.000 A 
ATOM      3  C   UNL     1       1.767   8.177  19.926  0.00  0.00    +0.000 A 
ATOM      4  C   UNL     1       1.677   9.034  18.831  0.00  0.00    +0.000 A 
ATOM      5  C   UNL     1       1.095  10.293  18.987  0.00  0.00    +0.000 A 
ATOM      6  C   UNL     1       0.722  10.752  20.255  0.00  0.00    +0.000 A 
ENDROOT
BRANCH   1   8
ATOM      7  C   UNL     1      -0.535   9.694  23.271  0.00  0.00    +0.000 C 
ATOM      8  O   UNL     1       0.527  10.382  22.613  0.00  0.00    +0.000 OA
ENDBRANCH   1   8
BRANCH   4   9
ATOM      9  C   UNL     1       2.330   8.688  17.573  0.00  0.00    +0.000 C 
ATOM     10  C   UNL     1       3.011   7.580  17.267  0.00  0.00    +0.000 C 
BRANCH  10  11
ATOM     11  C   UNL     1       3.255   6.394  18.088  0.00  0.00    +0.000 A 
ATOM     12  C   UNL     1       2.220   5.497  18.337  0.00  0.00    +0.000 A 
ATOM     13  C   UNL     1       2.497   4.235  18.875  0.00  0.00    +0.000 A 
ATOM     14  C   UNL     1       3.826   3.888  19.212  0.00  0.00    +0.000 A 
ATOM     15  C   UNL     1       4.860   4.828  19.036  0.00  0.00    +0.000 A 
ATOM     16  C   UNL     1       4.560   6.077  18.470  0.00  0.00    +0.000 A 
BRANCH  13  17
ATOM     17  O   UNL     1       1.529   3.275  19.069  0.00  0.00    +0.000 OA
ATOM     18  C   UNL     1       0.728   3.420  20.238  0.00  0.00    +0.000 C 
ENDBRANCH  13  17
BRANCH  14  19
ATOM     19  O   UNL     1       3.999   2.632  19.752  0.00  0.00    +0.000 OA
ATOM     20  C   UNL     1       4.029   1.551  18.826  0.00  0.00    +0.000 C 
ENDBRANCH  14  19
BRANCH  15  21
ATOM     21  O   UNL     1       6.134   4.473  19.421  0.00  0.00    +0.000 OA
ATOM     22  C   UNL     1       7.144   5.471  19.400  0.00  0.00    +0.000 C 
ENDBRANCH  15  21
ENDBRANCH  10  11
ENDBRANCH   4   9
BRANCH   6  23
ATOM     23  O   UNL     1       0.243  12.038  20.237  0.00  0.00    +0.000 OA
BRANCH  23  24
ATOM     24  C   UNL     1      -0.475  12.421  19.068  0.00  0.00    +0.000 C 
BRANCH  24  25
ATOM     25  C   UNL     1      -1.953  12.087  19.243  0.00  0.00    +0.000 C 
BRANCH  25  26
ATOM     26  O   UNL     1      -2.185  10.841  18.608  0.00  0.00    +0.000 OA
BRANCH  26  27
ATOM     27  S   UNL     1      -3.502  10.684  17.671  0.00  0.00    +0.000 S 
ATOM     28  C   UNL     1      -2.671  10.945  16.122  0.00  0.00    +0.000 C 
ATOM     29  O   UNL     1      -3.954   9.313  17.733  0.00  0.00    +0.000 OA
ATOM     30  O   UNL     1      -4.384  11.803  17.920  0.00  0.00    +0.000 OA
ENDBRANCH  26  27
ENDBRANCH  25  26
ENDBRANCH  24  25
ENDBRANCH  23  24
ENDBRANCH   6  23
TORSDOF 11
ENDMDL
MODEL 6
REMARK VINA RESULT:      -6.4      2.800      8.495
REMARK  Name = 
REMARK  16 active torsions:
REMARK  status: ('A' for Active; 'I' for Inactive)
REMARK    1  A    between atoms: C_1  and  O_2
REMARK    2  A    between atoms: O_2  and  C_3
REMARK    3  A    between atoms: C_6  and  C_7
REMARK    4  A    between atoms: C_8  and  C_9
REMARK    5  A    between atoms: C_11  and  O_12
REMARK    6  A    between atoms: O_12  and  C_13
REMARK    7  A    between atoms: C_14  and  O_15
REMARK    8  A    between atoms: O_15  and  C_16
REMARK    9  A    between atoms: C_17  and  O_18
REMARK   10  A    between atoms: O_18  and  C_19
REMARK   11  A    between atoms: C_22  and  O_23
REMARK   12  A    between atoms: O_23  and  C_24
REMARK   13  A    between atoms: C_24  and  C_25
REMARK   14  A    between atoms: C_25  and  O_26
REMARK   15  A    between atoms: O_26  and  S_27
REMARK   16  A    between atoms: S_27  and  C_28
REMARK                            x       y       z     vdW  Elec       q    Type
REMARK                         _______ _______ _______ _____ _____    ______ ____
ROOT
ATOM      1  C   UNL     1       1.801   5.159  20.130  0.00  0.00    +0.000 A 
ATOM      2  C   UNL     1       1.694   6.422  20.731  0.00  0.00    +0.000 A 
ATOM      3  C   UNL     1       1.987   7.579  20.010  0.00  0.00    +0.000 A 
ATOM      4  C   UNL     1       2.449   7.486  18.699  0.00  0.00    +0.000 A 
ATOM      5  C   UNL     1       2.676   6.229  18.136  0.00  0.00    +0.000 A 
ATOM      6  C   UNL     1       2.323   5.065  18.828  0.00  0.00    +0.000 A 
ENDROOT
BRANCH   1   8
ATOM      7  C   UNL     1       2.438   3.397  21.582  0.00  0.00    +0.000 C 
ATOM      8  O   UNL     1       1.428   4.014  20.786  0.00  0.00    +0.000 OA
ENDBRANCH   1   8
BRANCH   4   9
ATOM      9  C   UNL     1       2.538   8.680  17.865  0.00  0.00    +0.000 C 
ATOM     10  C   UNL     1       1.776   9.777  17.901  0.00  0.00    +0.000 C 
BRANCH  10  11
ATOM     11  C   UNL     1       0.677  10.104  18.808  0.00  0.00    +0.000 A 
ATOM     12  C   UNL     1       0.901  10.158  20.181  0.00  0.00    +0.000 A 
ATOM     13  C   UNL     1      -0.052  10.733  21.028  0.00  0.00    +0.000 A 
ATOM     14  C   UNL     1      -1.269  11.219  20.493  0.00  0.00    +0.000 A 
ATOM     15  C   UNL     1      -1.529  11.088  19.115  0.00  0.00    +0.000 A 
ATOM     16  C   UNL     1      -0.545  10.531  18.284  0.00  0.00    +0.000 A 
BRANCH  13  17
ATOM     17  O   UNL     1       0.145  10.890  22.382  0.00  0.00    +0.000 OA
ATOM     18  C   UNL     1       0.027   9.710  23.172  0.00  0.00    +0.000 C 
ENDBRANCH  13  17
BRANCH  14  19
ATOM     19  O   UNL     1      -2.154  11.752  21.406  0.00  0.00    +0.000 OA
ATOM     20  C   UNL     1      -2.153  13.171  21.522  0.00  0.00    +0.000 C 
ENDBRANCH  14  19
BRANCH  15  21
ATOM     21  O   UNL     1      -2.744  11.528  18.639  0.00  0.00    +0.000 OA
ATOM     22  C   UNL     1      -3.520  10.632  17.855  0.00  0.00    +0.000 C 
ENDBRANCH  15  21
ENDBRANCH  10  11
ENDBRANCH   4   9
BRANCH   6  23
ATOM     23  O   UNL     1       2.540   3.923  18.098  0.00  0.00    +0.000 OA
BRANCH  23  24
ATOM     24  C   UNL     1       3.656   3.950  17.215  0.00  0.00    +0.000 C 
BRANCH  24  25
ATOM     25  C   UNL     1       4.938   4.160  18.015  0.00  0.00    +0.000 C 
BRANCH  25  26
ATOM     26  O   UNL     1       5.596   5.293  17.475  0.00  0.00    +0.000 OA
BRANCH  26  27
ATOM     27  S   UNL     1       7.173   5.171  17.112  0.00  0.00    +0.000 S 
ATOM     28  C   UNL     1       6.958   4.212  15.631  0.00  0.00    +0.000 C 
ATOM     29  O   UNL     1       7.669   6.481  16.752  0.00  0.00    +0.000 OA
ATOM     30  O   UNL     1       7.817   4.346  18.111  0.00  0.00    +0.000 OA
ENDBRANCH  26  27
ENDBRANCH  25  26
ENDBRANCH  24  25
ENDBRANCH  23  24
ENDBRANCH   6  23
TORSDOF 11
ENDMDL
MODEL 7
REMARK VINA RESULT:      -6.3      2.557      4.539
REMARK  Name = 
REMARK  16 active torsions:
REMARK  status: ('A' for Active; 'I' for Inactive)
REMARK    1  A    between atoms: C_1  and  O_2
REMARK    2  A    between atoms: O_2  and  C_3
REMARK    3  A    between atoms: C_6  and  C_7
REMARK    4  A    between atoms: C_8  and  C_9
REMARK    5  A    between atoms: C_11  and  O_12
REMARK    6  A    between atoms: O_12  and  C_13
REMARK    7  A    between atoms: C_14  and  O_15
REMARK    8  A    between atoms: O_15  and  C_16
REMARK    9  A    between atoms: C_17  and  O_18
REMARK   10  A    between atoms: O_18  and  C_19
REMARK   11  A    between atoms: C_22  and  O_23
REMARK   12  A    between atoms: O_23  and  C_24
REMARK   13  A    between atoms: C_24  and  C_25
REMARK   14  A    between atoms: C_25  and  O_26
REMARK   15  A    between atoms: O_26  and  S_27
REMARK   16  A    between atoms: S_27  and  C_28
REMARK                            x       y       z     vdW  Elec       q    Type
REMARK                         _______ _______ _______ _____ _____    ______ ____
ROOT
ATOM      1  C   UNL     1       0.124   9.026  21.309  0.00  0.00    +0.000 A 
ATOM      2  C   UNL     1       1.114   8.043  21.167  0.00  0.00    +0.000 A 
ATOM      3  C   UNL     1       1.844   7.935  19.983  0.00  0.00    +0.000 A 
ATOM      4  C   UNL     1       1.551   8.767  18.905  0.00  0.00    +0.000 A 
ATOM      5  C   UNL     1       0.485   9.663  18.996  0.00  0.00    +0.000 A 
ATOM      6  C   UNL     1      -0.209   9.824  20.200  0.00  0.00    +0.000 A 
ENDROOT
BRANCH   1   8
ATOM      7  C   UNL     1       0.281   9.476  23.631  0.00  0.00    +0.000 C 
ATOM      8  O   UNL     1      -0.540   9.215  22.493  0.00  0.00    +0.000 OA
ENDBRANCH   1   8
BRANCH   4   9
ATOM      9  C   UNL     1       2.447   8.822  17.755  0.00  0.00    +0.000 C 
ATOM     10  C   UNL     1       3.285   7.880  17.308  0.00  0.00    +0.000 C 
BRANCH  10  11
ATOM     11  C   UNL     1       3.504   6.527  17.818  0.00  0.00    +0.000 A 
ATOM     12  C   UNL     1       4.770   6.145  18.252  0.00  0.00    +0.000 A 
ATOM     13  C   UNL     1       4.935   4.969  18.992  0.00  0.00    +0.000 A 
ATOM     14  C   UNL     1       3.820   4.141  19.258  0.00  0.00    +0.000 A 
ATOM     15  C   UNL     1       2.554   4.487  18.747  0.00  0.00    +0.000 A 
ATOM     16  C   UNL     1       2.411   5.686  18.031  0.00  0.00    +0.000 A 
BRANCH  13  17
ATOM     17  O   UNL     1       6.147   4.579  19.518  0.00  0.00    +0.000 OA
ATOM     18  C   UNL     1       7.217   5.508  19.381  0.00  0.00    +0.000 C 
ENDBRANCH  13  17
BRANCH  14  19
ATOM     19  O   UNL     1       4.083   2.994  19.978  0.00  0.00    +0.000 OA
ATOM     20  C   UNL     1       4.098   1.780  19.235  0.00  0.00    +0.000 C 
ENDBRANCH  14  19
BRANCH  15  21
ATOM     21  O   UNL     1       1.501   3.632  18.985  0.00  0.00    +0.000 OA
ATOM     22  C   UNL     1       0.835   3.721  20.236  0.00  0.00    +0.000 C 
ENDBRANCH  15  21
ENDBRANCH  10  11
ENDBRANCH   4   9
BRANCH   6  23
ATOM     23  O   UNL     1      -1.171  10.800  20.136  0.00  0.00    +0.000 OA
BRANCH  23  24
ATOM     24  C   UNL     1      -0.860  11.931  19.329  0.00  0.00    +0.000 C 
BRANCH  24  25
ATOM     25  C   UNL     1      -2.149  12.589  18.849  0.00  0.00    +0.000 C 
BRANCH  25  26
ATOM     26  O   UNL     1      -3.142  11.579  18.780  0.00  0.00    +0.000 OA
BRANCH  26  27
ATOM     27  S   UNL     1      -3.380  10.824  17.363  0.00  0.00    +0.000 S 
ATOM     28  C   UNL     1      -4.972  11.538  17.027  0.00  0.00    +0.000 C 
ATOM     29  O   UNL     1      -2.427  11.332  16.402  0.00  0.00    +0.000 OA
ATOM     30  O   UNL     1      -3.548   9.409  17.613  0.00  0.00    +0.000 OA
ENDBRANCH  26  27
ENDBRANCH  25  26
ENDBRANCH  24  25
ENDBRANCH  23  24
ENDBRANCH   6  23
TORSDOF 11
ENDMDL
MODEL 8
REMARK VINA RESULT:      -6.3      1.608      2.523
REMARK  Name = 
REMARK  16 active torsions:
REMARK  status: ('A' for Active; 'I' for Inactive)
REMARK    1  A    between atoms: C_1  and  O_2
REMARK    2  A    between atoms: O_2  and  C_3
REMARK    3  A    between atoms: C_6  and  C_7
REMARK    4  A    between atoms: C_8  and  C_9
REMARK    5  A    between atoms: C_11  and  O_12
REMARK    6  A    between atoms: O_12  and  C_13
REMARK    7  A    between atoms: C_14  and  O_15
REMARK    8  A    between atoms: O_15  and  C_16
REMARK    9  A    between atoms: C_17  and  O_18
REMARK   10  A    between atoms: O_18  and  C_19
REMARK   11  A    between atoms: C_22  and  O_23
REMARK   12  A    between atoms: O_23  and  C_24
REMARK   13  A    between atoms: C_24  and  C_25
REMARK   14  A    between atoms: C_25  and  O_26
REMARK   15  A    between atoms: O_26  and  S_27
REMARK   16  A    between atoms: S_27  and  C_28
REMARK                            x       y       z     vdW  Elec       q    Type
REMARK                         _______ _______ _______ _____ _____    ______ ____
ROOT
ATOM      1  C   UNL     1       1.667   8.721  19.349  0.00  0.00    +0.000 A 
ATOM      2  C   UNL     1       2.111   8.067  18.191  0.00  0.00    +0.000 A 
ATOM      3  C   UNL     1       2.264   6.681  18.171  0.00  0.00    +0.000 A 
ATOM      4  C   UNL     1       2.033   5.938  19.327  0.00  0.00    +0.000 A 
ATOM      5  C   UNL     1       1.711   6.594  20.515  0.00  0.00    +0.000 A 
ATOM      6  C   UNL     1       1.492   7.976  20.528  0.00  0.00    +0.000 A 
ENDROOT
BRANCH   1   8
ATOM      7  C   UNL     1       0.277  10.499  18.624  0.00  0.00    +0.000 C 
ATOM      8  O   UNL     1       1.417  10.069  19.366  0.00  0.00    +0.000 OA
ENDBRANCH   1   8
BRANCH   4   9
ATOM      9  C   UNL     1       1.966   4.482  19.262  0.00  0.00    +0.000 C 
ATOM     10  C   UNL     1       2.842   3.632  18.716  0.00  0.00    +0.000 C 
BRANCH  10  11
ATOM     11  C   UNL     1       4.124   3.920  18.074  0.00  0.00    +0.000 A 
ATOM     12  C   UNL     1       4.168   4.224  16.716  0.00  0.00    +0.000 A 
ATOM     13  C   UNL     1       5.328   4.767  16.154  0.00  0.00    +0.000 A 
ATOM     14  C   UNL     1       6.475   4.965  16.957  0.00  0.00    +0.000 A 
ATOM     15  C   UNL     1       6.455   4.580  18.312  0.00  0.00    +0.000 A 
ATOM     16  C   UNL     1       5.271   4.062  18.857  0.00  0.00    +0.000 A 
BRANCH  13  17
ATOM     17  O   UNL     1       5.408   5.163  14.837  0.00  0.00    +0.000 OA
ATOM     18  C   UNL     1       5.407   4.120  13.868  0.00  0.00    +0.000 C 
ENDBRANCH  13  17
BRANCH  14  19
ATOM     19  O   UNL     1       7.576   5.489  16.313  0.00  0.00    +0.000 OA
ATOM     20  C   UNL     1       7.802   6.882  16.494  0.00  0.00    +0.000 C 
ENDBRANCH  14  19
BRANCH  15  21
ATOM     21  O   UNL     1       7.606   4.742  19.051  0.00  0.00    +0.000 OA
ATOM     22  C   UNL     1       7.770   5.950  19.780  0.00  0.00    +0.000 C 
ENDBRANCH  15  21
ENDBRANCH  10  11
ENDBRANCH   4   9
BRANCH   6  23
ATOM     23  O   UNL     1       1.106   8.444  21.760  0.00  0.00    +0.000 OA
BRANCH  23  24
ATOM     24  C   UNL     1      -0.275   8.757  21.903  0.00  0.00    +0.000 C 
BRANCH  24  25
ATOM     25  C   UNL     1      -0.447   9.844  22.959  0.00  0.00    +0.000 C 
BRANCH  25  26
ATOM     26  O   UNL     1       0.121  11.035  22.440  0.00  0.00    +0.000 OA
BRANCH  26  27
ATOM     27  S   UNL     1      -0.814  12.359  22.342  0.00  0.00    +0.000 S 
ATOM     28  C   UNL     1      -2.172  11.708  23.288  0.00  0.00    +0.000 C 
ATOM     29  O   UNL     1      -0.190  13.424  23.094  0.00  0.00    +0.000 OA
ATOM     30  O   UNL     1      -1.241  12.526  20.970  0.00  0.00    +0.000 OA
ENDBRANCH  26  27
ENDBRANCH  25  26
ENDBRANCH  24  25
ENDBRANCH  23  24
ENDBRANCH   6  23
TORSDOF 11
ENDMDL
MODEL 9
REMARK VINA RESULT:      -6.3      2.654      4.482
REMARK  Name = 
REMARK  16 active torsions:
REMARK  status: ('A' for Active; 'I' for Inactive)
REMARK    1  A    between atoms: C_1  and  O_2
REMARK    2  A    between atoms: O_2  and  C_3
REMARK    3  A    between atoms: C_6  and  C_7
REMARK    4  A    between atoms: C_8  and  C_9
REMARK    5  A    between atoms: C_11  and  O_12
REMARK    6  A    between atoms: O_12  and  C_13
REMARK    7  A    between atoms: C_14  and  O_15
REMARK    8  A    between atoms: O_15  and  C_16
REMARK    9  A    between atoms: C_17  and  O_18
REMARK   10  A    between atoms: O_18  and  C_19
REMARK   11  A    between atoms: C_22  and  O_23
REMARK   12  A    between atoms: O_23  and  C_24
REMARK   13  A    between atoms: C_24  and  C_25
REMARK   14  A    between atoms: C_25  and  O_26
REMARK   15  A    between atoms: O_26  and  S_27
REMARK   16  A    between atoms: S_27  and  C_28
REMARK                            x       y       z     vdW  Elec       q    Type
REMARK                         _______ _______ _______ _____ _____    ______ ____
ROOT
ATOM      1  C   UNL     1       0.310   9.597  21.328  0.00  0.00    +0.000 A 
ATOM      2  C   UNL     1       0.997   8.392  21.123  0.00  0.00    +0.000 A 
ATOM      3  C   UNL     1       1.623   8.128  19.905  0.00  0.00    +0.000 A 
ATOM      4  C   UNL     1       1.516   9.038  18.855  0.00  0.00    +0.000 A 
ATOM      5  C   UNL     1       0.730  10.181  19.011  0.00  0.00    +0.000 A 
ATOM      6  C   UNL     1       0.155  10.486  20.249  0.00  0.00    +0.000 A 
ENDROOT
BRANCH   1   8
ATOM      7  C   UNL     1       0.366   9.292  23.678  0.00  0.00    +0.000 C 
ATOM      8  O   UNL     1      -0.231   9.922  22.545  0.00  0.00    +0.000 OA
ENDBRANCH   1   8
BRANCH   4   9
ATOM      9  C   UNL     1       2.347   8.887  17.665  0.00  0.00    +0.000 C 
ATOM     10  C   UNL     1       3.135   7.862  17.327  0.00  0.00    +0.000 C 
BRANCH  10  11
ATOM     11  C   UNL     1       3.351   6.597  18.028  0.00  0.00    +0.000 A 
ATOM     12  C   UNL     1       2.456   5.544  17.853  0.00  0.00    +0.000 A 
ATOM     13  C   UNL     1       2.792   4.257  18.286  0.00  0.00    +0.000 A 
ATOM     14  C   UNL     1       4.022   4.033  18.946  0.00  0.00    +0.000 A 
ATOM     15  C   UNL     1       4.889   5.115  19.196  0.00  0.00    +0.000 A 
ATOM     16  C   UNL     1       4.541   6.391  18.728  0.00  0.00    +0.000 A 
BRANCH  13  17
ATOM     17  O   UNL     1       1.987   3.160  18.070  0.00  0.00    +0.000 OA
ATOM     18  C   UNL     1       0.847   3.043  18.916  0.00  0.00    +0.000 C 
ENDBRANCH  13  17
BRANCH  14  19
ATOM     19  O   UNL     1       4.258   2.736  19.353  0.00  0.00    +0.000 OA
ATOM     20  C   UNL     1       3.908   2.430  20.698  0.00  0.00    +0.000 C 
ENDBRANCH  14  19
BRANCH  15  21
ATOM     21  O   UNL     1       6.055   4.868  19.885  0.00  0.00    +0.000 OA
ATOM     22  C   UNL     1       7.222   5.584  19.507  0.00  0.00    +0.000 C 
ENDBRANCH  15  21
ENDBRANCH  10  11
ENDBRANCH   4   9
BRANCH   6  23
ATOM     23  O   UNL     1      -0.516  11.683  20.246  0.00  0.00    +0.000 OA
BRANCH  23  24
ATOM     24  C   UNL     1      -0.718  12.282  18.970  0.00  0.00    +0.000 C 
BRANCH  24  25
ATOM     25  C   UNL     1      -2.111  11.933  18.456  0.00  0.00    +0.000 C 
BRANCH  25  26
ATOM     26  O   UNL     1      -1.986  11.598  17.084  0.00  0.00    +0.000 OA
BRANCH  26  27
ATOM     27  S   UNL     1      -3.170  10.730  16.390  0.00  0.00    +0.000 S 
ATOM     28  C   UNL     1      -4.521  11.635  17.107  0.00  0.00    +0.000 C 
ATOM     29  O   UNL     1      -3.148  10.974  14.965  0.00  0.00    +0.000 OA
ATOM     30  O   UNL     1      -3.154   9.396  16.948  0.00  0.00    +0.000 OA
ENDBRANCH  26  27
ENDBRANCH  25  26
ENDBRANCH  24  25
ENDBRANCH  23  24
ENDBRANCH   6  23
TORSDOF 11
ENDMDL
