MODEL 1
REMARK VINA RESULT:      -8.2      0.000      0.000
REMARK  Name = 
REMARK  7 active torsions:
REMARK  status: ('A' for Active; 'I' for Inactive)
REMARK    1  A    between atoms: C_1  and  O_2
REMARK    2  A    between atoms: O_2  and  C_3
REMARK    3  A    between atoms: C_8  and  O_9
REMARK    4  A    between atoms: O_9  and  C_10
REMARK    5  A    between atoms: C_15  and  C_16
REMARK    6  A    between atoms: N_18  and  C_19
REMARK    7  A    between atoms: C_19  and  C_20
REMARK                            x       y       z     vdW  Elec       q    Type
REMARK                         _______ _______ _______ _____ _____    ______ ____
ROOT
ATOM      1  C   UNL     1       3.534   3.244  19.473  0.00  0.00    +0.000 A 
ATOM      2  N   UNL     1       3.643   2.439  20.576  0.00  0.00    +0.000 NA
ATOM      3  C   UNL     1       2.756   2.564  21.582  0.00  0.00    +0.000 A 
ATOM      4  C   UNL     1       1.763   3.509  21.584  0.00  0.00    +0.000 A 
ATOM      5  C   UNL     1       1.562   4.215  20.405  0.00  0.00    +0.000 A 
ATOM      6  C   UNL     1       2.383   4.014  19.269  0.00  0.00    +0.000 A 
ENDROOT
BRANCH   6   7
ATOM      7  C   UNL     1       1.871   4.745  18.062  0.00  0.00    +0.000 C 
ATOM      8  O   UNL     1       1.223   4.127  17.218  0.00  0.00    +0.000 OA
ATOM      9  N   UNL     1       2.149   6.058  17.765  0.00  0.00    +0.000 N 
ATOM     10  H   UNL     1       1.645   6.369  16.945  0.00  0.00    +0.000 HD
BRANCH   9  11
ATOM     11  C   UNL     1       2.815   7.077  18.527  0.00  0.00    +0.000 C 
BRANCH  11  12
ATOM     12  C   UNL     1       1.971   8.152  19.121  0.00  0.00    +0.000 A 
ATOM     13  C   UNL     1       1.597   8.162  20.447  0.00  0.00    +0.000 A 
ATOM     14  C   UNL     1       0.802   9.203  20.908  0.00  0.00    +0.000 A 
ATOM     15  C   UNL     1       0.401  10.232  20.044  0.00  0.00    +0.000 A 
ATOM     16  C   UNL     1       0.784  10.236  18.719  0.00  0.00    +0.000 A 
ATOM     17  C   UNL     1       1.582   9.207  18.248  0.00  0.00    +0.000 A 
ENDBRANCH  11  12
ENDBRANCH   9  11
ENDBRANCH   6   7
BRANCH   1  18
ATOM     18  O   UNL     1       4.711   3.149  18.771  0.00  0.00    +0.000 OA
BRANCH  18  24
ATOM     19  C   UNL     1       5.977   5.237  18.344  0.00  0.00    +0.000 A 
ATOM     20  C   UNL     1       6.109   6.294  17.437  0.00  0.00    +0.000 A 
ATOM     21  C   UNL     1       5.616   6.193  16.129  0.00  0.00    +0.000 A 
ATOM     22  C   UNL     1       5.027   5.011  15.694  0.00  0.00    +0.000 A 
ATOM     23  C   UNL     1       4.868   3.962  16.595  0.00  0.00    +0.000 A 
ATOM     24  C   UNL     1       5.256   4.111  17.947  0.00  0.00    +0.000 A 
BRANCH  19  26
ATOM     25  C   UNL     1       7.826   5.594  19.810  0.00  0.00    +0.000 C 
ATOM     26  O   UNL     1       6.463   5.239  19.619  0.00  0.00    +0.000 OA
ENDBRANCH  19  26
ENDBRANCH  18  24
ENDBRANCH   1  18
TORSDOF 6
ENDMDL
MODEL 2
REMARK VINA RESULT:      -8.2      0.868      2.118
REMARK  Name = 
REMARK  7 active torsions:
REMARK  status: ('A' for Active; 'I' for Inactive)
REMARK    1  A    between atoms: C_1  and  O_2
REMARK    2  A    between atoms: O_2  and  C_3
REMARK    3  A    between atoms: C_8  and  O_9
REMARK    4  A    between atoms: O_9  and  C_10
REMARK    5  A    between atoms: C_15  and  C_16
REMARK    6  A    between atoms: N_18  and  C_19
REMARK    7  A    between atoms: C_19  and  C_20
REMARK                            x       y       z     vdW  Elec       q    Type
REMARK                         _______ _______ _______ _____ _____    ______ ____
ROOT
ATOM      1  C   UNL     1       3.645   3.298  19.398  0.00  0.00    +0.000 A 
ATOM      2  N   UNL     1       3.807   2.488  20.492  0.00  0.00    +0.000 NA
ATOM      3  C   UNL     1       2.897   2.520  21.484  0.00  0.00    +0.000 A 
ATOM      4  C   UNL     1       1.825   3.375  21.482  0.00  0.00    +0.000 A 
ATOM      5  C   UNL     1       1.582   4.079  20.310  0.00  0.00    +0.000 A 
ATOM      6  C   UNL     1       2.435   3.969  19.186  0.00  0.00    +0.000 A 
ENDROOT
BRANCH   6   7
ATOM      7  C   UNL     1       1.881   4.671  17.981  0.00  0.00    +0.000 C 
ATOM      8  O   UNL     1       1.183   4.040  17.187  0.00  0.00    +0.000 OA
ATOM      9  N   UNL     1       2.167   5.969  17.630  0.00  0.00    +0.000 N 
ATOM     10  H   UNL     1       1.631   6.264  16.824  0.00  0.00    +0.000 HD
BRANCH   9  11
ATOM     11  C   UNL     1       2.885   6.998  18.327  0.00  0.00    +0.000 C 
BRANCH  11  12
ATOM     12  C   UNL     1       2.087   8.091  18.951  0.00  0.00    +0.000 A 
ATOM     13  C   UNL     1       1.672   9.205  18.254  0.00  0.00    +0.000 A 
ATOM     14  C   UNL     1       0.938  10.176  18.922  0.00  0.00    +0.000 A 
ATOM     15  C   UNL     1       0.612  10.017  20.277  0.00  0.00    +0.000 A 
ATOM     16  C   UNL     1       1.011   8.898  20.977  0.00  0.00    +0.000 A 
ATOM     17  C   UNL     1       1.738   7.919  20.320  0.00  0.00    +0.000 A 
ENDBRANCH  11  12
ENDBRANCH   9  11
ENDBRANCH   6   7
BRANCH   1  18
ATOM     18  O   UNL     1       4.837   3.317  18.715  0.00  0.00    +0.000 OA
BRANCH  18  24
ATOM     19  C   UNL     1       5.741   4.880  17.017  0.00  0.00    +0.000 A 
ATOM     20  C   UNL     1       6.786   5.777  16.774  0.00  0.00    +0.000 A 
ATOM     21  C   UNL     1       7.557   6.295  17.823  0.00  0.00    +0.000 A 
ATOM     22  C   UNL     1       7.259   5.961  19.139  0.00  0.00    +0.000 A 
ATOM     23  C   UNL     1       6.237   5.049  19.392  0.00  0.00    +0.000 A 
ATOM     24  C   UNL     1       5.543   4.435  18.325  0.00  0.00    +0.000 A 
BRANCH  19  26
ATOM     25  C   UNL     1       5.411   4.297  14.726  0.00  0.00    +0.000 C 
ATOM     26  O   UNL     1       4.920   4.362  16.059  0.00  0.00    +0.000 OA
ENDBRANCH  19  26
ENDBRANCH  18  24
ENDBRANCH   1  18
TORSDOF 6
ENDMDL
MODEL 3
REMARK VINA RESULT:      -8.1      2.002      5.096
REMARK  Name = 
REMARK  7 active torsions:
REMARK  status: ('A' for Active; 'I' for Inactive)
REMARK    1  A    between atoms: C_1  and  O_2
REMARK    2  A    between atoms: O_2  and  C_3
REMARK    3  A    between atoms: C_8  and  O_9
REMARK    4  A    between atoms: O_9  and  C_10
REMARK    5  A    between atoms: C_15  and  C_16
REMARK    6  A    between atoms: N_18  and  C_19
REMARK    7  A    between atoms: C_19  and  C_20
REMARK                            x       y       z     vdW  Elec       q    Type
REMARK                         _______ _______ _______ _____ _____    ______ ____
ROOT
ATOM      1  C   UNL     1       2.240   4.213  20.094  0.00  0.00    +0.000 A 
ATOM      2  N   UNL     1       0.875   4.139  19.999  0.00  0.00    +0.000 NA
ATOM      3  C   UNL     1       0.310   3.139  19.297  0.00  0.00    +0.000 A 
ATOM      4  C   UNL     1       1.043   2.203  18.615  0.00  0.00    +0.000 A 
ATOM      5  C   UNL     1       2.413   2.190  18.838  0.00  0.00    +0.000 A 
ATOM      6  C   UNL     1       3.038   3.138  19.684  0.00  0.00    +0.000 A 
ENDROOT
BRANCH   6   7
ATOM      7  C   UNL     1       4.486   2.823  19.919  0.00  0.00    +0.000 C 
ATOM      8  O   UNL     1       4.795   2.100  20.866  0.00  0.00    +0.000 OA
ATOM      9  N   UNL     1       5.531   3.359  19.205  0.00  0.00    +0.000 N 
ATOM     10  H   UNL     1       6.417   2.955  19.481  0.00  0.00    +0.000 HD
BRANCH   9  11
ATOM     11  C   UNL     1       5.545   4.179  18.027  0.00  0.00    +0.000 C 
BRANCH  11  12
ATOM     12  C   UNL     1       6.424   5.383  18.039  0.00  0.00    +0.000 A 
ATOM     13  C   UNL     1       7.399   5.587  18.991  0.00  0.00    +0.000 A 
ATOM     14  C   UNL     1       8.164   6.744  18.925  0.00  0.00    +0.000 A 
ATOM     15  C   UNL     1       7.959   7.678  17.899  0.00  0.00    +0.000 A 
ATOM     16  C   UNL     1       6.996   7.472  16.934  0.00  0.00    +0.000 A 
ATOM     17  C   UNL     1       6.230   6.319  16.985  0.00  0.00    +0.000 A 
ENDBRANCH  11  12
ENDBRANCH   9  11
ENDBRANCH   6   7
BRANCH   1  18
ATOM     18  O   UNL     1       2.557   5.464  20.566  0.00  0.00    +0.000 OA
BRANCH  18  24
ATOM     19  C   UNL     1       1.720   7.771  20.214  0.00  0.00    +0.000 A 
ATOM     20  C   UNL     1       1.439   8.714  19.220  0.00  0.00    +0.000 A 
ATOM     21  C   UNL     1       1.975   8.593  17.932  0.00  0.00    +0.000 A 
ATOM     22  C   UNL     1       2.846   7.551  17.633  0.00  0.00    +0.000 A 
ATOM     23  C   UNL     1       3.114   6.592  18.607  0.00  0.00    +0.000 A 
ATOM     24  C   UNL     1       2.475   6.650  19.867  0.00  0.00    +0.000 A 
BRANCH  19  26
ATOM     25  C   UNL     1       1.321   9.096  22.158  0.00  0.00    +0.000 C 
ATOM     26  O   UNL     1       1.272   7.837  21.501  0.00  0.00    +0.000 OA
ENDBRANCH  19  26
ENDBRANCH  18  24
ENDBRANCH   1  18
TORSDOF 6
ENDMDL
MODEL 4
REMARK VINA RESULT:      -8.0      2.016      5.490
REMARK  Name = 
REMARK  7 active torsions:
REMARK  status: ('A' for Active; 'I' for Inactive)
REMARK    1  A    between atoms: C_1  and  O_2
REMARK    2  A    between atoms: O_2  and  C_3
REMARK    3  A    between atoms: C_8  and  O_9
REMARK    4  A    between atoms: O_9  and  C_10
REMARK    5  A    between atoms: C_15  and  C_16
REMARK    6  A    between atoms: N_18  and  C_19
REMARK    7  A    between atoms: C_19  and  C_20
REMARK                            x       y       z     vdW  Elec       q    Type
REMARK                         _______ _______ _______ _____ _____    ______ ____
ROOT
ATOM      1  C   UNL     1       2.394   4.308  20.000  0.00  0.00    +0.000 A 
ATOM      2  N   UNL     1       1.026   4.239  19.975  0.00  0.00    +0.000 NA
ATOM      3  C   UNL     1       0.422   3.236  19.310  0.00  0.00    +0.000 A 
ATOM      4  C   UNL     1       1.116   2.291  18.599  0.00  0.00    +0.000 A 
ATOM      5  C   UNL     1       2.497   2.275  18.752  0.00  0.00    +0.000 A 
ATOM      6  C   UNL     1       3.167   3.227  19.559  0.00  0.00    +0.000 A 
ENDROOT
BRANCH   6   7
ATOM      7  C   UNL     1       4.624   2.908  19.723  0.00  0.00    +0.000 C 
ATOM      8  O   UNL     1       4.950   1.919  20.378  0.00  0.00    +0.000 OA
ATOM      9  N   UNL     1       5.654   3.697  19.269  0.00  0.00    +0.000 N 
ATOM     10  H   UNL     1       6.554   3.258  19.422  0.00  0.00    +0.000 HD
BRANCH   9  11
ATOM     11  C   UNL     1       5.651   4.868  18.441  0.00  0.00    +0.000 C 
BRANCH  11  12
ATOM     12  C   UNL     1       5.832   4.673  16.974  0.00  0.00    +0.000 A 
ATOM     13  C   UNL     1       4.860   4.122  16.168  0.00  0.00    +0.000 A 
ATOM     14  C   UNL     1       5.122   3.972  14.812  0.00  0.00    +0.000 A 
ATOM     15  C   UNL     1       6.348   4.389  14.273  0.00  0.00    +0.000 A 
ATOM     16  C   UNL     1       7.320   4.955  15.071  0.00  0.00    +0.000 A 
ATOM     17  C   UNL     1       7.067   5.116  16.424  0.00  0.00    +0.000 A 
ENDBRANCH  11  12
ENDBRANCH   9  11
ENDBRANCH   6   7
BRANCH   1  18
ATOM     18  O   UNL     1       2.739   5.562  20.445  0.00  0.00    +0.000 OA
BRANCH  18  24
ATOM     19  C   UNL     1       1.755   7.816  20.137  0.00  0.00    +0.000 A 
ATOM     20  C   UNL     1       1.400   8.753  19.160  0.00  0.00    +0.000 A 
ATOM     21  C   UNL     1       1.924   8.682  17.863  0.00  0.00    +0.000 A 
ATOM     22  C   UNL     1       2.854   7.701  17.539  0.00  0.00    +0.000 A 
ATOM     23  C   UNL     1       3.196   6.748  18.495  0.00  0.00    +0.000 A 
ATOM     24  C   UNL     1       2.573   6.749  19.764  0.00  0.00    +0.000 A 
BRANCH  19  26
ATOM     25  C   UNL     1       1.327   9.083  22.114  0.00  0.00    +0.000 C 
ATOM     26  O   UNL     1       1.322   7.837  21.431  0.00  0.00    +0.000 OA
ENDBRANCH  19  26
ENDBRANCH  18  24
ENDBRANCH   1  18
TORSDOF 6
ENDMDL
MODEL 5
REMARK VINA RESULT:      -8.0      2.013      5.522
REMARK  Name = 
REMARK  7 active torsions:
REMARK  status: ('A' for Active; 'I' for Inactive)
REMARK    1  A    between atoms: C_1  and  O_2
REMARK    2  A    between atoms: O_2  and  C_3
REMARK    3  A    between atoms: C_8  and  O_9
REMARK    4  A    between atoms: O_9  and  C_10
REMARK    5  A    between atoms: C_15  and  C_16
REMARK    6  A    between atoms: N_18  and  C_19
REMARK    7  A    between atoms: C_19  and  C_20
REMARK                            x       y       z     vdW  Elec       q    Type
REMARK                         _______ _______ _______ _____ _____    ______ ____
ROOT
ATOM      1  C   UNL     1       2.388   4.322  19.981  0.00  0.00    +0.000 A 
ATOM      2  N   UNL     1       1.020   4.249  19.947  0.00  0.00    +0.000 NA
ATOM      3  C   UNL     1       0.425   3.239  19.285  0.00  0.00    +0.000 A 
ATOM      4  C   UNL     1       1.127   2.292  18.585  0.00  0.00    +0.000 A 
ATOM      5  C   UNL     1       2.506   2.282  18.747  0.00  0.00    +0.000 A 
ATOM      6  C   UNL     1       3.167   3.241  19.552  0.00  0.00    +0.000 A 
ENDROOT
BRANCH   6   7
ATOM      7  C   UNL     1       4.624   2.928  19.727  0.00  0.00    +0.000 C 
ATOM      8  O   UNL     1       4.949   1.934  20.376  0.00  0.00    +0.000 OA
ATOM      9  N   UNL     1       5.655   3.727  19.293  0.00  0.00    +0.000 N 
ATOM     10  H   UNL     1       6.555   3.292  19.451  0.00  0.00    +0.000 HD
BRANCH   9  11
ATOM     11  C   UNL     1       5.654   4.907  18.477  0.00  0.00    +0.000 C 
BRANCH  11  12
ATOM     12  C   UNL     1       5.933   4.738  17.022  0.00  0.00    +0.000 A 
ATOM     13  C   UNL     1       7.150   5.044  16.454  0.00  0.00    +0.000 A 
ATOM     14  C   UNL     1       7.314   4.861  15.087  0.00  0.00    +0.000 A 
ATOM     15  C   UNL     1       6.265   4.357  14.304  0.00  0.00    +0.000 A 
ATOM     16  C   UNL     1       5.049   4.035  14.868  0.00  0.00    +0.000 A 
ATOM     17  C   UNL     1       4.875   4.207  16.232  0.00  0.00    +0.000 A 
ENDBRANCH  11  12
ENDBRANCH   9  11
ENDBRANCH   6   7
BRANCH   1  18
ATOM     18  O   UNL     1       2.726   5.580  20.420  0.00  0.00    +0.000 OA
BRANCH  18  24
ATOM     19  C   UNL     1       1.795   7.856  20.106  0.00  0.00    +0.000 A 
ATOM     20  C   UNL     1       1.437   8.787  19.125  0.00  0.00    +0.000 A 
ATOM     21  C   UNL     1       1.920   8.682  17.815  0.00  0.00    +0.000 A 
ATOM     22  C   UNL     1       2.813   7.671  17.478  0.00  0.00    +0.000 A 
ATOM     23  C   UNL     1       3.156   6.723  18.439  0.00  0.00    +0.000 A 
ATOM     24  C   UNL     1       2.572   6.761  19.726  0.00  0.00    +0.000 A 
BRANCH  19  26
ATOM     25  C   UNL     1       0.255   8.685  21.729  0.00  0.00    +0.000 C 
ATOM     26  O   UNL     1       1.401   7.908  21.411  0.00  0.00    +0.000 OA
ENDBRANCH  19  26
ENDBRANCH  18  24
ENDBRANCH   1  18
TORSDOF 6
ENDMDL
MODEL 6
REMARK VINA RESULT:      -8.0      2.002      5.215
REMARK  Name = 
REMARK  7 active torsions:
REMARK  status: ('A' for Active; 'I' for Inactive)
REMARK    1  A    between atoms: C_1  and  O_2
REMARK    2  A    between atoms: O_2  and  C_3
REMARK    3  A    between atoms: C_8  and  O_9
REMARK    4  A    between atoms: O_9  and  C_10
REMARK    5  A    between atoms: C_15  and  C_16
REMARK    6  A    between atoms: N_18  and  C_19
REMARK    7  A    between atoms: C_19  and  C_20
REMARK                            x       y       z     vdW  Elec       q    Type
REMARK                         _______ _______ _______ _____ _____    ______ ____
ROOT
ATOM      1  C   UNL     1       2.240   4.204  20.093  0.00  0.00    +0.000 A 
ATOM      2  N   UNL     1       0.876   4.106  20.001  0.00  0.00    +0.000 NA
ATOM      3  C   UNL     1       0.328   3.092  19.304  0.00  0.00    +0.000 A 
ATOM      4  C   UNL     1       1.077   2.166  18.624  0.00  0.00    +0.000 A 
ATOM      5  C   UNL     1       2.448   2.180  18.845  0.00  0.00    +0.000 A 
ATOM      6  C   UNL     1       3.056   3.142  19.687  0.00  0.00    +0.000 A 
ENDROOT
BRANCH   6   7
ATOM      7  C   UNL     1       4.510   2.854  19.921  0.00  0.00    +0.000 C 
ATOM      8  O   UNL     1       4.838   2.181  20.897  0.00  0.00    +0.000 OA
ATOM      9  N   UNL     1       5.541   3.367  19.170  0.00  0.00    +0.000 N 
ATOM     10  H   UNL     1       6.435   2.986  19.456  0.00  0.00    +0.000 HD
BRANCH   9  11
ATOM     11  C   UNL     1       5.534   4.129  17.954  0.00  0.00    +0.000 C 
BRANCH  11  12
ATOM     12  C   UNL     1       6.376   5.359  17.910  0.00  0.00    +0.000 A 
ATOM     13  C   UNL     1       6.283   6.291  16.899  0.00  0.00    +0.000 A 
ATOM     14  C   UNL     1       7.115   7.402  16.938  0.00  0.00    +0.000 A 
ATOM     15  C   UNL     1       8.020   7.579  17.995  0.00  0.00    +0.000 A 
ATOM     16  C   UNL     1       8.108   6.658  19.017  0.00  0.00    +0.000 A 
ATOM     17  C   UNL     1       7.279   5.548  18.993  0.00  0.00    +0.000 A 
ENDBRANCH  11  12
ENDBRANCH   9  11
ENDBRANCH   6   7
BRANCH   1  18
ATOM     18  O   UNL     1       2.535   5.463  20.560  0.00  0.00    +0.000 OA
BRANCH  18  24
ATOM     19  C   UNL     1       1.775   7.786  20.148  0.00  0.00    +0.000 A 
ATOM     20  C   UNL     1       1.537   8.716  19.130  0.00  0.00    +0.000 A 
ATOM     21  C   UNL     1       2.089   8.551  17.853  0.00  0.00    +0.000 A 
ATOM     22  C   UNL     1       2.931   7.478  17.590  0.00  0.00    +0.000 A 
ATOM     23  C   UNL     1       3.155   6.531  18.587  0.00  0.00    +0.000 A 
ATOM     24  C   UNL     1       2.500   6.635  19.835  0.00  0.00    +0.000 A 
BRANCH  19  26
ATOM     25  C   UNL     1       0.053   8.526  21.625  0.00  0.00    +0.000 C 
ATOM     26  O   UNL     1       1.309   7.892  21.426  0.00  0.00    +0.000 OA
ENDBRANCH  19  26
ENDBRANCH  18  24
ENDBRANCH   1  18
TORSDOF 6
ENDMDL
MODEL 7
REMARK VINA RESULT:      -8.0      2.508      6.456
REMARK  Name = 
REMARK  7 active torsions:
REMARK  status: ('A' for Active; 'I' for Inactive)
REMARK    1  A    between atoms: C_1  and  O_2
REMARK    2  A    between atoms: O_2  and  C_3
REMARK    3  A    between atoms: C_8  and  O_9
REMARK    4  A    between atoms: O_9  and  C_10
REMARK    5  A    between atoms: C_15  and  C_16
REMARK    6  A    between atoms: N_18  and  C_19
REMARK    7  A    between atoms: C_19  and  C_20
REMARK                            x       y       z     vdW  Elec       q    Type
REMARK                         _______ _______ _______ _____ _____    ______ ____
ROOT
ATOM      1  C   UNL     1       5.981   4.997  19.014  0.00  0.00    +0.000 A 
ATOM      2  N   UNL     1       6.913   5.142  20.008  0.00  0.00    +0.000 NA
ATOM      3  C   UNL     1       7.957   5.972  19.825  0.00  0.00    +0.000 A 
ATOM      4  C   UNL     1       8.171   6.652  18.654  0.00  0.00    +0.000 A 
ATOM      5  C   UNL     1       7.150   6.621  17.712  0.00  0.00    +0.000 A 
ATOM      6  C   UNL     1       5.966   5.874  17.923  0.00  0.00    +0.000 A 
ENDROOT
BRANCH   6   7
ATOM      7  C   UNL     1       4.934   6.134  16.865  0.00  0.00    +0.000 C 
ATOM      8  O   UNL     1       4.215   7.128  16.960  0.00  0.00    +0.000 OA
ATOM      9  N   UNL     1       4.655   5.286  15.819  0.00  0.00    +0.000 N 
ATOM     10  H   UNL     1       3.976   5.689  15.185  0.00  0.00    +0.000 HD
BRANCH   9  11
ATOM     11  C   UNL     1       5.310   4.090  15.373  0.00  0.00    +0.000 C 
BRANCH  11  12
ATOM     12  C   UNL     1       6.025   4.144  14.066  0.00  0.00    +0.000 A 
ATOM     13  C   UNL     1       5.635   3.405  12.971  0.00  0.00    +0.000 A 
ATOM     14  C   UNL     1       6.368   3.515  11.796  0.00  0.00    +0.000 A 
ATOM     15  C   UNL     1       7.474   4.375  11.724  0.00  0.00    +0.000 A 
ATOM     16  C   UNL     1       7.861   5.129  12.812  0.00  0.00    +0.000 A 
ATOM     17  C   UNL     1       7.134   5.032  13.987  0.00  0.00    +0.000 A 
ENDBRANCH  11  12
ENDBRANCH   9  11
ENDBRANCH   6   7
BRANCH   1  18
ATOM     18  O   UNL     1       5.229   3.885  19.309  0.00  0.00    +0.000 OA
BRANCH  18  24
ATOM     19  C   UNL     1       2.799   4.325  19.517  0.00  0.00    +0.000 A 
ATOM     20  C   UNL     1       1.542   3.729  19.366  0.00  0.00    +0.000 A 
ATOM     21  C   UNL     1       1.379   2.561  18.610  0.00  0.00    +0.000 A 
ATOM     22  C   UNL     1       2.466   2.000  17.950  0.00  0.00    +0.000 A 
ATOM     23  C   UNL     1       3.727   2.569  18.114  0.00  0.00    +0.000 A 
ATOM     24  C   UNL     1       3.908   3.675  18.975  0.00  0.00    +0.000 A 
BRANCH  19  26
ATOM     25  C   UNL     1       2.406   6.669  19.739  0.00  0.00    +0.000 C 
ATOM     26  O   UNL     1       3.036   5.482  20.202  0.00  0.00    +0.000 OA
ENDBRANCH  19  26
ENDBRANCH  18  24
ENDBRANCH   1  18
TORSDOF 6
ENDMDL
MODEL 8
REMARK VINA RESULT:      -7.8      2.517      6.430
REMARK  Name = 
REMARK  7 active torsions:
REMARK  status: ('A' for Active; 'I' for Inactive)
REMARK    1  A    between atoms: C_1  and  O_2
REMARK    2  A    between atoms: O_2  and  C_3
REMARK    3  A    between atoms: C_8  and  O_9
REMARK    4  A    between atoms: O_9  and  C_10
REMARK    5  A    between atoms: C_15  and  C_16
REMARK    6  A    between atoms: N_18  and  C_19
REMARK    7  A    between atoms: C_19  and  C_20
REMARK                            x       y       z     vdW  Elec       q    Type
REMARK                         _______ _______ _______ _____ _____    ______ ____
ROOT
ATOM      1  C   UNL     1       5.985   5.040  19.074  0.00  0.00    +0.000 A 
ATOM      2  N   UNL     1       6.966   5.179  20.021  0.00  0.00    +0.000 NA
ATOM      3  C   UNL     1       8.023   5.976  19.771  0.00  0.00    +0.000 A 
ATOM      4  C   UNL     1       8.199   6.624  18.577  0.00  0.00    +0.000 A 
ATOM      5  C   UNL     1       7.135   6.603  17.684  0.00  0.00    +0.000 A 
ATOM      6  C   UNL     1       5.942   5.895  17.966  0.00  0.00    +0.000 A 
ENDROOT
BRANCH   6   7
ATOM      7  C   UNL     1       4.870   6.161  16.951  0.00  0.00    +0.000 C 
ATOM      8  O   UNL     1       4.151   7.150  17.085  0.00  0.00    +0.000 OA
ATOM      9  N   UNL     1       4.554   5.324  15.907  0.00  0.00    +0.000 N 
ATOM     10  H   UNL     1       3.850   5.730  15.304  0.00  0.00    +0.000 HD
BRANCH   9  11
ATOM     11  C   UNL     1       5.196   4.135  15.424  0.00  0.00    +0.000 C 
BRANCH  11  12
ATOM     12  C   UNL     1       6.032   4.258  14.195  0.00  0.00    +0.000 A 
ATOM     13  C   UNL     1       7.132   5.084  14.119  0.00  0.00    +0.000 A 
ATOM     14  C   UNL     1       7.845   5.138  12.928  0.00  0.00    +0.000 A 
ATOM     15  C   UNL     1       7.460   4.354  11.830  0.00  0.00    +0.000 A 
ATOM     16  C   UNL     1       6.369   3.514  11.905  0.00  0.00    +0.000 A 
ATOM     17  C   UNL     1       5.654   3.446  13.089  0.00  0.00    +0.000 A 
ENDBRANCH  11  12
ENDBRANCH   9  11
ENDBRANCH   6   7
BRANCH   1  18
ATOM     18  O   UNL     1       5.218   3.956  19.428  0.00  0.00    +0.000 OA
BRANCH  18  24
ATOM     19  C   UNL     1       2.772   4.350  19.347  0.00  0.00    +0.000 A 
ATOM     20  C   UNL     1       1.546   3.708  19.138  0.00  0.00    +0.000 A 
ATOM     21  C   UNL     1       1.480   2.462  18.501  0.00  0.00    +0.000 A 
ATOM     22  C   UNL     1       2.637   1.863  18.016  0.00  0.00    +0.000 A 
ATOM     23  C   UNL     1       3.865   2.481  18.240  0.00  0.00    +0.000 A 
ATOM     24  C   UNL     1       3.940   3.676  18.990  0.00  0.00    +0.000 A 
BRANCH  19  26
ATOM     25  C   UNL     1       1.836   6.090  20.686  0.00  0.00    +0.000 C 
ATOM     26  O   UNL     1       2.920   5.578  19.922  0.00  0.00    +0.000 OA
ENDBRANCH  19  26
ENDBRANCH  18  24
ENDBRANCH   1  18
TORSDOF 6
ENDMDL
MODEL 9
REMARK VINA RESULT:      -7.8      1.735      4.735
REMARK  Name = 
REMARK  7 active torsions:
REMARK  status: ('A' for Active; 'I' for Inactive)
REMARK    1  A    between atoms: C_1  and  O_2
REMARK    2  A    between atoms: O_2  and  C_3
REMARK    3  A    between atoms: C_8  and  O_9
REMARK    4  A    between atoms: O_9  and  C_10
REMARK    5  A    between atoms: C_15  and  C_16
REMARK    6  A    between atoms: N_18  and  C_19
REMARK    7  A    between atoms: C_19  and  C_20
REMARK                            x       y       z     vdW  Elec       q    Type
REMARK                         _______ _______ _______ _____ _____    ______ ____
ROOT
ATOM      1  C   UNL     1       2.546   4.818  20.091  0.00  0.00    +0.000 A 
ATOM      2  N   UNL     1       2.579   4.408  21.399  0.00  0.00    +0.000 NA
ATOM      3  C   UNL     1       1.786   3.396  21.799  0.00  0.00    +0.000 A 
ATOM      4  C   UNL     1       0.892   2.777  20.964  0.00  0.00    +0.000 A 
ATOM      5  C   UNL     1       0.970   3.089  19.613  0.00  0.00    +0.000 A 
ATOM      6  C   UNL     1       1.890   4.047  19.123  0.00  0.00    +0.000 A 
ENDROOT
BRANCH   6   7
ATOM      7  C   UNL     1       1.924   4.088  17.624  0.00  0.00    +0.000 C 
ATOM      8  O   UNL     1       0.892   4.354  17.009  0.00  0.00    +0.000 OA
ATOM      9  N   UNL     1       3.014   3.757  16.855  0.00  0.00    +0.000 N 
ATOM     10  H   UNL     1       2.842   3.924  15.872  0.00  0.00    +0.000 HD
BRANCH   9  11
ATOM     11  C   UNL     1       4.369   3.455  17.221  0.00  0.00    +0.000 C 
BRANCH  11  12
ATOM     12  C   UNL     1       5.306   4.601  17.392  0.00  0.00    +0.000 A 
ATOM     13  C   UNL     1       6.099   4.757  18.507  0.00  0.00    +0.000 A 
ATOM     14  C   UNL     1       6.936   5.863  18.582  0.00  0.00    +0.000 A 
ATOM     15  C   UNL     1       6.984   6.793  17.533  0.00  0.00    +0.000 A 
ATOM     16  C   UNL     1       6.204   6.635  16.407  0.00  0.00    +0.000 A 
ATOM     17  C   UNL     1       5.370   5.533  16.318  0.00  0.00    +0.000 A 
ENDBRANCH  11  12
ENDBRANCH   9  11
ENDBRANCH   6   7
BRANCH   1  18
ATOM     18  O   UNL     1       3.178   6.036  20.022  0.00  0.00    +0.000 OA
BRANCH  18  24
ATOM     19  C   UNL     1       1.719   8.036  20.136  0.00  0.00    +0.000 A 
ATOM     20  C   UNL     1       1.008   8.943  19.343  0.00  0.00    +0.000 A 
ATOM     21  C   UNL     1       1.287   9.087  17.978  0.00  0.00    +0.000 A 
ATOM     22  C   UNL     1       2.320   8.361  17.396  0.00  0.00    +0.000 A 
ATOM     23  C   UNL     1       3.018   7.437  18.170  0.00  0.00    +0.000 A 
ATOM     24  C   UNL     1       2.652   7.206  19.516  0.00  0.00    +0.000 A 
BRANCH  19  26
ATOM     25  C   UNL     1       1.204   9.007  22.255  0.00  0.00    +0.000 C 
ATOM     26  O   UNL     1       1.537   7.865  21.477  0.00  0.00    +0.000 OA
ENDBRANCH  19  26
ENDBRANCH  18  24
ENDBRANCH   1  18
TORSDOF 6
ENDMDL
