MODEL 1
REMARK VINA RESULT:      -8.9      0.000      0.000
REMARK  Name = 
REMARK  4 active torsions:
REMARK  status: ('A' for Active; 'I' for Inactive)
REMARK    1  A    between atoms: C_2  and  C_11
REMARK    2  A    between atoms: N_3  and  C_4
REMARK    3  A    between atoms: C_15  and  C_16
REMARK    4  A    between atoms: C_23  and  C_24
REMARK                            x       y       z     vdW  Elec       q    Type
REMARK                         _______ _______ _______ _____ _____    ______ ____
ROOT
ATOM      1  C   UNL     1       1.660   8.688  18.935  0.00  0.00    +0.000 A 
ATOM      2  C   UNL     1       2.533   8.812  17.834  0.00  0.00    +0.000 A 
ATOM      3  C   UNL     1       3.131   7.592  17.692  0.00  0.00    +0.000 A 
ATOM      4  N   UNL     1       4.065   7.167  16.800  0.00  0.00    +0.000 NA
ATOM      5  C   UNL     1       4.378   5.903  16.830  0.00  0.00    +0.000 A 
ATOM      6  C   UNL     1       3.784   4.912  17.785  0.00  0.00    +0.000 A 
ATOM      7  C   UNL     1       2.902   5.397  18.682  0.00  0.00    +0.000 A 
ATOM      8  N   UNL     1       2.564   6.760  18.661  0.00  0.00    +0.000 N 
ATOM      9  N   UNL     1       1.708   7.457  19.477  0.00  0.00    +0.000 NA
ENDROOT
BRANCH   5  10
ATOM     10  C   UNL     1       5.410   5.409  15.877  0.00  0.00    +0.000 A 
ATOM     11  C   UNL     1       4.992   4.634  14.786  0.00  0.00    +0.000 A 
ATOM     12  C   UNL     1       5.925   4.127  13.881  0.00  0.00    +0.000 A 
ATOM     13  C   UNL     1       7.282   4.384  14.066  0.00  0.00    +0.000 A 
ATOM     14  C   UNL     1       7.706   5.145  15.154  0.00  0.00    +0.000 A 
ATOM     15  C   UNL     1       6.775   5.656  16.062  0.00  0.00    +0.000 A 
ENDBRANCH   5  10
BRANCH   7  16
ATOM     16  C   UNL     1       2.310   4.463  19.647  0.00  0.00    +0.000 A 
ATOM     17  C   UNL     1       2.778   4.420  20.966  0.00  0.00    +0.000 A 
ATOM     18  C   UNL     1       2.249   3.497  21.869  0.00  0.00    +0.000 A 
ATOM     19  C   UNL     1       1.253   2.611  21.460  0.00  0.00    +0.000 A 
ATOM     20  C   UNL     1       0.781   2.649  20.148  0.00  0.00    +0.000 A 
ATOM     21  C   UNL     1       1.307   3.571  19.243  0.00  0.00    +0.000 A 
ENDBRANCH   7  16
BRANCH   1  23
ATOM     22  O   UNL     1       0.097  10.385  18.615  0.00  0.00    +0.000 OA
ATOM     23  C   UNL     1       0.809   9.782  19.416  0.00  0.00    +0.000 C 
ATOM     24  N   UNL     1       0.932  10.075  20.765  0.00  0.00    +0.000 N 
ATOM     25  H   UNL     1       1.676   9.582  21.249  0.00  0.00    +0.000 HD
BRANCH  24  26
ATOM     26  C   UNL     1       0.239  11.119  21.421  0.00  0.00    +0.000 A 
ATOM     27  C   UNL     1       0.531  12.470  21.189  0.00  0.00    +0.000 A 
ATOM     28  C   UNL     1      -0.094  13.481  21.920  0.00  0.00    +0.000 A 
ATOM     29  C   UNL     1      -1.033  13.146  22.885  0.00  0.00    +0.000 A 
ATOM     30 BR   UNL     1      -1.827  14.513  23.919  0.00  0.00    +0.000 Br
ATOM     31  C   UNL     1      -1.379  11.812  23.094  0.00  0.00    +0.000 A 
ATOM     32  C   UNL     1      -0.754  10.799  22.352  0.00  0.00    +0.000 A 
ENDBRANCH  24  26
ENDBRANCH   1  23
TORSDOF 4
ENDMDL
MODEL 2
REMARK VINA RESULT:      -8.7      0.215      1.245
REMARK  Name = 
REMARK  4 active torsions:
REMARK  status: ('A' for Active; 'I' for Inactive)
REMARK    1  A    between atoms: C_2  and  C_11
REMARK    2  A    between atoms: N_3  and  C_4
REMARK    3  A    between atoms: C_15  and  C_16
REMARK    4  A    between atoms: C_23  and  C_24
REMARK                            x       y       z     vdW  Elec       q    Type
REMARK                         _______ _______ _______ _____ _____    ______ ____
ROOT
ATOM      1  C   UNL     1       1.768   8.629  18.992  0.00  0.00    +0.000 A 
ATOM      2  C   UNL     1       2.622   8.768  17.878  0.00  0.00    +0.000 A 
ATOM      3  C   UNL     1       3.202   7.545  17.698  0.00  0.00    +0.000 A 
ATOM      4  N   UNL     1       4.115   7.130  16.778  0.00  0.00    +0.000 NA
ATOM      5  C   UNL     1       4.413   5.863  16.774  0.00  0.00    +0.000 A 
ATOM      6  C   UNL     1       3.826   4.856  17.717  0.00  0.00    +0.000 A 
ATOM      7  C   UNL     1       2.966   5.330  18.641  0.00  0.00    +0.000 A 
ATOM      8  N   UNL     1       2.644   6.697  18.657  0.00  0.00    +0.000 N 
ATOM      9  N   UNL     1       1.811   7.385  19.505  0.00  0.00    +0.000 NA
ENDROOT
BRANCH   5  10
ATOM     10  C   UNL     1       5.423   5.379  15.790  0.00  0.00    +0.000 A 
ATOM     11  C   UNL     1       4.985   4.575  14.729  0.00  0.00    +0.000 A 
ATOM     12  C   UNL     1       5.896   4.077  13.798  0.00  0.00    +0.000 A 
ATOM     13  C   UNL     1       7.252   4.371  13.928  0.00  0.00    +0.000 A 
ATOM     14  C   UNL     1       7.696   5.162  14.986  0.00  0.00    +0.000 A 
ATOM     15  C   UNL     1       6.787   5.665  15.920  0.00  0.00    +0.000 A 
ENDBRANCH   5  10
BRANCH   7  16
ATOM     16  C   UNL     1       2.381   4.380  19.595  0.00  0.00    +0.000 A 
ATOM     17  C   UNL     1       1.331   3.542  19.201  0.00  0.00    +0.000 A 
ATOM     18  C   UNL     1       0.742   2.675  20.122  0.00  0.00    +0.000 A 
ATOM     19  C   UNL     1       1.196   2.642  21.440  0.00  0.00    +0.000 A 
ATOM     20  C   UNL     1       2.243   3.473  21.839  0.00  0.00    +0.000 A 
ATOM     21  C   UNL     1       2.834   4.341  20.920  0.00  0.00    +0.000 A 
ENDBRANCH   7  16
BRANCH   1  23
ATOM     22  O   UNL     1       0.365  10.469  18.724  0.00  0.00    +0.000 OA
ATOM     23  C   UNL     1       0.939   9.720  19.514  0.00  0.00    +0.000 C 
ATOM     24  N   UNL     1       0.922   9.841  20.895  0.00  0.00    +0.000 N 
ATOM     25  H   UNL     1       1.572   9.236  21.389  0.00  0.00    +0.000 HD
BRANCH  24  26
ATOM     26  C   UNL     1       0.226  10.850  21.600  0.00  0.00    +0.000 A 
ATOM     27  C   UNL     1      -0.752  10.551  22.558  0.00  0.00    +0.000 A 
ATOM     28  C   UNL     1      -1.498  11.559  23.170  0.00  0.00    +0.000 A 
ATOM     29  C   UNL     1      -1.258  12.885  22.836  0.00  0.00    +0.000 A 
ATOM     30 BR   UNL     1      -2.315  14.242  23.615  0.00  0.00    +0.000 Br
ATOM     31  C   UNL     1      -0.252  13.208  21.926  0.00  0.00    +0.000 A 
ATOM     32  C   UNL     1       0.501  12.191  21.320  0.00  0.00    +0.000 A 
ENDBRANCH  24  26
ENDBRANCH   1  23
TORSDOF 4
ENDMDL
MODEL 3
REMARK VINA RESULT:      -8.7      0.862      1.079
REMARK  Name = 
REMARK  4 active torsions:
REMARK  status: ('A' for Active; 'I' for Inactive)
REMARK    1  A    between atoms: C_2  and  C_11
REMARK    2  A    between atoms: N_3  and  C_4
REMARK    3  A    between atoms: C_15  and  C_16
REMARK    4  A    between atoms: C_23  and  C_24
REMARK                            x       y       z     vdW  Elec       q    Type
REMARK                         _______ _______ _______ _____ _____    ______ ____
ROOT
ATOM      1  C   UNL     1       1.867   8.788  18.960  0.00  0.00    +0.000 A 
ATOM      2  C   UNL     1       2.731   8.887  17.850  0.00  0.00    +0.000 A 
ATOM      3  C   UNL     1       3.262   7.641  17.676  0.00  0.00    +0.000 A 
ATOM      4  N   UNL     1       4.161   7.186  16.762  0.00  0.00    +0.000 NA
ATOM      5  C   UNL     1       4.407   5.907  16.764  0.00  0.00    +0.000 A 
ATOM      6  C   UNL     1       3.775   4.929  17.707  0.00  0.00    +0.000 A 
ATOM      7  C   UNL     1       2.932   5.442  18.626  0.00  0.00    +0.000 A 
ATOM      8  N   UNL     1       2.666   6.820  18.636  0.00  0.00    +0.000 N 
ATOM      9  N   UNL     1       1.858   7.545  19.478  0.00  0.00    +0.000 NA
ENDROOT
BRANCH   5  10
ATOM     10  C   UNL     1       5.400   5.379  15.786  0.00  0.00    +0.000 A 
ATOM     11  C   UNL     1       4.936   4.583  14.731  0.00  0.00    +0.000 A 
ATOM     12  C   UNL     1       5.830   4.044  13.806  0.00  0.00    +0.000 A 
ATOM     13  C   UNL     1       7.196   4.290  13.936  0.00  0.00    +0.000 A 
ATOM     14  C   UNL     1       7.666   5.073  14.989  0.00  0.00    +0.000 A 
ATOM     15  C   UNL     1       6.774   5.617  15.917  0.00  0.00    +0.000 A 
ENDBRANCH   5  10
BRANCH   7  16
ATOM     16  C   UNL     1       2.304   4.520  19.581  0.00  0.00    +0.000 A 
ATOM     17  C   UNL     1       2.794   4.418  20.888  0.00  0.00    +0.000 A 
ATOM     18  C   UNL     1       2.229   3.505  21.780  0.00  0.00    +0.000 A 
ATOM     19  C   UNL     1       1.174   2.690  21.371  0.00  0.00    +0.000 A 
ATOM     20  C   UNL     1       0.679   2.788  20.070  0.00  0.00    +0.000 A 
ATOM     21  C   UNL     1       1.242   3.700  19.176  0.00  0.00    +0.000 A 
ENDBRANCH   7  16
BRANCH   1  23
ATOM     22  O   UNL     1       1.254  11.034  18.996  0.00  0.00    +0.000 OA
ATOM     23  C   UNL     1       1.082   9.914  19.474  0.00  0.00    +0.000 C 
ATOM     24  N   UNL     1       0.228   9.608  20.523  0.00  0.00    +0.000 N 
ATOM     25  H   UNL     1       0.321   8.668  20.896  0.00  0.00    +0.000 HD
BRANCH  24  26
ATOM     26  C   UNL     1      -0.584  10.553  21.193  0.00  0.00    +0.000 A 
ATOM     27  C   UNL     1      -0.712  10.570  22.588  0.00  0.00    +0.000 A 
ATOM     28  C   UNL     1      -1.595  11.443  23.224  0.00  0.00    +0.000 A 
ATOM     29  C   UNL     1      -2.351  12.325  22.463  0.00  0.00    +0.000 A 
ATOM     30 BR   UNL     1      -3.593  13.459  23.320  0.00  0.00    +0.000 Br
ATOM     31  C   UNL     1      -2.198  12.363  21.077  0.00  0.00    +0.000 A 
ATOM     32  C   UNL     1      -1.303  11.487  20.444  0.00  0.00    +0.000 A 
ENDBRANCH  24  26
ENDBRANCH   1  23
TORSDOF 4
ENDMDL
MODEL 4
REMARK VINA RESULT:      -8.7      0.231      1.247
REMARK  Name = 
REMARK  4 active torsions:
REMARK  status: ('A' for Active; 'I' for Inactive)
REMARK    1  A    between atoms: C_2  and  C_11
REMARK    2  A    between atoms: N_3  and  C_4
REMARK    3  A    between atoms: C_15  and  C_16
REMARK    4  A    between atoms: C_23  and  C_24
REMARK                            x       y       z     vdW  Elec       q    Type
REMARK                         _______ _______ _______ _____ _____    ______ ____
ROOT
ATOM      1  C   UNL     1       1.788   8.689  19.023  0.00  0.00    +0.000 A 
ATOM      2  C   UNL     1       2.640   8.795  17.903  0.00  0.00    +0.000 A 
ATOM      3  C   UNL     1       3.190   7.557  17.734  0.00  0.00    +0.000 A 
ATOM      4  N   UNL     1       4.088   7.109  16.815  0.00  0.00    +0.000 NA
ATOM      5  C   UNL     1       4.356   5.835  16.824  0.00  0.00    +0.000 A 
ATOM      6  C   UNL     1       3.750   4.854  17.781  0.00  0.00    +0.000 A 
ATOM      7  C   UNL     1       2.906   5.359  18.704  0.00  0.00    +0.000 A 
ATOM      8  N   UNL     1       2.617   6.733  18.706  0.00  0.00    +0.000 N 
ATOM      9  N   UNL     1       1.804   7.451  19.550  0.00  0.00    +0.000 NA
ENDROOT
BRANCH   5  10
ATOM     10  C   UNL     1       5.349   5.316  15.841  0.00  0.00    +0.000 A 
ATOM     11  C   UNL     1       6.696   5.667  16.008  0.00  0.00    +0.000 A 
ATOM     12  C   UNL     1       7.657   5.228  15.098  0.00  0.00    +0.000 A 
ATOM     13  C   UNL     1       7.277   4.442  14.011  0.00  0.00    +0.000 A 
ATOM     14  C   UNL     1       5.938   4.098  13.834  0.00  0.00    +0.000 A 
ATOM     15  C   UNL     1       4.972   4.535  14.743  0.00  0.00    +0.000 A 
ENDBRANCH   5  10
BRANCH   7  16
ATOM     16  C   UNL     1       2.303   4.435  19.671  0.00  0.00    +0.000 A 
ATOM     17  C   UNL     1       2.774   4.387  20.989  0.00  0.00    +0.000 A 
ATOM     18  C   UNL     1       2.234   3.472  21.894  0.00  0.00    +0.000 A 
ATOM     19  C   UNL     1       1.224   2.601  21.489  0.00  0.00    +0.000 A 
ATOM     20  C   UNL     1       0.748   2.644  20.178  0.00  0.00    +0.000 A 
ATOM     21  C   UNL     1       1.286   3.558  19.271  0.00  0.00    +0.000 A 
ENDBRANCH   7  16
BRANCH   1  23
ATOM     22  O   UNL     1       0.544  10.638  18.747  0.00  0.00    +0.000 OA
ATOM     23  C   UNL     1       0.988   9.806  19.536  0.00  0.00    +0.000 C 
ATOM     24  N   UNL     1       0.849   9.848  20.914  0.00  0.00    +0.000 N 
ATOM     25  H   UNL     1       1.407   9.171  21.426  0.00  0.00    +0.000 HD
BRANCH  24  26
ATOM     26  C   UNL     1       0.158  10.862  21.616  0.00  0.00    +0.000 A 
ATOM     27  C   UNL     1      -0.830  10.572  22.567  0.00  0.00    +0.000 A 
ATOM     28  C   UNL     1      -1.570  11.586  23.176  0.00  0.00    +0.000 A 
ATOM     29  C   UNL     1      -1.315  12.910  22.846  0.00  0.00    +0.000 A 
ATOM     30 BR   UNL     1      -2.364  14.276  23.620  0.00  0.00    +0.000 Br
ATOM     31  C   UNL     1      -0.300  13.225  21.943  0.00  0.00    +0.000 A 
ATOM     32  C   UNL     1       0.447  12.201  21.340  0.00  0.00    +0.000 A 
ENDBRANCH  24  26
ENDBRANCH   1  23
TORSDOF 4
ENDMDL
MODEL 5
REMARK VINA RESULT:      -8.6      0.194      1.242
REMARK  Name = 
REMARK  4 active torsions:
REMARK  status: ('A' for Active; 'I' for Inactive)
REMARK    1  A    between atoms: C_2  and  C_11
REMARK    2  A    between atoms: N_3  and  C_4
REMARK    3  A    between atoms: C_15  and  C_16
REMARK    4  A    between atoms: C_23  and  C_24
REMARK                            x       y       z     vdW  Elec       q    Type
REMARK                         _______ _______ _______ _____ _____    ______ ____
ROOT
ATOM      1  C   UNL     1       1.820   8.656  18.856  0.00  0.00    +0.000 A 
ATOM      2  C   UNL     1       2.679   8.756  17.742  0.00  0.00    +0.000 A 
ATOM      3  C   UNL     1       3.246   7.523  17.596  0.00  0.00    +0.000 A 
ATOM      4  N   UNL     1       4.157   7.073  16.691  0.00  0.00    +0.000 NA
ATOM      5  C   UNL     1       4.440   5.803  16.720  0.00  0.00    +0.000 A 
ATOM      6  C   UNL     1       3.838   4.828  17.686  0.00  0.00    +0.000 A 
ATOM      7  C   UNL     1       2.980   5.336  18.595  0.00  0.00    +0.000 A 
ATOM      8  N   UNL     1       2.674   6.706  18.575  0.00  0.00    +0.000 N 
ATOM      9  N   UNL     1       1.846   7.426  19.401  0.00  0.00    +0.000 NA
ENDROOT
BRANCH   5  10
ATOM     10  C   UNL     1       5.447   5.282  15.753  0.00  0.00    +0.000 A 
ATOM     11  C   UNL     1       6.790   5.642  15.933  0.00  0.00    +0.000 A 
ATOM     12  C   UNL     1       7.765   5.201  15.038  0.00  0.00    +0.000 A 
ATOM     13  C   UNL     1       7.402   4.406  13.952  0.00  0.00    +0.000 A 
ATOM     14  C   UNL     1       6.067   4.053  13.761  0.00  0.00    +0.000 A 
ATOM     15  C   UNL     1       5.087   4.490  14.656  0.00  0.00    +0.000 A 
ENDBRANCH   5  10
BRANCH   7  16
ATOM     16  C   UNL     1       2.381   4.418  19.570  0.00  0.00    +0.000 A 
ATOM     17  C   UNL     1       1.306   3.600  19.201  0.00  0.00    +0.000 A 
ATOM     18  C   UNL     1       0.704   2.764  20.142  0.00  0.00    +0.000 A 
ATOM     19  C   UNL     1       1.170   2.742  21.456  0.00  0.00    +0.000 A 
ATOM     20  C   UNL     1       2.242   3.552  21.831  0.00  0.00    +0.000 A 
ATOM     21  C   UNL     1       2.846   4.389  20.892  0.00  0.00    +0.000 A 
ENDBRANCH   7  16
BRANCH   1  23
ATOM     22  O   UNL     1       0.492  10.542  18.537  0.00  0.00    +0.000 OA
ATOM     23  C   UNL     1       1.002   9.770  19.347  0.00  0.00    +0.000 C 
ATOM     24  N   UNL     1       0.922   9.881  20.726  0.00  0.00    +0.000 N 
ATOM     25  H   UNL     1       1.527   9.253  21.246  0.00  0.00    +0.000 HD
BRANCH  24  26
ATOM     26  C   UNL     1       0.226  10.907  21.406  0.00  0.00    +0.000 A 
ATOM     27  C   UNL     1       0.455  12.265  21.144  0.00  0.00    +0.000 A 
ATOM     28  C   UNL     1      -0.168  13.263  21.894  0.00  0.00    +0.000 A 
ATOM     29  C   UNL     1      -1.045  12.907  22.910  0.00  0.00    +0.000 A 
ATOM     30 BR   UNL     1      -1.834  14.257  23.968  0.00  0.00    +0.000 Br
ATOM     31  C   UNL     1      -1.329  11.563  23.152  0.00  0.00    +0.000 A 
ATOM     32  C   UNL     1      -0.706  10.564  22.389  0.00  0.00    +0.000 A 
ENDBRANCH  24  26
ENDBRANCH   1  23
TORSDOF 4
ENDMDL
MODEL 6
REMARK VINA RESULT:      -8.2      1.337      1.799
REMARK  Name = 
REMARK  4 active torsions:
REMARK  status: ('A' for Active; 'I' for Inactive)
REMARK    1  A    between atoms: C_2  and  C_11
REMARK    2  A    between atoms: N_3  and  C_4
REMARK    3  A    between atoms: C_15  and  C_16
REMARK    4  A    between atoms: C_23  and  C_24
REMARK                            x       y       z     vdW  Elec       q    Type
REMARK                         _______ _______ _______ _____ _____    ______ ____
ROOT
ATOM      1  C   UNL     1       1.794   8.716  19.002  0.00  0.00    +0.000 A 
ATOM      2  C   UNL     1       2.655   8.820  17.889  0.00  0.00    +0.000 A 
ATOM      3  C   UNL     1       3.199   7.579  17.720  0.00  0.00    +0.000 A 
ATOM      4  N   UNL     1       4.101   7.130  16.807  0.00  0.00    +0.000 NA
ATOM      5  C   UNL     1       4.361   5.854  16.813  0.00  0.00    +0.000 A 
ATOM      6  C   UNL     1       3.742   4.873  17.762  0.00  0.00    +0.000 A 
ATOM      7  C   UNL     1       2.894   5.380  18.680  0.00  0.00    +0.000 A 
ATOM      8  N   UNL     1       2.613   6.756  18.685  0.00  0.00    +0.000 N 
ATOM      9  N   UNL     1       1.799   7.475  19.525  0.00  0.00    +0.000 NA
ENDROOT
BRANCH   5  10
ATOM     10  C   UNL     1       5.358   5.333  15.836  0.00  0.00    +0.000 A 
ATOM     11  C   UNL     1       6.706   5.675  16.013  0.00  0.00    +0.000 A 
ATOM     12  C   UNL     1       7.671   5.233  15.109  0.00  0.00    +0.000 A 
ATOM     13  C   UNL     1       7.295   4.454  14.017  0.00  0.00    +0.000 A 
ATOM     14  C   UNL     1       5.955   4.118  13.828  0.00  0.00    +0.000 A 
ATOM     15  C   UNL     1       4.984   4.557  14.732  0.00  0.00    +0.000 A 
ENDBRANCH   5  10
BRANCH   7  16
ATOM     16  C   UNL     1       2.279   4.456  19.640  0.00  0.00    +0.000 A 
ATOM     17  C   UNL     1       2.760   4.379  20.953  0.00  0.00    +0.000 A 
ATOM     18  C   UNL     1       2.207   3.464  21.850  0.00  0.00    +0.000 A 
ATOM     19  C   UNL     1       1.175   2.621  21.442  0.00  0.00    +0.000 A 
ATOM     20  C   UNL     1       0.689   2.694  20.136  0.00  0.00    +0.000 A 
ATOM     21  C   UNL     1       1.239   3.608  19.236  0.00  0.00    +0.000 A 
ENDBRANCH   7  16
BRANCH   1  23
ATOM     22  O   UNL     1      -0.027   9.601  20.153  0.00  0.00    +0.000 OA
ATOM     23  C   UNL     1       0.997   9.836  19.513  0.00  0.00    +0.000 C 
ATOM     24  N   UNL     1       1.462  11.096  19.171  0.00  0.00    +0.000 N 
ATOM     25  H   UNL     1       2.234  11.107  18.511  0.00  0.00    +0.000 HD
BRANCH  24  26
ATOM     26  C   UNL     1       0.820  12.306  19.521  0.00  0.00    +0.000 A 
ATOM     27  C   UNL     1       0.040  13.029  18.607  0.00  0.00    +0.000 A 
ATOM     28  C   UNL     1      -0.502  14.270  18.941  0.00  0.00    +0.000 A 
ATOM     29  C   UNL     1      -0.279  14.795  20.207  0.00  0.00    +0.000 A 
ATOM     30 BR   UNL     1      -0.957  16.506  20.633  0.00  0.00    +0.000 Br
ATOM     31  C   UNL     1       0.447  14.068  21.149  0.00  0.00    +0.000 A 
ATOM     32  C   UNL     1       0.984  12.817  20.811  0.00  0.00    +0.000 A 
ENDBRANCH  24  26
ENDBRANCH   1  23
TORSDOF 4
ENDMDL
MODEL 7
REMARK VINA RESULT:      -8.1      1.432      1.674
REMARK  Name = 
REMARK  4 active torsions:
REMARK  status: ('A' for Active; 'I' for Inactive)
REMARK    1  A    between atoms: C_2  and  C_11
REMARK    2  A    between atoms: N_3  and  C_4
REMARK    3  A    between atoms: C_15  and  C_16
REMARK    4  A    between atoms: C_23  and  C_24
REMARK                            x       y       z     vdW  Elec       q    Type
REMARK                         _______ _______ _______ _____ _____    ______ ____
ROOT
ATOM      1  C   UNL     1       1.820   8.555  19.248  0.00  0.00    +0.000 A 
ATOM      2  C   UNL     1       2.651   8.723  18.120  0.00  0.00    +0.000 A 
ATOM      3  C   UNL     1       3.207   7.499  17.881  0.00  0.00    +0.000 A 
ATOM      4  N   UNL     1       4.092   7.105  16.926  0.00  0.00    +0.000 NA
ATOM      5  C   UNL     1       4.370   5.835  16.867  0.00  0.00    +0.000 A 
ATOM      6  C   UNL     1       3.788   4.802  17.784  0.00  0.00    +0.000 A 
ATOM      7  C   UNL     1       2.956   5.254  18.745  0.00  0.00    +0.000 A 
ATOM      8  N   UNL     1       2.657   6.624  18.821  0.00  0.00    +0.000 N 
ATOM      9  N   UNL     1       1.854   7.292  19.713  0.00  0.00    +0.000 NA
ENDROOT
BRANCH   5  10
ATOM     10  C   UNL     1       5.349   5.373  15.842  0.00  0.00    +0.000 A 
ATOM     11  C   UNL     1       4.883   4.571  14.791  0.00  0.00    +0.000 A 
ATOM     12  C   UNL     1       5.766   4.093  13.823  0.00  0.00    +0.000 A 
ATOM     13  C   UNL     1       7.122   4.407  13.905  0.00  0.00    +0.000 A 
ATOM     14  C   UNL     1       7.594   5.195  14.953  0.00  0.00    +0.000 A 
ATOM     15  C   UNL     1       6.712   5.678  15.924  0.00  0.00    +0.000 A 
ENDBRANCH   5  10
BRANCH   7  16
ATOM     16  C   UNL     1       2.378   4.278  19.676  0.00  0.00    +0.000 A 
ATOM     17  C   UNL     1       1.342   3.434  19.258  0.00  0.00    +0.000 A 
ATOM     18  C   UNL     1       0.758   2.541  20.158  0.00  0.00    +0.000 A 
ATOM     19  C   UNL     1       1.203   2.487  21.478  0.00  0.00    +0.000 A 
ATOM     20  C   UNL     1       2.236   3.324  21.900  0.00  0.00    +0.000 A 
ATOM     21  C   UNL     1       2.822   4.218  21.003  0.00  0.00    +0.000 A 
ENDBRANCH   7  16
BRANCH   1  23
ATOM     22  O   UNL     1       0.573   9.510  20.967  0.00  0.00    +0.000 OA
ATOM     23  C   UNL     1       1.021   9.639  19.829  0.00  0.00    +0.000 C 
ATOM     24  N   UNL     1       0.795  10.720  18.992  0.00  0.00    +0.000 N 
ATOM     25  H   UNL     1       1.108  10.598  18.034  0.00  0.00    +0.000 HD
BRANCH  24  26
ATOM     26  C   UNL     1       0.015  11.848  19.338  0.00  0.00    +0.000 A 
ATOM     27  C   UNL     1       0.587  13.102  19.592  0.00  0.00    +0.000 A 
ATOM     28  C   UNL     1      -0.189  14.176  20.029  0.00  0.00    +0.000 A 
ATOM     29  C   UNL     1      -1.556  14.007  20.201  0.00  0.00    +0.000 A 
ATOM     30 BR   UNL     1      -2.592  15.443  20.857  0.00  0.00    +0.000 Br
ATOM     31  C   UNL     1      -2.154  12.783  19.901  0.00  0.00    +0.000 A 
ATOM     32  C   UNL     1      -1.371  11.708  19.455  0.00  0.00    +0.000 A 
ENDBRANCH  24  26
ENDBRANCH   1  23
TORSDOF 4
ENDMDL
MODEL 8
REMARK VINA RESULT:      -8.1      1.374      1.773
REMARK  Name = 
REMARK  4 active torsions:
REMARK  status: ('A' for Active; 'I' for Inactive)
REMARK    1  A    between atoms: C_2  and  C_11
REMARK    2  A    between atoms: N_3  and  C_4
REMARK    3  A    between atoms: C_15  and  C_16
REMARK    4  A    between atoms: C_23  and  C_24
REMARK                            x       y       z     vdW  Elec       q    Type
REMARK                         _______ _______ _______ _____ _____    ______ ____
ROOT
ATOM      1  C   UNL     1       1.817   8.684  19.044  0.00  0.00    +0.000 A 
ATOM      2  C   UNL     1       2.664   8.817  17.924  0.00  0.00    +0.000 A 
ATOM      3  C   UNL     1       3.225   7.587  17.731  0.00  0.00    +0.000 A 
ATOM      4  N   UNL     1       4.124   7.165  16.802  0.00  0.00    +0.000 NA
ATOM      5  C   UNL     1       4.403   5.893  16.787  0.00  0.00    +0.000 A 
ATOM      6  C   UNL     1       3.808   4.889  17.728  0.00  0.00    +0.000 A 
ATOM      7  C   UNL     1       2.963   5.370  18.662  0.00  0.00    +0.000 A 
ATOM      8  N   UNL     1       2.662   6.741  18.690  0.00  0.00    +0.000 N 
ATOM      9  N   UNL     1       1.846   7.437  19.549  0.00  0.00    +0.000 NA
ENDROOT
BRANCH   5  10
ATOM     10  C   UNL     1       5.397   5.401  15.792  0.00  0.00    +0.000 A 
ATOM     11  C   UNL     1       4.931   4.657  14.698  0.00  0.00    +0.000 A 
ATOM     12  C   UNL     1       5.826   4.153  13.755  0.00  0.00    +0.000 A 
ATOM     13  C   UNL     1       7.193   4.380  13.903  0.00  0.00    +0.000 A 
ATOM     14  C   UNL     1       7.664   5.110  14.993  0.00  0.00    +0.000 A 
ATOM     15  C   UNL     1       6.771   5.619  15.940  0.00  0.00    +0.000 A 
ENDBRANCH   5  10
BRANCH   7  16
ATOM     16  C   UNL     1       2.371   4.423  19.615  0.00  0.00    +0.000 A 
ATOM     17  C   UNL     1       1.316   3.593  19.219  0.00  0.00    +0.000 A 
ATOM     18  C   UNL     1       0.721   2.729  20.140  0.00  0.00    +0.000 A 
ATOM     19  C   UNL     1       1.174   2.690  21.457  0.00  0.00    +0.000 A 
ATOM     20  C   UNL     1       2.227   3.513  21.857  0.00  0.00    +0.000 A 
ATOM     21  C   UNL     1       2.825   4.379  20.940  0.00  0.00    +0.000 A 
ENDBRANCH   7  16
BRANCH   1  23
ATOM     22  O   UNL     1      -0.008   9.526  20.220  0.00  0.00    +0.000 OA
ATOM     23  C   UNL     1       1.009   9.785  19.580  0.00  0.00    +0.000 C 
ATOM     24  N   UNL     1       1.456  11.057  19.256  0.00  0.00    +0.000 N 
ATOM     25  H   UNL     1       2.224  11.089  18.592  0.00  0.00    +0.000 HD
BRANCH  24  26
ATOM     26  C   UNL     1       0.801  12.252  19.631  0.00  0.00    +0.000 A 
ATOM     27  C   UNL     1      -0.206  12.830  18.845  0.00  0.00    +0.000 A 
ATOM     28  C   UNL     1      -0.769  14.061  19.181  0.00  0.00    +0.000 A 
ATOM     29  C   UNL     1      -0.337  14.722  20.323  0.00  0.00    +0.000 A 
ATOM     30 BR   UNL     1      -1.053  16.419  20.738  0.00  0.00    +0.000 Br
ATOM     31  C   UNL     1       0.623  14.140  21.149  0.00  0.00    +0.000 A 
ATOM     32  C   UNL     1       1.182  12.897  20.811  0.00  0.00    +0.000 A 
ENDBRANCH  24  26
ENDBRANCH   1  23
TORSDOF 4
ENDMDL
MODEL 9
REMARK VINA RESULT:      -7.9      3.940     10.413
REMARK  Name = 
REMARK  4 active torsions:
REMARK  status: ('A' for Active; 'I' for Inactive)
REMARK    1  A    between atoms: C_2  and  C_11
REMARK    2  A    between atoms: N_3  and  C_4
REMARK    3  A    between atoms: C_15  and  C_16
REMARK    4  A    between atoms: C_23  and  C_24
REMARK                            x       y       z     vdW  Elec       q    Type
REMARK                         _______ _______ _______ _____ _____    ______ ____
ROOT
ATOM      1  C   UNL     1       0.702   9.384  20.296  0.00  0.00    +0.000 A 
ATOM      2  C   UNL     1       0.734  10.043  21.543  0.00  0.00    +0.000 A 
ATOM      3  C   UNL     1      -0.224  11.014  21.477  0.00  0.00    +0.000 A 
ATOM      4  N   UNL     1      -0.601  11.944  22.395  0.00  0.00    +0.000 NA
ATOM      5  C   UNL     1      -1.631  12.682  22.098  0.00  0.00    +0.000 A 
ATOM      6  C   UNL     1      -2.404  12.574  20.819  0.00  0.00    +0.000 A 
ATOM      7  C   UNL     1      -1.956  11.672  19.922  0.00  0.00    +0.000 A 
ATOM      8  N   UNL     1      -0.841  10.876  20.231  0.00  0.00    +0.000 N 
ATOM      9  N   UNL     1      -0.220   9.915  19.471  0.00  0.00    +0.000 NA
ENDROOT
BRANCH   5  10
ATOM     10  C   UNL     1      -2.059  13.722  23.076  0.00  0.00    +0.000 A 
ATOM     11  C   UNL     1      -1.069  14.399  23.803  0.00  0.00    +0.000 A 
ATOM     12  C   UNL     1      -1.422  15.361  24.749  0.00  0.00    +0.000 A 
ATOM     13  C   UNL     1      -2.766  15.647  24.981  0.00  0.00    +0.000 A 
ATOM     14  C   UNL     1      -3.756  14.971  24.269  0.00  0.00    +0.000 A 
ATOM     15  C   UNL     1      -3.407  14.007  23.319  0.00  0.00    +0.000 A 
ENDBRANCH   5  10
BRANCH   7  16
ATOM     16  C   UNL     1      -2.674  11.546  18.648  0.00  0.00    +0.000 A 
ATOM     17  C   UNL     1      -4.071  11.635  18.615  0.00  0.00    +0.000 A 
ATOM     18  C   UNL     1      -4.757  11.465  17.411  0.00  0.00    +0.000 A 
ATOM     19  C   UNL     1      -4.052  11.203  16.237  0.00  0.00    +0.000 A 
ATOM     20  C   UNL     1      -2.660  11.115  16.263  0.00  0.00    +0.000 A 
ATOM     21  C   UNL     1      -1.972  11.285  17.464  0.00  0.00    +0.000 A 
ENDBRANCH   7  16
BRANCH   1  23
ATOM     22  O   UNL     1       1.934   7.486  20.847  0.00  0.00    +0.000 OA
ATOM     23  C   UNL     1       1.576   8.255  19.958  0.00  0.00    +0.000 C 
ATOM     24  N   UNL     1       1.970   8.192  18.630  0.00  0.00    +0.000 N 
ATOM     25  H   UNL     1       1.707   8.992  18.063  0.00  0.00    +0.000 HD
BRANCH  24  26
ATOM     26  C   UNL     1       2.845   7.214  18.103  0.00  0.00    +0.000 A 
ATOM     27  C   UNL     1       4.043   7.554  17.460  0.00  0.00    +0.000 A 
ATOM     28  C   UNL     1       4.843   6.582  16.858  0.00  0.00    +0.000 A 
ATOM     29  C   UNL     1       4.455   5.250  16.910  0.00  0.00    +0.000 A 
ATOM     30 BR   UNL     1       5.504   3.945  16.037  0.00  0.00    +0.000 Br
ATOM     31  C   UNL     1       3.295   4.883  17.592  0.00  0.00    +0.000 A 
ATOM     32  C   UNL     1       2.498   5.864  18.202  0.00  0.00    +0.000 A 
ENDBRANCH  24  26
ENDBRANCH   1  23
TORSDOF 4
ENDMDL
