MODEL 1
REMARK VINA RESULT:      -8.6      0.000      0.000
REMARK  Name = 
REMARK  4 active torsions:
REMARK  status: ('A' for Active; 'I' for Inactive)
REMARK    1  A    between atoms: C_1  and  C_2
REMARK    2  A    between atoms: C_2  and  N_3
REMARK    3  A    between atoms: C_11  and  C_12
REMARK    4  A    between atoms: C_19  and  C_20
REMARK                            x       y       z     vdW  Elec       q    Type
REMARK                         _______ _______ _______ _____ _____    ______ ____
ROOT
ATOM      1  N   UNL     1       0.130  11.661  19.877  0.00  0.00    +0.000 N 
ATOM      2  C   UNL     1       0.865  10.761  19.128  0.00  0.00    +0.000 C 
ATOM      3  O   UNL     1       1.193  11.031  17.976  0.00  0.00    +0.000 OA
ATOM      4  N   UNL     1       1.107   9.588  19.791  0.00  0.00    +0.000 N 
ATOM      5  C   UNL     1       1.828   8.568  19.222  0.00  0.00    +0.000 A 
ATOM      6  N   UNL     1       2.658   8.758  18.163  0.00  0.00    +0.000 NA
ATOM      7  C   UNL     1       3.153   7.569  17.931  0.00  0.00    +0.000 A 
ATOM      8  C   UNL     1       4.081   7.114  16.958  0.00  0.00    +0.000 A 
ATOM      9  C   UNL     1       4.444   5.811  16.917  0.00  0.00    +0.000 A 
ATOM     10  C   UNL     1       3.853   4.865  17.870  0.00  0.00    +0.000 A 
ATOM     11  C   UNL     1       2.963   5.288  18.796  0.00  0.00    +0.000 A 
ATOM     12  N   UNL     1       2.626   6.654  18.841  0.00  0.00    +0.000 N 
ATOM     13  N   UNL     1       1.790   7.322  19.693  0.00  0.00    +0.000 NA
ATOM     14  H   UNL     1       0.210  11.616  20.881  0.00  0.00    +0.000 HD
ATOM     15  H   UNL     1       0.543   9.325  20.578  0.00  0.00    +0.000 HD
ENDROOT
BRANCH  11  16
ATOM     16  C   UNL     1       2.349   4.330  19.723  0.00  0.00    +0.000 A 
ATOM     17  C   UNL     1       2.796   4.252  21.050  0.00  0.00    +0.000 A 
ATOM     18  C   UNL     1       2.234   3.324  21.930  0.00  0.00    +0.000 A 
ATOM     19  C   UNL     1       1.222   2.468  21.493  0.00  0.00    +0.000 A 
ATOM     20  C   UNL     1       0.769   2.541  20.177  0.00  0.00    +0.000 A 
ATOM     21  C   UNL     1       1.332   3.468  19.303  0.00  0.00    +0.000 A 
ATOM     22  F   UNL     1       0.879   3.522  18.041  0.00  0.00    +0.000 F 
ENDBRANCH  11  16
BRANCH   9  23
ATOM     23  C   UNL     1       5.434   5.400  15.904  0.00  0.00    +0.000 A 
ATOM     24  C   UNL     1       5.102   4.482  14.903  0.00  0.00    +0.000 A 
ATOM     25  C   UNL     1       6.057   4.121  13.951  0.00  0.00    +0.000 A 
ATOM     26  C   UNL     1       7.315   4.697  14.028  0.00  0.00    +0.000 A 
ATOM     27  N   UNL     1       7.671   5.589  14.977  0.00  0.00    +0.000 NA
ATOM     28  C   UNL     1       6.725   5.917  15.891  0.00  0.00    +0.000 A 
ENDBRANCH   9  23
BRANCH   1  30
ATOM     29  C   UNL     1       0.179  14.136  20.027  0.00  0.00    +0.000 C 
ATOM     30  C   UNL     1      -0.299  12.910  19.267  0.00  0.00    +0.000 C 
ENDBRANCH   1  30
TORSDOF 3
ENDMDL
MODEL 2
REMARK VINA RESULT:      -8.3      1.103      1.365
REMARK  Name = 
REMARK  4 active torsions:
REMARK  status: ('A' for Active; 'I' for Inactive)
REMARK    1  A    between atoms: C_1  and  C_2
REMARK    2  A    between atoms: C_2  and  N_3
REMARK    3  A    between atoms: C_11  and  C_12
REMARK    4  A    between atoms: C_19  and  C_20
REMARK                            x       y       z     vdW  Elec       q    Type
REMARK                         _______ _______ _______ _____ _____    ______ ____
ROOT
ATOM      1  N   UNL     1       0.097  11.185  20.055  0.00  0.00    +0.000 N 
ATOM      2  C   UNL     1       0.836  10.329  19.260  0.00  0.00    +0.000 C 
ATOM      3  O   UNL     1       1.065  10.610  18.087  0.00  0.00    +0.000 OA
ATOM      4  N   UNL     1       1.200   9.180  19.910  0.00  0.00    +0.000 N 
ATOM      5  C   UNL     1       1.946   8.205  19.296  0.00  0.00    +0.000 A 
ATOM      6  N   UNL     1       2.687   8.440  18.180  0.00  0.00    +0.000 NA
ATOM      7  C   UNL     1       3.242   7.284  17.920  0.00  0.00    +0.000 A 
ATOM      8  C   UNL     1       4.129   6.883  16.886  0.00  0.00    +0.000 A 
ATOM      9  C   UNL     1       4.574   5.606  16.826  0.00  0.00    +0.000 A 
ATOM     10  C   UNL     1       4.114   4.631  17.820  0.00  0.00    +0.000 A 
ATOM     11  C   UNL     1       3.264   5.003  18.805  0.00  0.00    +0.000 A 
ATOM     12  N   UNL     1       2.841   6.344  18.868  0.00  0.00    +0.000 N 
ATOM     13  N   UNL     1       2.023   6.963  19.773  0.00  0.00    +0.000 NA
ATOM     14  H   UNL     1       0.249  11.154  21.052  0.00  0.00    +0.000 HD
ATOM     15  H   UNL     1       0.711   8.888  20.735  0.00  0.00    +0.000 HD
ENDROOT
BRANCH  11  16
ATOM     16  C   UNL     1       2.780   4.014  19.776  0.00  0.00    +0.000 A 
ATOM     17  C   UNL     1       1.425   3.988  20.135  0.00  0.00    +0.000 A 
ATOM     18  C   UNL     1       0.964   3.067  21.079  0.00  0.00    +0.000 A 
ATOM     19  C   UNL     1       1.850   2.166  21.671  0.00  0.00    +0.000 A 
ATOM     20  C   UNL     1       3.199   2.183  21.316  0.00  0.00    +0.000 A 
ATOM     21  C   UNL     1       3.654   3.103  20.375  0.00  0.00    +0.000 A 
ATOM     22  F   UNL     1       4.956   3.100  20.048  0.00  0.00    +0.000 F 
ENDBRANCH  11  16
BRANCH   9  23
ATOM     23  C   UNL     1       5.515   5.252  15.747  0.00  0.00    +0.000 A 
ATOM     24  C   UNL     1       5.135   4.396  14.710  0.00  0.00    +0.000 A 
ATOM     25  C   UNL     1       6.046   4.088  13.698  0.00  0.00    +0.000 A 
ATOM     26  C   UNL     1       7.309   4.655  13.752  0.00  0.00    +0.000 A 
ATOM     27  N   UNL     1       7.711   5.489  14.735  0.00  0.00    +0.000 NA
ATOM     28  C   UNL     1       6.808   5.765  15.708  0.00  0.00    +0.000 A 
ENDBRANCH   9  23
BRANCH   1  30
ATOM     29  C   UNL     1      -1.933  12.278  19.141  0.00  0.00    +0.000 C 
ATOM     30  C   UNL     1      -0.455  12.398  19.471  0.00  0.00    +0.000 C 
ENDBRANCH   1  30
TORSDOF 3
ENDMDL
MODEL 3
REMARK VINA RESULT:      -7.6      1.308      1.619
REMARK  Name = 
REMARK  4 active torsions:
REMARK  status: ('A' for Active; 'I' for Inactive)
REMARK    1  A    between atoms: C_1  and  C_2
REMARK    2  A    between atoms: C_2  and  N_3
REMARK    3  A    between atoms: C_11  and  C_12
REMARK    4  A    between atoms: C_19  and  C_20
REMARK                            x       y       z     vdW  Elec       q    Type
REMARK                         _______ _______ _______ _____ _____    ______ ____
ROOT
ATOM      1  N   UNL     1       0.992  11.361  19.413  0.00  0.00    +0.000 N 
ATOM      2  C   UNL     1       1.645  10.465  18.588  0.00  0.00    +0.000 C 
ATOM      3  O   UNL     1       1.945  10.779  17.439  0.00  0.00    +0.000 OA
ATOM      4  N   UNL     1       1.842   9.245  19.177  0.00  0.00    +0.000 N 
ATOM      5  C   UNL     1       2.480   8.219  18.525  0.00  0.00    +0.000 A 
ATOM      6  N   UNL     1       3.281   8.421  17.445  0.00  0.00    +0.000 NA
ATOM      7  C   UNL     1       3.696   7.220  17.131  0.00  0.00    +0.000 A 
ATOM      8  C   UNL     1       4.559   6.769  16.098  0.00  0.00    +0.000 A 
ATOM      9  C   UNL     1       4.844   5.451  15.973  0.00  0.00    +0.000 A 
ATOM     10  C   UNL     1       4.234   4.488  16.897  0.00  0.00    +0.000 A 
ATOM     11  C   UNL     1       3.405   4.909  17.879  0.00  0.00    +0.000 A 
ATOM     12  N   UNL     1       3.150   6.287  18.011  0.00  0.00    +0.000 N 
ATOM     13  N   UNL     1       2.387   6.953  18.930  0.00  0.00    +0.000 NA
ATOM     14  H   UNL     1       1.107  11.256  20.409  0.00  0.00    +0.000 HD
ATOM     15  H   UNL     1       1.294   8.971  19.971  0.00  0.00    +0.000 HD
ENDROOT
BRANCH  11  16
ATOM     16  C   UNL     1       2.771   3.937  18.778  0.00  0.00    +0.000 A 
ATOM     17  C   UNL     1       1.441   3.548  18.565  0.00  0.00    +0.000 A 
ATOM     18  C   UNL     1       0.823   2.643  19.433  0.00  0.00    +0.000 A 
ATOM     19  C   UNL     1       1.528   2.119  20.517  0.00  0.00    +0.000 A 
ATOM     20  C   UNL     1       2.853   2.497  20.733  0.00  0.00    +0.000 A 
ATOM     21  C   UNL     1       3.464   3.400  19.866  0.00  0.00    +0.000 A 
ATOM     22  F   UNL     1       4.741   3.747  20.092  0.00  0.00    +0.000 F 
ENDBRANCH  11  16
BRANCH   9  23
ATOM     23  C   UNL     1       5.769   5.042  14.900  0.00  0.00    +0.000 A 
ATOM     24  C   UNL     1       5.377   4.125  13.921  0.00  0.00    +0.000 A 
ATOM     25  C   UNL     1       6.272   3.766  12.911  0.00  0.00    +0.000 A 
ATOM     26  C   UNL     1       7.532   4.342  12.911  0.00  0.00    +0.000 A 
ATOM     27  N   UNL     1       7.945   5.234  13.838  0.00  0.00    +0.000 NA
ATOM     28  C   UNL     1       7.057   5.559  14.809  0.00  0.00    +0.000 A 
ENDBRANCH   9  23
BRANCH   1  30
ATOM     29  C   UNL     1       1.469  13.795  19.436  0.00  0.00    +0.000 C 
ATOM     30  C   UNL     1       0.615  12.665  18.887  0.00  0.00    +0.000 C 
ENDBRANCH   1  30
TORSDOF 3
ENDMDL
MODEL 4
REMARK VINA RESULT:      -7.5      4.365      5.198
REMARK  Name = 
REMARK  4 active torsions:
REMARK  status: ('A' for Active; 'I' for Inactive)
REMARK    1  A    between atoms: C_1  and  C_2
REMARK    2  A    between atoms: C_2  and  N_3
REMARK    3  A    between atoms: C_11  and  C_12
REMARK    4  A    between atoms: C_19  and  C_20
REMARK                            x       y       z     vdW  Elec       q    Type
REMARK                         _______ _______ _______ _____ _____    ______ ____
ROOT
ATOM      1  N   UNL     1       9.191   9.649  19.439  0.00  0.00    +0.000 N 
ATOM      2  C   UNL     1       8.627   8.884  18.436  0.00  0.00    +0.000 C 
ATOM      3  O   UNL     1       8.725   9.226  17.260  0.00  0.00    +0.000 OA
ATOM      4  N   UNL     1       7.945   7.797  18.914  0.00  0.00    +0.000 N 
ATOM      5  C   UNL     1       7.321   6.907  18.077  0.00  0.00    +0.000 A 
ATOM      6  N   UNL     1       7.628   6.799  16.757  0.00  0.00    +0.000 NA
ATOM      7  C   UNL     1       6.835   5.853  16.323  0.00  0.00    +0.000 A 
ATOM      8  C   UNL     1       6.680   5.280  15.034  0.00  0.00    +0.000 A 
ATOM      9  C   UNL     1       5.775   4.295  14.829  0.00  0.00    +0.000 A 
ATOM     10  C   UNL     1       4.934   3.841  15.942  0.00  0.00    +0.000 A 
ATOM     11  C   UNL     1       5.071   4.387  17.172  0.00  0.00    +0.000 A 
ATOM     12  N   UNL     1       6.042   5.386  17.370  0.00  0.00    +0.000 N 
ATOM     13  N   UNL     1       6.389   6.058  18.510  0.00  0.00    +0.000 NA
ATOM     14  H   UNL     1       9.446   9.188  20.299  0.00  0.00    +0.000 HD
ATOM     15  H   UNL     1       7.642   7.769  19.870  0.00  0.00    +0.000 HD
ENDROOT
BRANCH  11  16
ATOM     16  C   UNL     1       4.202   3.952  18.274  0.00  0.00    +0.000 A 
ATOM     17  C   UNL     1       4.660   2.998  19.193  0.00  0.00    +0.000 A 
ATOM     18  C   UNL     1       3.829   2.560  20.228  0.00  0.00    +0.000 A 
ATOM     19  C   UNL     1       2.537   3.073  20.354  0.00  0.00    +0.000 A 
ATOM     20  C   UNL     1       2.076   4.026  19.447  0.00  0.00    +0.000 A 
ATOM     21  C   UNL     1       2.908   4.459  18.416  0.00  0.00    +0.000 A 
ATOM     22  F   UNL     1       2.444   5.378  17.556  0.00  0.00    +0.000 F 
ENDBRANCH  11  16
BRANCH   9  23
ATOM     23  C   UNL     1       5.677   3.716  13.476  0.00  0.00    +0.000 A 
ATOM     24  C   UNL     1       4.454   3.662  12.801  0.00  0.00    +0.000 A 
ATOM     25  C   UNL     1       4.395   3.117  11.518  0.00  0.00    +0.000 A 
ATOM     26  C   UNL     1       5.567   2.649  10.945  0.00  0.00    +0.000 A 
ATOM     27  N   UNL     1       6.767   2.688  11.564  0.00  0.00    +0.000 NA
ATOM     28  C   UNL     1       6.792   3.216  12.812  0.00  0.00    +0.000 A 
ENDBRANCH   9  23
BRANCH   1  30
ATOM     29  C   UNL     1      10.415  11.626  20.302  0.00  0.00    +0.000 C 
ATOM     30  C   UNL     1       9.855  10.897  19.093  0.00  0.00    +0.000 C 
ENDBRANCH   1  30
TORSDOF 3
ENDMDL
MODEL 5
REMARK VINA RESULT:      -7.2      1.997      6.871
REMARK  Name = 
REMARK  4 active torsions:
REMARK  status: ('A' for Active; 'I' for Inactive)
REMARK    1  A    between atoms: C_1  and  C_2
REMARK    2  A    between atoms: C_2  and  N_3
REMARK    3  A    between atoms: C_11  and  C_12
REMARK    4  A    between atoms: C_19  and  C_20
REMARK                            x       y       z     vdW  Elec       q    Type
REMARK                         _______ _______ _______ _____ _____    ______ ____
ROOT
ATOM      1  N   UNL     1       6.834   4.290  14.123  0.00  0.00    +0.000 N 
ATOM      2  C   UNL     1       6.162   5.191  14.927  0.00  0.00    +0.000 C 
ATOM      3  O   UNL     1       6.477   6.378  14.933  0.00  0.00    +0.000 OA
ATOM      4  N   UNL     1       5.200   4.599  15.702  0.00  0.00    +0.000 N 
ATOM      5  C   UNL     1       4.415   5.324  16.563  0.00  0.00    +0.000 A 
ATOM      6  N   UNL     1       4.251   6.669  16.453  0.00  0.00    +0.000 NA
ATOM      7  C   UNL     1       3.440   6.971  17.435  0.00  0.00    +0.000 A 
ATOM      8  C   UNL     1       2.890   8.213  17.846  0.00  0.00    +0.000 A 
ATOM      9  C   UNL     1       2.060   8.272  18.914  0.00  0.00    +0.000 A 
ATOM     10  C   UNL     1       1.753   7.047  19.660  0.00  0.00    +0.000 A 
ATOM     11  C   UNL     1       2.278   5.861  19.279  0.00  0.00    +0.000 A 
ATOM     12  N   UNL     1       3.111   5.818  18.146  0.00  0.00    +0.000 N 
ATOM     13  N   UNL     1       3.727   4.751  17.550  0.00  0.00    +0.000 NA
ATOM     14  H   UNL     1       6.344   3.459  13.831  0.00  0.00    +0.000 HD
ATOM     15  H   UNL     1       5.227   3.612  15.876  0.00  0.00    +0.000 HD
ENDROOT
BRANCH  11  16
ATOM     16  C   UNL     1       1.994   4.644  20.051  0.00  0.00    +0.000 A 
ATOM     17  C   UNL     1       2.495   4.507  21.353  0.00  0.00    +0.000 A 
ATOM     18  C   UNL     1       2.251   3.340  22.083  0.00  0.00    +0.000 A 
ATOM     19  C   UNL     1       1.504   2.305  21.520  0.00  0.00    +0.000 A 
ATOM     20  C   UNL     1       0.998   2.436  20.227  0.00  0.00    +0.000 A 
ATOM     21  C   UNL     1       1.244   3.600  19.503  0.00  0.00    +0.000 A 
ATOM     22  F   UNL     1       0.745   3.705  18.262  0.00  0.00    +0.000 F 
ENDBRANCH  11  16
BRANCH   9  23
ATOM     23  C   UNL     1       1.495   9.584  19.279  0.00  0.00    +0.000 A 
ATOM     24  C   UNL     1       0.809   9.765  20.483  0.00  0.00    +0.000 A 
ATOM     25  C   UNL     1       0.296  11.022  20.806  0.00  0.00    +0.000 A 
ATOM     26  C   UNL     1       0.491  12.063  19.913  0.00  0.00    +0.000 A 
ATOM     27  N   UNL     1       1.151  11.928  18.742  0.00  0.00    +0.000 NA
ATOM     28  C   UNL     1       1.633  10.695  18.453  0.00  0.00    +0.000 A 
ENDBRANCH   9  23
BRANCH   1  30
ATOM     29  C   UNL     1       7.579   5.050  11.883  0.00  0.00    +0.000 C 
ATOM     30  C   UNL     1       7.958   4.754  13.324  0.00  0.00    +0.000 C 
ENDBRANCH   1  30
TORSDOF 3
ENDMDL
MODEL 6
REMARK VINA RESULT:      -7.0      4.240      8.198
REMARK  Name = 
REMARK  4 active torsions:
REMARK  status: ('A' for Active; 'I' for Inactive)
REMARK    1  A    between atoms: C_1  and  C_2
REMARK    2  A    between atoms: C_2  and  N_3
REMARK    3  A    between atoms: C_11  and  C_12
REMARK    4  A    between atoms: C_19  and  C_20
REMARK                            x       y       z     vdW  Elec       q    Type
REMARK                         _______ _______ _______ _____ _____    ______ ____
ROOT
ATOM      1  N   UNL     1       4.847  16.017  19.200  0.00  0.00    +0.000 N 
ATOM      2  C   UNL     1       3.581  15.463  19.188  0.00  0.00    +0.000 C 
ATOM      3  O   UNL     1       2.604  16.134  19.509  0.00  0.00    +0.000 OA
ATOM      4  N   UNL     1       3.583  14.138  18.845  0.00  0.00    +0.000 N 
ATOM      5  C   UNL     1       2.424  13.407  18.766  0.00  0.00    +0.000 A 
ATOM      6  N   UNL     1       1.199  13.984  18.643  0.00  0.00    +0.000 NA
ATOM      7  C   UNL     1       0.375  12.969  18.593  0.00  0.00    +0.000 A 
ATOM      8  C   UNL     1      -1.038  12.915  18.464  0.00  0.00    +0.000 A 
ATOM      9  C   UNL     1      -1.676  11.721  18.436  0.00  0.00    +0.000 A 
ATOM     10  C   UNL     1      -0.901  10.483  18.566  0.00  0.00    +0.000 A 
ATOM     11  C   UNL     1       0.445  10.525  18.696  0.00  0.00    +0.000 A 
ATOM     12  N   UNL     1       1.090  11.776  18.688  0.00  0.00    +0.000 N 
ATOM     13  N   UNL     1       2.423  12.075  18.770  0.00  0.00    +0.000 NA
ATOM     14  H   UNL     1       5.543  15.621  18.588  0.00  0.00    +0.000 HD
ATOM     15  H   UNL     1       4.425  13.598  18.915  0.00  0.00    +0.000 HD
ENDROOT
BRANCH  11  16
ATOM     16  C   UNL     1       1.211   9.283  18.860  0.00  0.00    +0.000 A 
ATOM     17  C   UNL     1       1.872   8.716  17.761  0.00  0.00    +0.000 A 
ATOM     18  C   UNL     1       2.580   7.520  17.905  0.00  0.00    +0.000 A 
ATOM     19  C   UNL     1       2.635   6.883  19.146  0.00  0.00    +0.000 A 
ATOM     20  C   UNL     1       1.984   7.443  20.245  0.00  0.00    +0.000 A 
ATOM     21  C   UNL     1       1.279   8.635  20.096  0.00  0.00    +0.000 A 
ATOM     22  F   UNL     1       0.662   9.157  21.168  0.00  0.00    +0.000 F 
ENDBRANCH  11  16
BRANCH   9  23
ATOM     23  C   UNL     1      -3.141  11.725  18.272  0.00  0.00    +0.000 A 
ATOM     24  C   UNL     1      -3.983  12.134  19.310  0.00  0.00    +0.000 A 
ATOM     25  C   UNL     1      -5.365  12.136  19.121  0.00  0.00    +0.000 A 
ATOM     26  C   UNL     1      -5.864  11.734  17.892  0.00  0.00    +0.000 A 
ATOM     27  N   UNL     1      -5.083  11.335  16.865  0.00  0.00    +0.000 NA
ATOM     28  C   UNL     1      -3.745  11.337  17.080  0.00  0.00    +0.000 A 
ENDBRANCH   9  23
BRANCH   1  30
ATOM     29  C   UNL     1       5.708  17.489  21.002  0.00  0.00    +0.000 C 
ATOM     30  C   UNL     1       5.017  17.390  19.652  0.00  0.00    +0.000 C 
ENDBRANCH   1  30
TORSDOF 3
ENDMDL
MODEL 7
REMARK VINA RESULT:      -7.0      1.552      2.028
REMARK  Name = 
REMARK  4 active torsions:
REMARK  status: ('A' for Active; 'I' for Inactive)
REMARK    1  A    between atoms: C_1  and  C_2
REMARK    2  A    between atoms: C_2  and  N_3
REMARK    3  A    between atoms: C_11  and  C_12
REMARK    4  A    between atoms: C_19  and  C_20
REMARK                            x       y       z     vdW  Elec       q    Type
REMARK                         _______ _______ _______ _____ _____    ______ ____
ROOT
ATOM      1  N   UNL     1       1.092  11.194  19.346  0.00  0.00    +0.000 N 
ATOM      2  C   UNL     1       1.736  10.314  18.497  0.00  0.00    +0.000 C 
ATOM      3  O   UNL     1       2.026  10.650  17.352  0.00  0.00    +0.000 OA
ATOM      4  N   UNL     1       1.938   9.082  19.061  0.00  0.00    +0.000 N 
ATOM      5  C   UNL     1       2.570   8.069  18.384  0.00  0.00    +0.000 A 
ATOM      6  N   UNL     1       3.361   8.291  17.300  0.00  0.00    +0.000 NA
ATOM      7  C   UNL     1       3.772   7.097  16.958  0.00  0.00    +0.000 A 
ATOM      8  C   UNL     1       4.625   6.665  15.909  0.00  0.00    +0.000 A 
ATOM      9  C   UNL     1       4.908   5.351  15.756  0.00  0.00    +0.000 A 
ATOM     10  C   UNL     1       4.306   4.370  16.666  0.00  0.00    +0.000 A 
ATOM     11  C   UNL     1       3.487   4.772  17.665  0.00  0.00    +0.000 A 
ATOM     12  N   UNL     1       3.234   6.147  17.825  0.00  0.00    +0.000 N 
ATOM     13  N   UNL     1       2.479   6.796  18.765  0.00  0.00    +0.000 NA
ATOM     14  H   UNL     1       1.216  11.070  20.339  0.00  0.00    +0.000 HD
ATOM     15  H   UNL     1       1.397   8.793  19.854  0.00  0.00    +0.000 HD
ENDROOT
BRANCH  11  16
ATOM     16  C   UNL     1       2.860   3.782  18.550  0.00  0.00    +0.000 A 
ATOM     17  C   UNL     1       1.548   3.354  18.306  0.00  0.00    +0.000 A 
ATOM     18  C   UNL     1       0.936   2.433  19.161  0.00  0.00    +0.000 A 
ATOM     19  C   UNL     1       1.631   1.932  20.263  0.00  0.00    +0.000 A 
ATOM     20  C   UNL     1       2.938   2.349  20.510  0.00  0.00    +0.000 A 
ATOM     21  C   UNL     1       3.543   3.268  19.656  0.00  0.00    +0.000 A 
ATOM     22  F   UNL     1       4.803   3.654  19.911  0.00  0.00    +0.000 F 
ENDBRANCH  11  16
BRANCH   9  23
ATOM     23  C   UNL     1       5.823   4.962  14.667  0.00  0.00    +0.000 A 
ATOM     24  C   UNL     1       7.061   5.590  14.506  0.00  0.00    +0.000 A 
ATOM     25  C   UNL     1       7.910   5.193  13.472  0.00  0.00    +0.000 A 
ATOM     26  C   UNL     1       7.493   4.173  12.631  0.00  0.00    +0.000 A 
ATOM     27  N   UNL     1       6.306   3.540  12.757  0.00  0.00    +0.000 NA
ATOM     28  C   UNL     1       5.501   3.951  13.767  0.00  0.00    +0.000 A 
ENDBRANCH   9  23
BRANCH   1  30
ATOM     29  C   UNL     1      -0.757  12.593  18.464  0.00  0.00    +0.000 C 
ATOM     30  C   UNL     1       0.711  12.508  18.850  0.00  0.00    +0.000 C 
ENDBRANCH   1  30
TORSDOF 3
ENDMDL
MODEL 8
REMARK VINA RESULT:      -6.9      3.706      7.021
REMARK  Name = 
REMARK  4 active torsions:
REMARK  status: ('A' for Active; 'I' for Inactive)
REMARK    1  A    between atoms: C_1  and  C_2
REMARK    2  A    between atoms: C_2  and  N_3
REMARK    3  A    between atoms: C_11  and  C_12
REMARK    4  A    between atoms: C_19  and  C_20
REMARK                            x       y       z     vdW  Elec       q    Type
REMARK                         _______ _______ _______ _____ _____    ______ ____
ROOT
ATOM      1  N   UNL     1      -5.367  12.303  17.787  0.00  0.00    +0.000 N 
ATOM      2  C   UNL     1      -4.247  11.503  17.909  0.00  0.00    +0.000 C 
ATOM      3  O   UNL     1      -4.362  10.291  18.071  0.00  0.00    +0.000 OA
ATOM      4  N   UNL     1      -3.078  12.214  17.880  0.00  0.00    +0.000 N 
ATOM      5  C   UNL     1      -1.854  11.602  17.977  0.00  0.00    +0.000 A 
ATOM      6  N   UNL     1      -1.673  10.277  17.731  0.00  0.00    +0.000 NA
ATOM      7  C   UNL     1      -0.391  10.092  17.920  0.00  0.00    +0.000 A 
ATOM      8  C   UNL     1       0.412   8.926  17.814  0.00  0.00    +0.000 A 
ATOM      9  C   UNL     1       1.740   8.987  18.065  0.00  0.00    +0.000 A 
ATOM     10  C   UNL     1       2.342  10.261  18.473  0.00  0.00    +0.000 A 
ATOM     11  C   UNL     1       1.583  11.375  18.583  0.00  0.00    +0.000 A 
ATOM     12  N   UNL     1       0.210  11.296  18.285  0.00  0.00    +0.000 N 
ATOM     13  N   UNL     1      -0.746  12.274  18.288  0.00  0.00    +0.000 NA
ATOM     14  H   UNL     1      -5.276  13.170  17.279  0.00  0.00    +0.000 HD
ATOM     15  H   UNL     1      -3.079  13.199  18.069  0.00  0.00    +0.000 HD
ENDROOT
BRANCH  11  16
ATOM     16  C   UNL     1       2.186  12.639  19.026  0.00  0.00    +0.000 A 
ATOM     17  C   UNL     1       2.945  13.406  18.131  0.00  0.00    +0.000 A 
ATOM     18  C   UNL     1       3.543  14.596  18.553  0.00  0.00    +0.000 A 
ATOM     19  C   UNL     1       3.386  15.030  19.870  0.00  0.00    +0.000 A 
ATOM     20  C   UNL     1       2.629  14.275  20.766  0.00  0.00    +0.000 A 
ATOM     21  C   UNL     1       2.036  13.089  20.340  0.00  0.00    +0.000 A 
ATOM     22  F   UNL     1       1.310  12.380  21.218  0.00  0.00    +0.000 F 
ENDBRANCH  11  16
BRANCH   9  23
ATOM     23  C   UNL     1       2.531   7.751  17.912  0.00  0.00    +0.000 A 
ATOM     24  C   UNL     1       2.022   6.515  18.318  0.00  0.00    +0.000 A 
ATOM     25  C   UNL     1       2.789   5.361  18.149  0.00  0.00    +0.000 A 
ATOM     26  C   UNL     1       4.044   5.482  17.573  0.00  0.00    +0.000 A 
ATOM     27  N   UNL     1       4.567   6.658  17.165  0.00  0.00    +0.000 NA
ATOM     28  C   UNL     1       3.802   7.762  17.347  0.00  0.00    +0.000 A 
ENDBRANCH   9  23
BRANCH   1  30
ATOM     29  C   UNL     1      -7.475  12.237  19.093  0.00  0.00    +0.000 C 
ATOM     30  C   UNL     1      -6.687  11.702  17.909  0.00  0.00    +0.000 C 
ENDBRANCH   1  30
TORSDOF 3
ENDMDL
MODEL 9
REMARK VINA RESULT:      -6.8      1.237      1.528
REMARK  Name = 
REMARK  4 active torsions:
REMARK  status: ('A' for Active; 'I' for Inactive)
REMARK    1  A    between atoms: C_1  and  C_2
REMARK    2  A    between atoms: C_2  and  N_3
REMARK    3  A    between atoms: C_11  and  C_12
REMARK    4  A    between atoms: C_19  and  C_20
REMARK                            x       y       z     vdW  Elec       q    Type
REMARK                         _______ _______ _______ _____ _____    ______ ____
ROOT
ATOM      1  N   UNL     1       0.936  11.228  19.322  0.00  0.00    +0.000 N 
ATOM      2  C   UNL     1       1.592  10.335  18.496  0.00  0.00    +0.000 C 
ATOM      3  O   UNL     1       1.838  10.629  17.330  0.00  0.00    +0.000 OA
ATOM      4  N   UNL     1       1.857   9.140  19.109  0.00  0.00    +0.000 N 
ATOM      5  C   UNL     1       2.510   8.121  18.460  0.00  0.00    +0.000 A 
ATOM      6  N   UNL     1       3.262   8.323  17.346  0.00  0.00    +0.000 NA
ATOM      7  C   UNL     1       3.712   7.131  17.047  0.00  0.00    +0.000 A 
ATOM      8  C   UNL     1       4.553   6.684  15.995  0.00  0.00    +0.000 A 
ATOM      9  C   UNL     1       4.883   5.375  15.894  0.00  0.00    +0.000 A 
ATOM     10  C   UNL     1       4.344   4.416  16.863  0.00  0.00    +0.000 A 
ATOM     11  C   UNL     1       3.536   4.831  17.865  0.00  0.00    +0.000 A 
ATOM     12  N   UNL     1       3.234   6.202  17.971  0.00  0.00    +0.000 N 
ATOM     13  N   UNL     1       2.479   6.864  18.900  0.00  0.00    +0.000 NA
ATOM     14  H   UNL     1       1.090  11.155  20.316  0.00  0.00    +0.000 HD
ATOM     15  H   UNL     1       1.348   8.867  19.929  0.00  0.00    +0.000 HD
ENDROOT
BRANCH  11  16
ATOM     16  C   UNL     1       2.972   3.861  18.811  0.00  0.00    +0.000 A 
ATOM     17  C   UNL     1       3.786   3.290  19.799  0.00  0.00    +0.000 A 
ATOM     18  C   UNL     1       3.263   2.345  20.686  0.00  0.00    +0.000 A 
ATOM     19  C   UNL     1       1.923   1.965  20.593  0.00  0.00    +0.000 A 
ATOM     20  C   UNL     1       1.105   2.531  19.616  0.00  0.00    +0.000 A 
ATOM     21  C   UNL     1       1.632   3.472  18.734  0.00  0.00    +0.000 A 
ATOM     22  F   UNL     1       0.827   4.005  17.802  0.00  0.00    +0.000 F 
ENDBRANCH  11  16
BRANCH   9  23
ATOM     23  C   UNL     1       5.784   4.972  14.797  0.00  0.00    +0.000 A 
ATOM     24  C   UNL     1       7.020   5.598  14.612  0.00  0.00    +0.000 A 
ATOM     25  C   UNL     1       7.855   5.187  13.572  0.00  0.00    +0.000 A 
ATOM     26  C   UNL     1       7.428   4.156  12.751  0.00  0.00    +0.000 A 
ATOM     27  N   UNL     1       6.243   3.525  12.901  0.00  0.00    +0.000 NA
ATOM     28  C   UNL     1       5.450   3.949  13.915  0.00  0.00    +0.000 A 
ENDBRANCH   9  23
BRANCH   1  30
ATOM     29  C   UNL     1       1.564  13.577  18.829  0.00  0.00    +0.000 C 
ATOM     30  C   UNL     1       0.491  12.503  18.778  0.00  0.00    +0.000 C 
ENDBRANCH   1  30
TORSDOF 3
ENDMDL
