MODEL 1
REMARK VINA RESULT:      -7.3      0.000      0.000
REMARK  Name = 
REMARK  6 active torsions:
REMARK  status: ('A' for Active; 'I' for Inactive)
REMARK    1  A    between atoms: C_1  and  O_2
REMARK    2  A    between atoms: O_2  and  C_3
REMARK    3  A    between atoms: C_9  and  O_10
REMARK    4  A    between atoms: O_10  and  C_11
REMARK    5  A    between atoms: C_24  and  C_25
REMARK    6  A    between atoms: C_24  and  C_26
REMARK                            x       y       z     vdW  Elec       q    Type
REMARK                         _______ _______ _______ _____ _____    ______ ____
ROOT
ATOM      1  C   UNL     1      -1.052  14.242  22.609  0.00  0.00    +0.000 C 
ATOM      2  C   UNL     1       0.097  13.603  22.326  0.00  0.00    +0.000 C 
ATOM      3  C   UNL     1      -0.255  12.608  21.335  0.00  0.00    +0.000 C 
ATOM      4  O   UNL     1      -0.154  12.909  20.139  0.00  0.00    +0.000 OA
ATOM      5  C   UNL     1      -1.108  11.443  21.882  0.00  0.00    +0.000 C 
ATOM      6  C   UNL     1      -2.408  12.274  21.896  0.00  0.00    +0.000 C 
ATOM      7  C   UNL     1      -2.360  13.627  22.178  0.00  0.00    +0.000 C 
ATOM      8  O   UNL     1      -0.896  10.976  23.219  0.00  0.00    +0.000 OA
ATOM      9  C   UNL     1      -0.112   9.769  23.180  0.00  0.00    +0.000 C 
ATOM     10  C   UNL     1      -0.472   9.041  21.888  0.00  0.00    +0.000 C 
ATOM     11  O   UNL     1       0.599   8.114  21.476  0.00  0.00    +0.000 OA
ATOM     12  C   UNL     1       1.108   8.220  20.190  0.00  0.00    +0.000 A 
ATOM     13  C   UNL     1       0.791   9.316  19.405  0.00  0.00    +0.000 A 
ATOM     14  C   UNL     1       1.240   9.594  18.119  0.00  0.00    +0.000 A 
ATOM     15  C   UNL     1       2.094   8.684  17.552  0.00  0.00    +0.000 A 
ATOM     16  C   UNL     1       2.510   7.598  18.323  0.00  0.00    +0.000 A 
ATOM     17  C   UNL     1       2.086   7.383  19.665  0.00  0.00    +0.000 A 
ATOM     18  C   UNL     1       2.848   6.400  20.440  0.00  0.00    +0.000 C 
ATOM     19  C   UNL     1       3.519   5.469  19.744  0.00  0.00    +0.000 C 
ATOM     20  C   UNL     1       3.405   5.425  18.234  0.00  0.00    +0.000 C 
ATOM     21  C   UNL     1       2.119   4.696  17.803  0.00  0.00    +0.000 C 
ATOM     22  C   UNL     1       4.612   4.752  17.579  0.00  0.00    +0.000 C 
ATOM     23  O   UNL     1       3.396   6.760  17.693  0.00  0.00    +0.000 OA
ATOM     24  C   UNL     1       0.484  10.390  20.278  0.00  0.00    +0.000 C 
ATOM     25  O   UNL     1       1.458  11.029  20.656  0.00  0.00    +0.000 OA
ATOM     26  C   UNL     1      -0.825  10.231  20.982  0.00  0.00    +0.000 C 
ENDROOT
BRANCH   1  28
ATOM     27  C   UNL     1      -1.162  15.487  24.651  0.00  0.00    +0.000 C 
ATOM     28  O   UNL     1      -1.117  15.474  23.219  0.00  0.00    +0.000 OA
ENDBRANCH   1  28
BRANCH   7  29
ATOM     29  O   UNL     1      -3.349  14.560  21.996  0.00  0.00    +0.000 OA
ATOM     30  C   UNL     1      -4.634  14.334  22.554  0.00  0.00    +0.000 C 
ENDBRANCH   7  29
TORSDOF 2
ENDMDL
MODEL 2
REMARK VINA RESULT:      -7.1      1.479      8.652
REMARK  Name = 
REMARK  6 active torsions:
REMARK  status: ('A' for Active; 'I' for Inactive)
REMARK    1  A    between atoms: C_1  and  O_2
REMARK    2  A    between atoms: O_2  and  C_3
REMARK    3  A    between atoms: C_9  and  O_10
REMARK    4  A    between atoms: O_10  and  C_11
REMARK    5  A    between atoms: C_24  and  C_25
REMARK    6  A    between atoms: C_24  and  C_26
REMARK                            x       y       z     vdW  Elec       q    Type
REMARK                         _______ _______ _______ _____ _____    ______ ____
ROOT
ATOM      1  C   UNL     1       4.067   4.810  18.650  0.00  0.00    +0.000 C 
ATOM      2  C   UNL     1       4.115   5.832  19.522  0.00  0.00    +0.000 C 
ATOM      3  C   UNL     1       2.742   6.264  19.678  0.00  0.00    +0.000 C 
ATOM      4  O   UNL     1       2.071   5.770  20.594  0.00  0.00    +0.000 OA
ATOM      5  C   UNL     1       2.154   6.968  18.436  0.00  0.00    +0.000 C 
ATOM      6  C   UNL     1       1.931   5.646  17.672  0.00  0.00    +0.000 C 
ATOM      7  C   UNL     1       2.815   4.597  17.836  0.00  0.00    +0.000 C 
ATOM      8  O   UNL     1       2.998   7.786  17.619  0.00  0.00    +0.000 OA
ATOM      9  C   UNL     1       2.768   9.171  17.937  0.00  0.00    +0.000 C 
ATOM     10  C   UNL     1       1.303   9.301  18.342  0.00  0.00    +0.000 C 
ATOM     11  O   UNL     1       1.079  10.498  19.175  0.00  0.00    +0.000 OA
ATOM     12  C   UNL     1       0.449  10.343  20.401  0.00  0.00    +0.000 A 
ATOM     13  C   UNL     1       0.258   9.078  20.930  0.00  0.00    +0.000 A 
ATOM     14  C   UNL     1      -0.319   8.750  22.151  0.00  0.00    +0.000 A 
ATOM     15  C   UNL     1      -0.753   9.791  22.930  0.00  0.00    +0.000 A 
ATOM     16  C   UNL     1      -0.519  11.092  22.485  0.00  0.00    +0.000 A 
ATOM     17  C   UNL     1       0.141  11.393  21.259  0.00  0.00    +0.000 A 
ATOM     18  C   UNL     1       0.598  12.774  21.086  0.00  0.00    +0.000 C 
ATOM     19  C   UNL     1      -0.030  13.714  21.811  0.00  0.00    +0.000 C 
ATOM     20  C   UNL     1      -1.200  13.333  22.694  0.00  0.00    +0.000 C 
ATOM     21  C   UNL     1      -2.496  13.226  21.869  0.00  0.00    +0.000 C 
ATOM     22  C   UNL     1      -1.410  14.323  23.841  0.00  0.00    +0.000 C 
ATOM     23  O   UNL     1      -0.948  12.073  23.344  0.00  0.00    +0.000 OA
ATOM     24  C   UNL     1       1.261   8.235  20.389  0.00  0.00    +0.000 C 
ATOM     25  O   UNL     1       2.322   8.255  21.000  0.00  0.00    +0.000 OA
ATOM     26  C   UNL     1       1.052   7.909  18.945  0.00  0.00    +0.000 C 
ENDROOT
BRANCH   1  28
ATOM     27  C   UNL     1       6.276   4.340  17.857  0.00  0.00    +0.000 C 
ATOM     28  O   UNL     1       5.075   3.886  18.491  0.00  0.00    +0.000 OA
ENDBRANCH   1  28
BRANCH   7  29
ATOM     29  O   UNL     1       2.653   3.290  17.448  0.00  0.00    +0.000 OA
ATOM     30  C   UNL     1       1.881   2.414  18.254  0.00  0.00    +0.000 C 
ENDBRANCH   7  29
TORSDOF 2
ENDMDL
MODEL 3
REMARK VINA RESULT:      -6.9      1.911      8.654
REMARK  Name = 
REMARK  6 active torsions:
REMARK  status: ('A' for Active; 'I' for Inactive)
REMARK    1  A    between atoms: C_1  and  O_2
REMARK    2  A    between atoms: O_2  and  C_3
REMARK    3  A    between atoms: C_9  and  O_10
REMARK    4  A    between atoms: O_10  and  C_11
REMARK    5  A    between atoms: C_24  and  C_25
REMARK    6  A    between atoms: C_24  and  C_26
REMARK                            x       y       z     vdW  Elec       q    Type
REMARK                         _______ _______ _______ _____ _____    ______ ____
ROOT
ATOM      1  C   UNL     1       3.604   4.003  19.043  0.00  0.00    +0.000 C 
ATOM      2  C   UNL     1       3.784   5.103  19.794  0.00  0.00    +0.000 C 
ATOM      3  C   UNL     1       2.521   5.809  19.745  0.00  0.00    +0.000 C 
ATOM      4  O   UNL     1       1.685   5.580  20.628  0.00  0.00    +0.000 OA
ATOM      5  C   UNL     1       2.203   6.443  18.373  0.00  0.00    +0.000 C 
ATOM      6  C   UNL     1       1.781   5.099  17.741  0.00  0.00    +0.000 C 
ATOM      7  C   UNL     1       2.412   3.930  18.121  0.00  0.00    +0.000 C 
ATOM      8  O   UNL     1       3.266   6.966  17.570  0.00  0.00    +0.000 OA
ATOM      9  C   UNL     1       3.299   8.399  17.703  0.00  0.00    +0.000 C 
ATOM     10  C   UNL     1       1.862   8.862  17.922  0.00  0.00    +0.000 C 
ATOM     11  O   UNL     1       1.816  10.180  18.585  0.00  0.00    +0.000 OA
ATOM     12  C   UNL     1       1.062  10.314  19.741  0.00  0.00    +0.000 A 
ATOM     13  C   UNL     1       0.569   9.191  20.384  0.00  0.00    +0.000 A 
ATOM     14  C   UNL     1      -0.168   9.145  21.561  0.00  0.00    +0.000 A 
ATOM     15  C   UNL     1      -0.446  10.345  22.164  0.00  0.00    +0.000 A 
ATOM     16  C   UNL     1       0.089  11.505  21.606  0.00  0.00    +0.000 A 
ATOM     17  C   UNL     1       0.903  11.507  20.436  0.00  0.00    +0.000 A 
ATOM     18  C   UNL     1       1.648  12.739  20.162  0.00  0.00    +0.000 C 
ATOM     19  C   UNL     1       1.165  13.870  20.701  0.00  0.00    +0.000 C 
ATOM     20  C   UNL     1      -0.131  13.843  21.484  0.00  0.00    +0.000 C 
ATOM     21  C   UNL     1      -1.344  13.881  20.535  0.00  0.00    +0.000 C 
ATOM     22  C   UNL     1      -0.234  14.998  22.481  0.00  0.00    +0.000 C 
ATOM     23  O   UNL     1      -0.203  12.655  22.295  0.00  0.00    +0.000 OA
ATOM     24  C   UNL     1       1.421   8.106  20.058  0.00  0.00    +0.000 C 
ATOM     25  O   UNL     1       2.405   8.002  20.779  0.00  0.00    +0.000 OA
ATOM     26  C   UNL     1       1.278   7.638  18.645  0.00  0.00    +0.000 C 
ENDROOT
BRANCH   1  28
ATOM     27  C   UNL     1       4.498   2.221  20.368  0.00  0.00    +0.000 C 
ATOM     28  O   UNL     1       4.410   2.889  19.104  0.00  0.00    +0.000 OA
ENDBRANCH   1  28
BRANCH   7  29
ATOM     29  O   UNL     1       2.019   2.640  17.867  0.00  0.00    +0.000 OA
ATOM     30  C   UNL     1       0.972   2.065  18.633  0.00  0.00    +0.000 C 
ENDBRANCH   7  29
TORSDOF 2
ENDMDL
MODEL 4
REMARK VINA RESULT:      -6.6      8.134     11.415
REMARK  Name = 
REMARK  6 active torsions:
REMARK  status: ('A' for Active; 'I' for Inactive)
REMARK    1  A    between atoms: C_1  and  O_2
REMARK    2  A    between atoms: O_2  and  C_3
REMARK    3  A    between atoms: C_9  and  O_10
REMARK    4  A    between atoms: O_10  and  C_11
REMARK    5  A    between atoms: C_24  and  C_25
REMARK    6  A    between atoms: C_24  and  C_26
REMARK                            x       y       z     vdW  Elec       q    Type
REMARK                         _______ _______ _______ _____ _____    ______ ____
ROOT
ATOM      1  C   UNL     1      10.938  14.096  19.531  0.00  0.00    +0.000 C 
ATOM      2  C   UNL     1       9.739  14.043  20.136  0.00  0.00    +0.000 C 
ATOM      3  C   UNL     1       8.783  14.435  19.121  0.00  0.00    +0.000 C 
ATOM      4  O   UNL     1       8.259  13.549  18.434  0.00  0.00    +0.000 OA
ATOM      5  C   UNL     1       8.847  15.928  18.733  0.00  0.00    +0.000 C 
ATOM      6  C   UNL     1      10.105  15.746  17.857  0.00  0.00    +0.000 C 
ATOM      7  C   UNL     1      11.065  14.818  18.213  0.00  0.00    +0.000 C 
ATOM      8  O   UNL     1       9.169  16.906  19.728  0.00  0.00    +0.000 OA
ATOM      9  C   UNL     1       7.959  17.551  20.167  0.00  0.00    +0.000 C 
ATOM     10  C   UNL     1       7.010  17.583  18.973  0.00  0.00    +0.000 C 
ATOM     11  O   UNL     1       5.605  17.716  19.406  0.00  0.00    +0.000 OA
ATOM     12  C   UNL     1       4.680  16.791  18.945  0.00  0.00    +0.000 A 
ATOM     13  C   UNL     1       5.107  15.643  18.298  0.00  0.00    +0.000 A 
ATOM     14  C   UNL     1       4.321  14.606  17.809  0.00  0.00    +0.000 A 
ATOM     15  C   UNL     1       2.966  14.723  17.979  0.00  0.00    +0.000 A 
ATOM     16  C   UNL     1       2.481  15.820  18.692  0.00  0.00    +0.000 A 
ATOM     17  C   UNL     1       3.322  16.829  19.243  0.00  0.00    +0.000 A 
ATOM     18  C   UNL     1       2.708  17.726  20.225  0.00  0.00    +0.000 C 
ATOM     19  C   UNL     1       1.373  17.858  20.171  0.00  0.00    +0.000 C 
ATOM     20  C   UNL     1       0.585  17.155  19.085  0.00  0.00    +0.000 C 
ATOM     21  C   UNL     1       0.630  17.958  17.771  0.00  0.00    +0.000 C 
ATOM     22  C   UNL     1      -0.872  16.917  19.483  0.00  0.00    +0.000 C 
ATOM     23  O   UNL     1       1.118  15.838  18.852  0.00  0.00    +0.000 OA
ATOM     24  C   UNL     1       6.419  15.362  18.753  0.00  0.00    +0.000 C 
ATOM     25  O   UNL     1       6.467  14.713  19.790  0.00  0.00    +0.000 OA
ATOM     26  C   UNL     1       7.449  16.311  18.229  0.00  0.00    +0.000 C 
ENDROOT
BRANCH   1  28
ATOM     27  C   UNL     1      12.055  12.038  20.030  0.00  0.00    +0.000 C 
ATOM     28  O   UNL     1      12.068  13.471  20.007  0.00  0.00    +0.000 OA
ENDBRANCH   1  28
BRANCH   7  29
ATOM     29  O   UNL     1      12.103  14.345  17.449  0.00  0.00    +0.000 OA
ATOM     30  C   UNL     1      11.849  13.358  16.461  0.00  0.00    +0.000 C 
ENDBRANCH   7  29
TORSDOF 2
ENDMDL
MODEL 5
REMARK VINA RESULT:      -6.3      4.228      7.006
REMARK  Name = 
REMARK  6 active torsions:
REMARK  status: ('A' for Active; 'I' for Inactive)
REMARK    1  A    between atoms: C_1  and  O_2
REMARK    2  A    between atoms: O_2  and  C_3
REMARK    3  A    between atoms: C_9  and  O_10
REMARK    4  A    between atoms: O_10  and  C_11
REMARK    5  A    between atoms: C_24  and  C_25
REMARK    6  A    between atoms: C_24  and  C_26
REMARK                            x       y       z     vdW  Elec       q    Type
REMARK                         _______ _______ _______ _____ _____    ______ ____
ROOT
ATOM      1  C   UNL     1      -3.404  11.137  18.341  0.00  0.00    +0.000 C 
ATOM      2  C   UNL     1      -2.879  12.241  18.898  0.00  0.00    +0.000 C 
ATOM      3  C   UNL     1      -1.482  12.231  18.517  0.00  0.00    +0.000 C 
ATOM      4  O   UNL     1      -1.149  12.830  17.486  0.00  0.00    +0.000 OA
ATOM      5  C   UNL     1      -0.645  11.132  19.207  0.00  0.00    +0.000 C 
ATOM      6  C   UNL     1      -1.179  10.014  18.286  0.00  0.00    +0.000 C 
ATOM      7  C   UNL     1      -2.480  10.063  17.823  0.00  0.00    +0.000 C 
ATOM      8  O   UNL     1      -0.950  10.747  20.551  0.00  0.00    +0.000 OA
ATOM      9  C   UNL     1      -0.012  11.371  21.447  0.00  0.00    +0.000 C 
ATOM     10  C   UNL     1       1.310  11.497  20.695  0.00  0.00    +0.000 C 
ATOM     11  O   UNL     1       2.158  12.558  21.272  0.00  0.00    +0.000 OA
ATOM     12  C   UNL     1       2.644  13.548  20.431  0.00  0.00    +0.000 A 
ATOM     13  C   UNL     1       2.150  13.670  19.143  0.00  0.00    +0.000 A 
ATOM     14  C   UNL     1       2.499  14.621  18.191  0.00  0.00    +0.000 A 
ATOM     15  C   UNL     1       3.441  15.547  18.556  0.00  0.00    +0.000 A 
ATOM     16  C   UNL     1       3.920  15.521  19.866  0.00  0.00    +0.000 A 
ATOM     17  C   UNL     1       3.486  14.577  20.840  0.00  0.00    +0.000 A 
ATOM     18  C   UNL     1       3.826  14.873  22.234  0.00  0.00    +0.000 C 
ATOM     19  C   UNL     1       4.877  15.683  22.441  0.00  0.00    +0.000 C 
ATOM     20  C   UNL     1       5.691  16.182  21.265  0.00  0.00    +0.000 C 
ATOM     21  C   UNL     1       6.710  15.118  20.814  0.00  0.00    +0.000 C 
ATOM     22  C   UNL     1       6.426  17.486  21.578  0.00  0.00    +0.000 C 
ATOM     23  O   UNL     1       4.827  16.508  20.160  0.00  0.00    +0.000 OA
ATOM     24  C   UNL     1       0.838  13.134  19.138  0.00  0.00    +0.000 C 
ATOM     25  O   UNL     1      -0.033  13.927  19.475  0.00  0.00    +0.000 OA
ATOM     26  C   UNL     1       0.802  11.644  19.252  0.00  0.00    +0.000 C 
ENDROOT
BRANCH   1  28
ATOM     27  C   UNL     1      -5.436  11.897  17.328  0.00  0.00    +0.000 C 
ATOM     28  O   UNL     1      -4.753  10.940  18.146  0.00  0.00    +0.000 OA
ENDBRANCH   1  28
BRANCH   7  29
ATOM     29  O   UNL     1      -3.046   9.317  16.820  0.00  0.00    +0.000 OA
ATOM     30  C   UNL     1      -2.934   9.755  15.475  0.00  0.00    +0.000 C 
ENDBRANCH   7  29
TORSDOF 2
ENDMDL
MODEL 6
REMARK VINA RESULT:      -6.3      1.580      1.785
REMARK  Name = 
REMARK  6 active torsions:
REMARK  status: ('A' for Active; 'I' for Inactive)
REMARK    1  A    between atoms: C_1  and  O_2
REMARK    2  A    between atoms: O_2  and  C_3
REMARK    3  A    between atoms: C_9  and  O_10
REMARK    4  A    between atoms: O_10  and  C_11
REMARK    5  A    between atoms: C_24  and  C_25
REMARK    6  A    between atoms: C_24  and  C_26
REMARK                            x       y       z     vdW  Elec       q    Type
REMARK                         _______ _______ _______ _____ _____    ______ ____
ROOT
ATOM      1  C   UNL     1       0.039  15.465  21.431  0.00  0.00    +0.000 C 
ATOM      2  C   UNL     1       0.985  14.513  21.498  0.00  0.00    +0.000 C 
ATOM      3  C   UNL     1       0.630  13.550  20.477  0.00  0.00    +0.000 C 
ATOM      4  O   UNL     1       1.120  13.682  19.349  0.00  0.00    +0.000 OA
ATOM      5  C   UNL     1      -0.635  12.725  20.798  0.00  0.00    +0.000 C 
ATOM      6  C   UNL     1      -1.596  13.873  20.425  0.00  0.00    +0.000 C 
ATOM      7  C   UNL     1      -1.233  15.184  20.669  0.00  0.00    +0.000 C 
ATOM      8  O   UNL     1      -0.922  12.364  22.153  0.00  0.00    +0.000 OA
ATOM      9  C   UNL     1      -0.539  10.993  22.370  0.00  0.00    +0.000 C 
ATOM     10  C   UNL     1      -0.747  10.256  21.050  0.00  0.00    +0.000 C 
ATOM     11  O   UNL     1       0.078   9.034  20.980  0.00  0.00    +0.000 OA
ATOM     12  C   UNL     1       0.911   8.860  19.885  0.00  0.00    +0.000 A 
ATOM     13  C   UNL     1       1.140   9.910  19.012  0.00  0.00    +0.000 A 
ATOM     14  C   UNL     1       1.968   9.916  17.895  0.00  0.00    +0.000 A 
ATOM     15  C   UNL     1       2.638   8.753  17.615  0.00  0.00    +0.000 A 
ATOM     16  C   UNL     1       2.507   7.685  18.502  0.00  0.00    +0.000 A 
ATOM     17  C   UNL     1       1.706   7.738  19.678  0.00  0.00    +0.000 A 
ATOM     18  C   UNL     1       1.921   6.675  20.663  0.00  0.00    +0.000 C 
ATOM     19  C   UNL     1       2.450   5.528  20.209  0.00  0.00    +0.000 C 
ATOM     20  C   UNL     1       2.725   5.354  18.729  0.00  0.00    +0.000 C 
ATOM     21  C   UNL     1       1.440   4.959  17.977  0.00  0.00    +0.000 C 
ATOM     22  C   UNL     1       3.811   4.314  18.457  0.00  0.00    +0.000 C 
ATOM     23  O   UNL     1       3.243   6.576  18.169  0.00  0.00    +0.000 OA
ATOM     24  C   UNL     1       0.942  11.114  19.733  0.00  0.00    +0.000 C 
ATOM     25  O   UNL     1       1.927  11.502  20.349  0.00  0.00    +0.000 OA
ATOM     26  C   UNL     1      -0.492  11.392  20.048  0.00  0.00    +0.000 C 
ENDROOT
BRANCH   1  28
ATOM     27  C   UNL     1      -0.192  16.896  23.336  0.00  0.00    +0.000 C 
ATOM     28  O   UNL     1       0.178  16.727  21.963  0.00  0.00    +0.000 OA
ENDBRANCH   1  28
BRANCH   7  29
ATOM     29  O   UNL     1      -1.826  16.326  20.192  0.00  0.00    +0.000 OA
ATOM     30  C   UNL     1      -1.274  16.979  19.060  0.00  0.00    +0.000 C 
ENDBRANCH   7  29
TORSDOF 2
ENDMDL
MODEL 7
REMARK VINA RESULT:      -6.0      1.397      2.945
REMARK  Name = 
REMARK  6 active torsions:
REMARK  status: ('A' for Active; 'I' for Inactive)
REMARK    1  A    between atoms: C_1  and  O_2
REMARK    2  A    between atoms: O_2  and  C_3
REMARK    3  A    between atoms: C_9  and  O_10
REMARK    4  A    between atoms: O_10  and  C_11
REMARK    5  A    between atoms: C_24  and  C_25
REMARK    6  A    between atoms: C_24  and  C_26
REMARK                            x       y       z     vdW  Elec       q    Type
REMARK                         _______ _______ _______ _____ _____    ______ ____
ROOT
ATOM      1  C   UNL     1      -2.718  13.889  21.097  0.00  0.00    +0.000 C 
ATOM      2  C   UNL     1      -2.665  12.700  20.473  0.00  0.00    +0.000 C 
ATOM      3  C   UNL     1      -1.484  12.047  20.999  0.00  0.00    +0.000 C 
ATOM      4  O   UNL     1      -1.612  11.306  21.982  0.00  0.00    +0.000 OA
ATOM      5  C   UNL     1      -0.153  12.677  20.537  0.00  0.00    +0.000 C 
ATOM      6  C   UNL     1      -0.260  13.862  21.520  0.00  0.00    +0.000 C 
ATOM      7  C   UNL     1      -1.500  14.388  21.833  0.00  0.00    +0.000 C 
ATOM      8  O   UNL     1      -0.050  13.233  19.222  0.00  0.00    +0.000 OA
ATOM      9  C   UNL     1       0.631  12.300  18.364  0.00  0.00    +0.000 C 
ATOM     10  C   UNL     1       1.630  11.540  19.232  0.00  0.00    +0.000 C 
ATOM     11  O   UNL     1       1.990  10.242  18.628  0.00  0.00    +0.000 OA
ATOM     12  C   UNL     1       1.852   9.095  19.394  0.00  0.00    +0.000 A 
ATOM     13  C   UNL     1       1.170   9.140  20.599  0.00  0.00    +0.000 A 
ATOM     14  C   UNL     1       0.912   8.084  21.465  0.00  0.00    +0.000 A 
ATOM     15  C   UNL     1       1.384   6.851  21.096  0.00  0.00    +0.000 A 
ATOM     16  C   UNL     1       2.012   6.727  19.856  0.00  0.00    +0.000 A 
ATOM     17  C   UNL     1       2.195   7.819  18.960  0.00  0.00    +0.000 A 
ATOM     18  C   UNL     1       2.570   7.478  17.585  0.00  0.00    +0.000 C 
ATOM     19  C   UNL     1       3.166   6.290  17.398  0.00  0.00    +0.000 C 
ATOM     20  C   UNL     1       3.487   5.408  18.586  0.00  0.00    +0.000 C 
ATOM     21  C   UNL     1       4.794   5.859  19.265  0.00  0.00    +0.000 C 
ATOM     22  C   UNL     1       3.599   3.932  18.203  0.00  0.00    +0.000 C 
ATOM     23  O   UNL     1       2.415   5.453  19.548  0.00  0.00    +0.000 OA
ATOM     24  C   UNL     1       0.251  10.217  20.527  0.00  0.00    +0.000 C 
ATOM     25  O   UNL     1      -0.822   9.932  20.009  0.00  0.00    +0.000 OA
ATOM     26  C   UNL     1       0.901  11.561  20.585  0.00  0.00    +0.000 C 
ENDROOT
BRANCH   1  28
ATOM     27  C   UNL     1      -5.002  14.088  21.786  0.00  0.00    +0.000 C 
ATOM     28  O   UNL     1      -3.849  14.671  21.168  0.00  0.00    +0.000 OA
ENDBRANCH   1  28
BRANCH   7  29
ATOM     29  O   UNL     1      -1.814  15.254  22.851  0.00  0.00    +0.000 OA
ATOM     30  C   UNL     1      -1.780  14.795  24.193  0.00  0.00    +0.000 C 
ENDBRANCH   7  29
TORSDOF 2
ENDMDL
MODEL 8
REMARK VINA RESULT:      -5.7      2.590      8.959
REMARK  Name = 
REMARK  6 active torsions:
REMARK  status: ('A' for Active; 'I' for Inactive)
REMARK    1  A    between atoms: C_1  and  O_2
REMARK    2  A    between atoms: O_2  and  C_3
REMARK    3  A    between atoms: C_9  and  O_10
REMARK    4  A    between atoms: O_10  and  C_11
REMARK    5  A    between atoms: C_24  and  C_25
REMARK    6  A    between atoms: C_24  and  C_26
REMARK                            x       y       z     vdW  Elec       q    Type
REMARK                         _______ _______ _______ _____ _____    ______ ____
ROOT
ATOM      1  C   UNL     1       0.252  10.045  18.459  0.00  0.00    +0.000 C 
ATOM      2  C   UNL     1       0.771  10.607  19.564  0.00  0.00    +0.000 C 
ATOM      3  C   UNL     1      -0.287  11.437  20.102  0.00  0.00    +0.000 C 
ATOM      4  O   UNL     1      -1.048  10.946  20.945  0.00  0.00    +0.000 OA
ATOM      5  C   UNL     1      -0.599  12.691  19.257  0.00  0.00    +0.000 C 
ATOM      6  C   UNL     1      -1.395  11.900  18.198  0.00  0.00    +0.000 C 
ATOM      7  C   UNL     1      -1.019  10.609  17.875  0.00  0.00    +0.000 C 
ATOM      8  O   UNL     1       0.461  13.363  18.567  0.00  0.00    +0.000 OA
ATOM      9  C   UNL     1       0.846  14.532  19.314  0.00  0.00    +0.000 C 
ATOM     10  C   UNL     1      -0.406  15.050  20.014  0.00  0.00    +0.000 C 
ATOM     11  O   UNL     1      -0.064  15.878  21.187  0.00  0.00    +0.000 OA
ATOM     12  C   UNL     1      -0.630  15.556  22.411  0.00  0.00    +0.000 A 
ATOM     13  C   UNL     1      -1.299  14.355  22.574  0.00  0.00    +0.000 A 
ATOM     14  C   UNL     1      -1.888  13.866  23.735  0.00  0.00    +0.000 A 
ATOM     15  C   UNL     1      -1.805  14.656  24.852  0.00  0.00    +0.000 A 
ATOM     16  C   UNL     1      -1.076  15.843  24.769  0.00  0.00    +0.000 A 
ATOM     17  C   UNL     1      -0.423  16.279  23.581  0.00  0.00    +0.000 A 
ATOM     18  C   UNL     1       0.556  17.358  23.734  0.00  0.00    +0.000 C 
ATOM     19  C   UNL     1       0.419  18.152  24.808  0.00  0.00    +0.000 C 
ATOM     20  C   UNL     1      -0.750  17.955  25.750  0.00  0.00    +0.000 C 
ATOM     21  C   UNL     1      -2.019  18.631  25.197  0.00  0.00    +0.000 C 
ATOM     22  C   UNL     1      -0.464  18.490  27.154  0.00  0.00    +0.000 C 
ATOM     23  O   UNL     1      -1.009  16.551  25.943  0.00  0.00    +0.000 OA
ATOM     24  C   UNL     1      -0.770  13.441  21.629  0.00  0.00    +0.000 C 
ATOM     25  O   UNL     1       0.236  12.852  22.002  0.00  0.00    +0.000 OA
ATOM     26  C   UNL     1      -1.178  13.737  20.221  0.00  0.00    +0.000 C 
ENDROOT
BRANCH   1  28
ATOM     27  C   UNL     1       2.202   8.824  17.794  0.00  0.00    +0.000 C 
ATOM     28  O   UNL     1       0.774   8.928  17.846  0.00  0.00    +0.000 OA
ENDBRANCH   1  28
BRANCH   7  29
ATOM     29  O   UNL     1      -1.732   9.678  17.162  0.00  0.00    +0.000 OA
ATOM     30  C   UNL     1      -2.924  10.069  16.498  0.00  0.00    +0.000 C 
ENDBRANCH   7  29
TORSDOF 2
ENDMDL
MODEL 9
REMARK VINA RESULT:      -5.7      4.743      6.585
REMARK  Name = 
REMARK  6 active torsions:
REMARK  status: ('A' for Active; 'I' for Inactive)
REMARK    1  A    between atoms: C_1  and  O_2
REMARK    2  A    between atoms: O_2  and  C_3
REMARK    3  A    between atoms: C_9  and  O_10
REMARK    4  A    between atoms: O_10  and  C_11
REMARK    5  A    between atoms: C_24  and  C_25
REMARK    6  A    between atoms: C_24  and  C_26
REMARK                            x       y       z     vdW  Elec       q    Type
REMARK                         _______ _______ _______ _____ _____    ______ ____
ROOT
ATOM      1  C   UNL     1      -5.371  13.637  22.398  0.00  0.00    +0.000 C 
ATOM      2  C   UNL     1      -4.260  14.352  22.643  0.00  0.00    +0.000 C 
ATOM      3  C   UNL     1      -3.536  14.372  21.389  0.00  0.00    +0.000 C 
ATOM      4  O   UNL     1      -3.735  15.314  20.610  0.00  0.00    +0.000 OA
ATOM      5  C   UNL     1      -2.923  13.012  20.989  0.00  0.00    +0.000 C 
ATOM      6  C   UNL     1      -4.272  12.437  20.507  0.00  0.00    +0.000 C 
ATOM      7  C   UNL     1      -5.444  12.798  21.146  0.00  0.00    +0.000 C 
ATOM      8  O   UNL     1      -2.432  12.130  22.004  0.00  0.00    +0.000 OA
ATOM      9  C   UNL     1      -0.997  12.232  22.065  0.00  0.00    +0.000 C 
ATOM     10  C   UNL     1      -0.508  12.537  20.652  0.00  0.00    +0.000 C 
ATOM     11  O   UNL     1       0.822  13.175  20.669  0.00  0.00    +0.000 OA
ATOM     12  C   UNL     1       0.990  14.375  19.996  0.00  0.00    +0.000 A 
ATOM     13  C   UNL     1      -0.114  15.071  19.531  0.00  0.00    +0.000 A 
ATOM     14  C   UNL     1      -0.125  16.296  18.873  0.00  0.00    +0.000 A 
ATOM     15  C   UNL     1       1.089  16.892  18.652  0.00  0.00    +0.000 A 
ATOM     16  C   UNL     1       2.231  16.276  19.166  0.00  0.00    +0.000 A 
ATOM     17  C   UNL     1       2.199  15.055  19.899  0.00  0.00    +0.000 A 
ATOM     18  C   UNL     1       3.414  14.708  20.641  0.00  0.00    +0.000 C 
ATOM     19  C   UNL     1       4.562  15.255  20.211  0.00  0.00    +0.000 C 
ATOM     20  C   UNL     1       4.569  16.122  18.970  0.00  0.00    +0.000 C 
ATOM     21  C   UNL     1       4.607  15.255  17.697  0.00  0.00    +0.000 C 
ATOM     22  C   UNL     1       5.744  17.100  18.950  0.00  0.00    +0.000 C 
ATOM     23  O   UNL     1       3.398  16.960  18.936  0.00  0.00    +0.000 OA
ATOM     24  C   UNL     1      -1.217  14.712  20.344  0.00  0.00    +0.000 C 
ATOM     25  O   UNL     1      -1.322  15.368  21.372  0.00  0.00    +0.000 OA
ATOM     26  C   UNL     1      -1.710  13.321  20.101  0.00  0.00    +0.000 C 
ENDROOT
BRANCH   1  28
ATOM     27  C   UNL     1      -6.621  12.634  24.176  0.00  0.00    +0.000 C 
ATOM     28  O   UNL     1      -6.496  13.666  23.191  0.00  0.00    +0.000 OA
ENDBRANCH   1  28
BRANCH   7  29
ATOM     29  O   UNL     1      -6.732  12.596  20.719  0.00  0.00    +0.000 OA
ATOM     30  C   UNL     1      -7.191  11.274  20.483  0.00  0.00    +0.000 C 
ENDBRANCH   7  29
TORSDOF 2
ENDMDL
