MODEL 1
REMARK VINA RESULT:      -8.4      0.000      0.000
REMARK  Name = 
REMARK  4 active torsions:
REMARK  status: ('A' for Active; 'I' for Inactive)
REMARK    1  A    between atoms: C_5  and  N_6
REMARK    2  A    between atoms: N_6  and  C_7
REMARK    3  A    between atoms: C_10  and  C_11
REMARK    4  A    between atoms: C_11  and  C_12
REMARK                            x       y       z     vdW  Elec       q    Type
REMARK                         _______ _______ _______ _____ _____    ______ ____
ROOT
ATOM      1  C   UNL     1       1.686   8.584  19.772  0.00  0.00    +0.000 A 
ATOM      2  N   UNL     1       1.607   8.991  18.489  0.00  0.00    +0.000 NA
ATOM      3  N   UNL     1       0.830  10.046  18.135  0.00  0.00    +0.000 NA
ATOM      4  C   UNL     1       0.070  10.669  19.063  0.00  0.00    +0.000 A 
ATOM      5  C   UNL     1       0.073  10.270  20.415  0.00  0.00    +0.000 A 
ATOM      6  C   UNL     1      -0.775  10.820  21.409  0.00  0.00    +0.000 A 
ATOM      7  C   UNL     1      -0.701  10.414  22.742  0.00  0.00    +0.000 A 
ATOM      8  C   UNL     1       0.235   9.467  23.125  0.00  0.00    +0.000 A 
ATOM      9  C   UNL     1       1.051   8.878  22.159  0.00  0.00    +0.000 A 
ATOM     10  C   UNL     1       0.966   9.239  20.791  0.00  0.00    +0.000 A 
ENDROOT
BRANCH   1  11
ATOM     11  N   UNL     1       2.460   7.436  20.074  0.00  0.00    +0.000 N 
ATOM     12  H   UNL     1       3.447   7.648  20.018  0.00  0.00    +0.000 HD
BRANCH  11  17
ATOM     13 CL   UNL     1       0.706   1.945  18.641  0.00  0.00    +0.000 Cl
ATOM     14  C   UNL     1       1.245   3.524  19.060  0.00  0.00    +0.000 A 
ATOM     15  C   UNL     1       1.060   4.002  20.357  0.00  0.00    +0.000 A 
ATOM     16  C   UNL     1       1.481   5.293  20.694  0.00  0.00    +0.000 A 
ATOM     17  C   UNL     1       2.111   6.110  19.747  0.00  0.00    +0.000 A 
ATOM     18  C   UNL     1       2.270   5.612  18.443  0.00  0.00    +0.000 A 
ATOM     19  C   UNL     1       1.848   4.326  18.099  0.00  0.00    +0.000 A 
ENDBRANCH  11  17
ENDBRANCH   1  11
BRANCH   4  20
ATOM     20  C   UNL     1      -0.681  11.869  18.535  0.00  0.00    +0.000 C 
BRANCH  20  21
ATOM     21  C   UNL     1      -2.078  11.535  18.076  0.00  0.00    +0.000 A 
ATOM     22  C   UNL     1      -2.315  10.896  16.853  0.00  0.00    +0.000 A 
ATOM     23  C   UNL     1      -3.622  10.656  16.437  0.00  0.00    +0.000 A 
ATOM     24  C   UNL     1      -4.655  11.053  17.269  0.00  0.00    +0.000 A 
ATOM     25  N   UNL     1      -4.468  11.643  18.469  0.00  0.00    +0.000 NA
ATOM     26  C   UNL     1      -3.188  11.865  18.844  0.00  0.00    +0.000 A 
ENDBRANCH  20  21
ENDBRANCH   4  20
TORSDOF 4
ENDMDL
MODEL 2
REMARK VINA RESULT:      -8.3      2.623      6.788
REMARK  Name = 
REMARK  4 active torsions:
REMARK  status: ('A' for Active; 'I' for Inactive)
REMARK    1  A    between atoms: C_5  and  N_6
REMARK    2  A    between atoms: N_6  and  C_7
REMARK    3  A    between atoms: C_10  and  C_11
REMARK    4  A    between atoms: C_11  and  C_12
REMARK                            x       y       z     vdW  Elec       q    Type
REMARK                         _______ _______ _______ _____ _____    ______ ____
ROOT
ATOM      1  C   UNL     1       0.561   9.886  18.409  0.00  0.00    +0.000 A 
ATOM      2  N   UNL     1       1.277   9.208  17.490  0.00  0.00    +0.000 NA
ATOM      3  N   UNL     1       2.047   8.148  17.844  0.00  0.00    +0.000 NA
ATOM      4  C   UNL     1       2.156   7.794  19.144  0.00  0.00    +0.000 A 
ATOM      5  C   UNL     1       1.467   8.485  20.162  0.00  0.00    +0.000 A 
ATOM      6  C   UNL     1       1.621   8.222  21.546  0.00  0.00    +0.000 A 
ATOM      7  C   UNL     1       0.882   8.911  22.510  0.00  0.00    +0.000 A 
ATOM      8  C   UNL     1      -0.046   9.863  22.118  0.00  0.00    +0.000 A 
ATOM      9  C   UNL     1      -0.184  10.172  20.765  0.00  0.00    +0.000 A 
ATOM     10  C   UNL     1       0.585   9.519  19.769  0.00  0.00    +0.000 A 
ENDROOT
BRANCH   1  11
ATOM     11  N   UNL     1      -0.173  11.025  17.993  0.00  0.00    +0.000 N 
ATOM     12  H   UNL     1       0.289  11.873  18.292  0.00  0.00    +0.000 HD
BRANCH  11  17
ATOM     13 CL   UNL     1      -6.110  11.119  17.840  0.00  0.00    +0.000 Cl
ATOM     14  C   UNL     1      -4.390  11.118  17.865  0.00  0.00    +0.000 A 
ATOM     15  C   UNL     1      -3.682  10.270  17.016  0.00  0.00    +0.000 A 
ATOM     16  C   UNL     1      -2.283  10.255  17.048  0.00  0.00    +0.000 A 
ATOM     17  C   UNL     1      -1.578  11.103  17.911  0.00  0.00    +0.000 A 
ATOM     18  C   UNL     1      -2.316  11.936  18.770  0.00  0.00    +0.000 A 
ATOM     19  C   UNL     1      -3.712  11.952  18.746  0.00  0.00    +0.000 A 
ENDBRANCH  11  17
ENDBRANCH   1  11
BRANCH   4  20
ATOM     20  C   UNL     1       2.986   6.553  19.374  0.00  0.00    +0.000 C 
BRANCH  20  21
ATOM     21  C   UNL     1       2.185   5.279  19.263  0.00  0.00    +0.000 A 
ATOM     22  C   UNL     1       1.618   4.669  20.389  0.00  0.00    +0.000 A 
ATOM     23  C   UNL     1       0.935   3.464  20.254  0.00  0.00    +0.000 A 
ATOM     24  C   UNL     1       0.828   2.912  18.990  0.00  0.00    +0.000 A 
ATOM     25  N   UNL     1       1.333   3.484  17.875  0.00  0.00    +0.000 NA
ATOM     26  C   UNL     1       1.993   4.652  18.038  0.00  0.00    +0.000 A 
ENDBRANCH  20  21
ENDBRANCH   4  20
TORSDOF 4
ENDMDL
MODEL 3
REMARK VINA RESULT:      -8.3      3.633      8.098
REMARK  Name = 
REMARK  4 active torsions:
REMARK  status: ('A' for Active; 'I' for Inactive)
REMARK    1  A    between atoms: C_5  and  N_6
REMARK    2  A    between atoms: N_6  and  C_7
REMARK    3  A    between atoms: C_10  and  C_11
REMARK    4  A    between atoms: C_11  and  C_12
REMARK                            x       y       z     vdW  Elec       q    Type
REMARK                         _______ _______ _______ _____ _____    ______ ____
ROOT
ATOM      1  C   UNL     1       2.570   6.433  19.607  0.00  0.00    +0.000 A 
ATOM      2  N   UNL     1       3.269   6.841  18.529  0.00  0.00    +0.000 NA
ATOM      3  N   UNL     1       3.663   5.960  17.575  0.00  0.00    +0.000 NA
ATOM      4  C   UNL     1       3.411   4.640  17.725  0.00  0.00    +0.000 A 
ATOM      5  C   UNL     1       2.721   4.140  18.849  0.00  0.00    +0.000 A 
ATOM      6  C   UNL     1       2.517   2.761  19.107  0.00  0.00    +0.000 A 
ATOM      7  C   UNL     1       1.790   2.323  20.216  0.00  0.00    +0.000 A 
ATOM      8  C   UNL     1       1.228   3.246  21.082  0.00  0.00    +0.000 A 
ATOM      9  C   UNL     1       1.452   4.607  20.875  0.00  0.00    +0.000 A 
ATOM     10  C   UNL     1       2.223   5.078  19.782  0.00  0.00    +0.000 A 
ENDROOT
BRANCH   1  11
ATOM     11  N   UNL     1       2.243   7.385  20.605  0.00  0.00    +0.000 N 
ATOM     12  H   UNL     1       2.297   6.968  21.525  0.00  0.00    +0.000 HD
BRANCH  11  17
ATOM     13 CL   UNL     1      -1.574  11.913  20.148  0.00  0.00    +0.000 Cl
ATOM     14  C   UNL     1      -0.490  10.582  20.265  0.00  0.00    +0.000 A 
ATOM     15  C   UNL     1      -0.409   9.853  21.450  0.00  0.00    +0.000 A 
ATOM     16  C   UNL     1       0.486   8.781  21.553  0.00  0.00    +0.000 A 
ATOM     17  C   UNL     1       1.289   8.414  20.466  0.00  0.00    +0.000 A 
ATOM     18  C   UNL     1       1.201   9.176  19.289  0.00  0.00    +0.000 A 
ATOM     19  C   UNL     1       0.313  10.249  19.182  0.00  0.00    +0.000 A 
ENDBRANCH  11  17
ENDBRANCH   1  11
BRANCH   4  20
ATOM     20  C   UNL     1       3.842   3.796  16.550  0.00  0.00    +0.000 C 
BRANCH  20  21
ATOM     21  C   UNL     1       5.170   4.221  15.973  0.00  0.00    +0.000 A 
ATOM     22  C   UNL     1       5.342   4.421  14.598  0.00  0.00    +0.000 A 
ATOM     23  C   UNL     1       6.596   4.757  14.097  0.00  0.00    +0.000 A 
ATOM     24  C   UNL     1       7.641   4.897  14.994  0.00  0.00    +0.000 A 
ATOM     25  N   UNL     1       7.510   4.744  16.329  0.00  0.00    +0.000 NA
ATOM     26  C   UNL     1       6.280   4.415  16.785  0.00  0.00    +0.000 A 
ENDBRANCH  20  21
ENDBRANCH   4  20
TORSDOF 4
ENDMDL
MODEL 4
REMARK VINA RESULT:      -8.3      3.654      8.174
REMARK  Name = 
REMARK  4 active torsions:
REMARK  status: ('A' for Active; 'I' for Inactive)
REMARK    1  A    between atoms: C_5  and  N_6
REMARK    2  A    between atoms: N_6  and  C_7
REMARK    3  A    between atoms: C_10  and  C_11
REMARK    4  A    between atoms: C_11  and  C_12
REMARK                            x       y       z     vdW  Elec       q    Type
REMARK                         _______ _______ _______ _____ _____    ______ ____
ROOT
ATOM      1  C   UNL     1       2.600   6.436  19.479  0.00  0.00    +0.000 A 
ATOM      2  N   UNL     1       3.345   6.787  18.411  0.00  0.00    +0.000 NA
ATOM      3  N   UNL     1       3.782   5.856  17.526  0.00  0.00    +0.000 NA
ATOM      4  C   UNL     1       3.527   4.546  17.738  0.00  0.00    +0.000 A 
ATOM      5  C   UNL     1       2.789   4.105  18.856  0.00  0.00    +0.000 A 
ATOM      6  C   UNL     1       2.578   2.742  19.182  0.00  0.00    +0.000 A 
ATOM      7  C   UNL     1       1.804   2.363  20.280  0.00  0.00    +0.000 A 
ATOM      8  C   UNL     1       1.202   3.330  21.068  0.00  0.00    +0.000 A 
ATOM      9  C   UNL     1       1.432   4.678  20.796  0.00  0.00    +0.000 A 
ATOM     10  C   UNL     1       2.249   5.092  19.714  0.00  0.00    +0.000 A 
ENDROOT
BRANCH   1  11
ATOM     11  N   UNL     1       2.228   7.440  20.407  0.00  0.00    +0.000 N 
ATOM     12  H   UNL     1       2.149   7.052  21.338  0.00  0.00    +0.000 HD
BRANCH  11  17
ATOM     13 CL   UNL     1      -1.588  11.810  19.132  0.00  0.00    +0.000 Cl
ATOM     14  C   UNL     1      -0.463  10.566  19.515  0.00  0.00    +0.000 A 
ATOM     15  C   UNL     1       0.439  10.122  18.550  0.00  0.00    +0.000 A 
ATOM     16  C   UNL     1       1.343   9.098  18.856  0.00  0.00    +0.000 A 
ATOM     17  C   UNL     1       1.369   8.524  20.133  0.00  0.00    +0.000 A 
ATOM     18  C   UNL     1       0.438   8.978  21.083  0.00  0.00    +0.000 A 
ATOM     19  C   UNL     1      -0.469   9.996  20.783  0.00  0.00    +0.000 A 
ENDBRANCH  11  17
ENDBRANCH   1  11
BRANCH   4  20
ATOM     20  C   UNL     1       4.011   3.640  16.630  0.00  0.00    +0.000 C 
BRANCH  20  21
ATOM     21  C   UNL     1       5.274   4.135  15.972  0.00  0.00    +0.000 A 
ATOM     22  C   UNL     1       5.344   4.357  14.591  0.00  0.00    +0.000 A 
ATOM     23  C   UNL     1       6.544   4.759  14.013  0.00  0.00    +0.000 A 
ATOM     24  C   UNL     1       7.638   4.942  14.839  0.00  0.00    +0.000 A 
ATOM     25  N   UNL     1       7.605   4.769  16.179  0.00  0.00    +0.000 NA
ATOM     26  C   UNL     1       6.426   4.376  16.711  0.00  0.00    +0.000 A 
ENDBRANCH  20  21
ENDBRANCH   4  20
TORSDOF 4
ENDMDL
MODEL 5
REMARK VINA RESULT:      -8.1      0.761      1.439
REMARK  Name = 
REMARK  4 active torsions:
REMARK  status: ('A' for Active; 'I' for Inactive)
REMARK    1  A    between atoms: C_5  and  N_6
REMARK    2  A    between atoms: N_6  and  C_7
REMARK    3  A    between atoms: C_10  and  C_11
REMARK    4  A    between atoms: C_11  and  C_12
REMARK                            x       y       z     vdW  Elec       q    Type
REMARK                         _______ _______ _______ _____ _____    ______ ____
ROOT
ATOM      1  C   UNL     1       1.475   8.674  20.120  0.00  0.00    +0.000 A 
ATOM      2  N   UNL     1       1.482   9.041  18.822  0.00  0.00    +0.000 NA
ATOM      3  N   UNL     1       0.770  10.114  18.394  0.00  0.00    +0.000 NA
ATOM      4  C   UNL     1      -0.011  10.799  19.260  0.00  0.00    +0.000 A 
ATOM      5  C   UNL     1      -0.096  10.444  20.622  0.00  0.00    +0.000 A 
ATOM      6  C   UNL     1      -0.972  11.061  21.550  0.00  0.00    +0.000 A 
ATOM      7  C   UNL     1      -0.986  10.697  22.898  0.00  0.00    +0.000 A 
ATOM      8  C   UNL     1      -0.113   9.726  23.360  0.00  0.00    +0.000 A 
ATOM      9  C   UNL     1       0.727   9.072  22.459  0.00  0.00    +0.000 A 
ATOM     10  C   UNL     1       0.730   9.391  21.077  0.00  0.00    +0.000 A 
ENDROOT
BRANCH   1  11
ATOM     11  N   UNL     1       2.183   7.506  20.499  0.00  0.00    +0.000 N 
ATOM     12  H   UNL     1       3.104   7.744  20.843  0.00  0.00    +0.000 HD
BRANCH  11  17
ATOM     13 CL   UNL     1       2.047   2.155  17.924  0.00  0.00    +0.000 Cl
ATOM     14  C   UNL     1       2.056   3.710  18.659  0.00  0.00    +0.000 A 
ATOM     15  C   UNL     1       2.675   4.781  18.015  0.00  0.00    +0.000 A 
ATOM     16  C   UNL     1       2.699   6.043  18.620  0.00  0.00    +0.000 A 
ATOM     17  C   UNL     1       2.085   6.252  19.861  0.00  0.00    +0.000 A 
ATOM     18  C   UNL     1       1.483   5.153  20.498  0.00  0.00    +0.000 A 
ATOM     19  C   UNL     1       1.460   3.891  19.901  0.00  0.00    +0.000 A 
ENDBRANCH  11  17
ENDBRANCH   1  11
BRANCH   4  20
ATOM     20  C   UNL     1      -0.681  12.010  18.655  0.00  0.00    +0.000 C 
BRANCH  20  21
ATOM     21  C   UNL     1      -2.072  11.722  18.147  0.00  0.00    +0.000 A 
ATOM     22  C   UNL     1      -3.203  11.944  18.942  0.00  0.00    +0.000 A 
ATOM     23  C   UNL     1      -4.466  11.613  18.460  0.00  0.00    +0.000 A 
ATOM     24  C   UNL     1      -4.559  11.081  17.185  0.00  0.00    +0.000 A 
ATOM     25  N   UNL     1      -3.497  10.881  16.376  0.00  0.00    +0.000 NA
ATOM     26  C   UNL     1      -2.284  11.210  16.873  0.00  0.00    +0.000 A 
ENDBRANCH  20  21
ENDBRANCH   4  20
TORSDOF 4
ENDMDL
MODEL 6
REMARK VINA RESULT:      -7.9      3.583      8.073
REMARK  Name = 
REMARK  4 active torsions:
REMARK  status: ('A' for Active; 'I' for Inactive)
REMARK    1  A    between atoms: C_5  and  N_6
REMARK    2  A    between atoms: N_6  and  C_7
REMARK    3  A    between atoms: C_10  and  C_11
REMARK    4  A    between atoms: C_11  and  C_12
REMARK                            x       y       z     vdW  Elec       q    Type
REMARK                         _______ _______ _______ _____ _____    ______ ____
ROOT
ATOM      1  C   UNL     1       2.312   6.445  19.885  0.00  0.00    +0.000 A 
ATOM      2  N   UNL     1       2.933   6.994  18.822  0.00  0.00    +0.000 NA
ATOM      3  N   UNL     1       3.339   6.230  17.776  0.00  0.00    +0.000 NA
ATOM      4  C   UNL     1       3.179   4.888  17.814  0.00  0.00    +0.000 A 
ATOM      5  C   UNL     1       2.574   4.244  18.913  0.00  0.00    +0.000 A 
ATOM      6  C   UNL     1       2.470   2.837  19.052  0.00  0.00    +0.000 A 
ATOM      7  C   UNL     1       1.824   2.254  20.143  0.00  0.00    +0.000 A 
ATOM      8  C   UNL     1       1.244   3.057  21.112  0.00  0.00    +0.000 A 
ATOM      9  C   UNL     1       1.372   4.443  21.023  0.00  0.00    +0.000 A 
ATOM     10  C   UNL     1       2.061   5.060  19.948  0.00  0.00    +0.000 A 
ENDROOT
BRANCH   1  11
ATOM     11  N   UNL     1       1.971   7.280  20.978  0.00  0.00    +0.000 N 
ATOM     12  H   UNL     1       1.912   6.741  21.831  0.00  0.00    +0.000 HD
BRANCH  11  17
ATOM     13 CL   UNL     1      -1.405  12.164  20.797  0.00  0.00    +0.000 Cl
ATOM     14  C   UNL     1      -0.452  10.732  20.838  0.00  0.00    +0.000 A 
ATOM     15  C   UNL     1      -0.308  10.025  22.030  0.00  0.00    +0.000 A 
ATOM     16  C   UNL     1       0.482   8.870  22.068  0.00  0.00    +0.000 A 
ATOM     17  C   UNL     1       1.115   8.398  20.912  0.00  0.00    +0.000 A 
ATOM     18  C   UNL     1       0.968   9.139  19.727  0.00  0.00    +0.000 A 
ATOM     19  C   UNL     1       0.185  10.294  19.683  0.00  0.00    +0.000 A 
ENDBRANCH  11  17
ENDBRANCH   1  11
BRANCH   4  20
ATOM     20  C   UNL     1       3.608   4.183  16.549  0.00  0.00    +0.000 C 
BRANCH  20  21
ATOM     21  C   UNL     1       5.049   4.444  16.188  0.00  0.00    +0.000 A 
ATOM     22  C   UNL     1       6.079   4.288  17.124  0.00  0.00    +0.000 A 
ATOM     23  C   UNL     1       7.390   4.593  16.769  0.00  0.00    +0.000 A 
ATOM     24  C   UNL     1       7.632   5.034  15.480  0.00  0.00    +0.000 A 
ATOM     25  N   UNL     1       6.672   5.168  14.540  0.00  0.00    +0.000 NA
ATOM     26  C   UNL     1       5.409   4.866  14.914  0.00  0.00    +0.000 A 
ENDBRANCH  20  21
ENDBRANCH   4  20
TORSDOF 4
ENDMDL
MODEL 7
REMARK VINA RESULT:      -7.9      1.789      2.783
REMARK  Name = 
REMARK  4 active torsions:
REMARK  status: ('A' for Active; 'I' for Inactive)
REMARK    1  A    between atoms: C_5  and  N_6
REMARK    2  A    between atoms: N_6  and  C_7
REMARK    3  A    between atoms: C_10  and  C_11
REMARK    4  A    between atoms: C_11  and  C_12
REMARK                            x       y       z     vdW  Elec       q    Type
REMARK                         _______ _______ _______ _____ _____    ______ ____
ROOT
ATOM      1  C   UNL     1       1.668   8.532  19.842  0.00  0.00    +0.000 A 
ATOM      2  N   UNL     1       1.618   8.910  18.549  0.00  0.00    +0.000 NA
ATOM      3  N   UNL     1       0.866   9.970  18.157  0.00  0.00    +0.000 NA
ATOM      4  C   UNL     1       0.101  10.628  19.057  0.00  0.00    +0.000 A 
ATOM      5  C   UNL     1       0.075  10.260  20.418  0.00  0.00    +0.000 A 
ATOM      6  C   UNL     1      -0.780  10.847  21.385  0.00  0.00    +0.000 A 
ATOM      7  C   UNL     1      -0.736  10.471  22.728  0.00  0.00    +0.000 A 
ATOM      8  C   UNL     1       0.177   9.517  23.148  0.00  0.00    +0.000 A 
ATOM      9  C   UNL     1       0.998   8.891  22.210  0.00  0.00    +0.000 A 
ATOM     10  C   UNL     1       0.942   9.222  20.833  0.00  0.00    +0.000 A 
ENDROOT
BRANCH   1  11
ATOM     11  N   UNL     1       2.416   7.378  20.183  0.00  0.00    +0.000 N 
ATOM     12  H   UNL     1       3.406   7.587  20.196  0.00  0.00    +0.000 HD
BRANCH  11  17
ATOM     13 CL   UNL     1       0.741   1.905  18.593  0.00  0.00    +0.000 Cl
ATOM     14  C   UNL     1       1.257   3.479  19.057  0.00  0.00    +0.000 A 
ATOM     15  C   UNL     1       1.062   3.918  20.366  0.00  0.00    +0.000 A 
ATOM     16  C   UNL     1       1.464   5.205  20.740  0.00  0.00    +0.000 A 
ATOM     17  C   UNL     1       2.086   6.056  19.818  0.00  0.00    +0.000 A 
ATOM     18  C   UNL     1       2.255   5.597  18.501  0.00  0.00    +0.000 A 
ATOM     19  C   UNL     1       1.852   4.315  18.120  0.00  0.00    +0.000 A 
ENDBRANCH  11  17
ENDBRANCH   1  11
BRANCH   4  20
ATOM     20  C   UNL     1      -0.619  11.829  18.490  0.00  0.00    +0.000 C 
BRANCH  20  21
ATOM     21  C   UNL     1       0.162  13.111  18.640  0.00  0.00    +0.000 A 
ATOM     22  C   UNL     1       1.526  13.179  18.331  0.00  0.00    +0.000 A 
ATOM     23  C   UNL     1       2.225  14.365  18.537  0.00  0.00    +0.000 A 
ATOM     24  C   UNL     1       1.532  15.454  19.035  0.00  0.00    +0.000 A 
ATOM     25  N   UNL     1       0.211  15.438  19.316  0.00  0.00    +0.000 NA
ATOM     26  C   UNL     1      -0.441  14.272  19.108  0.00  0.00    +0.000 A 
ENDBRANCH  20  21
ENDBRANCH   4  20
TORSDOF 4
ENDMDL
MODEL 8
REMARK VINA RESULT:      -7.8      4.029      8.602
REMARK  Name = 
REMARK  4 active torsions:
REMARK  status: ('A' for Active; 'I' for Inactive)
REMARK    1  A    between atoms: C_5  and  N_6
REMARK    2  A    between atoms: N_6  and  C_7
REMARK    3  A    between atoms: C_10  and  C_11
REMARK    4  A    between atoms: C_11  and  C_12
REMARK                            x       y       z     vdW  Elec       q    Type
REMARK                         _______ _______ _______ _____ _____    ______ ____
ROOT
ATOM      1  C   UNL     1       3.168   5.907  19.412  0.00  0.00    +0.000 A 
ATOM      2  N   UNL     1       4.426   6.390  19.376  0.00  0.00    +0.000 NA
ATOM      3  N   UNL     1       5.430   5.685  18.796  0.00  0.00    +0.000 NA
ATOM      4  C   UNL     1       5.193   4.452  18.296  0.00  0.00    +0.000 A 
ATOM      5  C   UNL     1       3.909   3.869  18.337  0.00  0.00    +0.000 A 
ATOM      6  C   UNL     1       3.624   2.545  17.921  0.00  0.00    +0.000 A 
ATOM      7  C   UNL     1       2.326   2.032  17.946  0.00  0.00    +0.000 A 
ATOM      8  C   UNL     1       1.275   2.833  18.363  0.00  0.00    +0.000 A 
ATOM      9  C   UNL     1       1.535   4.125  18.821  0.00  0.00    +0.000 A 
ATOM     10  C   UNL     1       2.850   4.655  18.848  0.00  0.00    +0.000 A 
ENDROOT
BRANCH   1  11
ATOM     11  N   UNL     1       2.172   6.654  20.089  0.00  0.00    +0.000 N 
ATOM     12  H   UNL     1       1.428   6.048  20.408  0.00  0.00    +0.000 HD
BRANCH  11  17
ATOM     13 CL   UNL     1       0.257  12.078  18.611  0.00  0.00    +0.000 Cl
ATOM     14  C   UNL     1       0.838  10.521  19.052  0.00  0.00    +0.000 A 
ATOM     15  C   UNL     1       1.496   9.731  18.111  0.00  0.00    +0.000 A 
ATOM     16  C   UNL     1       1.954   8.456  18.464  0.00  0.00    +0.000 A 
ATOM     17  C   UNL     1       1.779   7.969  19.765  0.00  0.00    +0.000 A 
ATOM     18  C   UNL     1       1.097   8.777  20.691  0.00  0.00    +0.000 A 
ATOM     19  C   UNL     1       0.635  10.048  20.343  0.00  0.00    +0.000 A 
ENDBRANCH  11  17
ENDBRANCH   1  11
BRANCH   4  20
ATOM     20  C   UNL     1       6.388   3.825  17.617  0.00  0.00    +0.000 C 
BRANCH  20  21
ATOM     21  C   UNL     1       6.510   4.212  16.164  0.00  0.00    +0.000 A 
ATOM     22  C   UNL     1       5.701   3.630  15.180  0.00  0.00    +0.000 A 
ATOM     23  C   UNL     1       5.882   3.971  13.843  0.00  0.00    +0.000 A 
ATOM     24  C   UNL     1       6.863   4.897  13.532  0.00  0.00    +0.000 A 
ATOM     25  N   UNL     1       7.641   5.504  14.454  0.00  0.00    +0.000 NA
ATOM     26  C   UNL     1       7.443   5.151  15.744  0.00  0.00    +0.000 A 
ENDBRANCH  20  21
ENDBRANCH   4  20
TORSDOF 4
ENDMDL
MODEL 9
REMARK VINA RESULT:      -7.8      3.839      6.566
REMARK  Name = 
REMARK  4 active torsions:
REMARK  status: ('A' for Active; 'I' for Inactive)
REMARK    1  A    between atoms: C_5  and  N_6
REMARK    2  A    between atoms: N_6  and  C_7
REMARK    3  A    between atoms: C_10  and  C_11
REMARK    4  A    between atoms: C_11  and  C_12
REMARK                            x       y       z     vdW  Elec       q    Type
REMARK                         _______ _______ _______ _____ _____    ______ ____
ROOT
ATOM      1  C   UNL     1       4.432   4.285  18.312  0.00  0.00    +0.000 A 
ATOM      2  N   UNL     1       4.741   5.555  18.641  0.00  0.00    +0.000 NA
ATOM      3  N   UNL     1       3.891   6.315  19.376  0.00  0.00    +0.000 NA
ATOM      4  C   UNL     1       2.684   5.825  19.739  0.00  0.00    +0.000 A 
ATOM      5  C   UNL     1       2.280   4.519  19.393  0.00  0.00    +0.000 A 
ATOM      6  C   UNL     1       0.992   3.989  19.660  0.00  0.00    +0.000 A 
ATOM      7  C   UNL     1       0.659   2.674  19.330  0.00  0.00    +0.000 A 
ATOM      8  C   UNL     1       1.606   1.846  18.750  0.00  0.00    +0.000 A 
ATOM      9  C   UNL     1       2.865   2.356  18.436  0.00  0.00    +0.000 A 
ATOM     10  C   UNL     1       3.216   3.701  18.719  0.00  0.00    +0.000 A 
ENDROOT
BRANCH   1  11
ATOM     11  N   UNL     1       5.327   3.561  17.486  0.00  0.00    +0.000 N 
ATOM     12  H   UNL     1       5.945   2.989  18.047  0.00  0.00    +0.000 HD
BRANCH  11  17
ATOM     13 CL   UNL     1       7.822   5.283  12.378  0.00  0.00    +0.000 Cl
ATOM     14  C   UNL     1       7.079   4.810  13.856  0.00  0.00    +0.000 A 
ATOM     15  C   UNL     1       7.675   5.140  15.072  0.00  0.00    +0.000 A 
ATOM     16  C   UNL     1       7.081   4.740  16.274  0.00  0.00    +0.000 A 
ATOM     17  C   UNL     1       5.876   4.027  16.274  0.00  0.00    +0.000 A 
ATOM     18  C   UNL     1       5.305   3.691  15.035  0.00  0.00    +0.000 A 
ATOM     19  C   UNL     1       5.895   4.084  13.832  0.00  0.00    +0.000 A 
ENDBRANCH  11  17
ENDBRANCH   1  11
BRANCH   4  20
ATOM     20  C   UNL     1       1.882   6.757  20.616  0.00  0.00    +0.000 C 
BRANCH  20  21
ATOM     21  C   UNL     1       1.582   8.078  19.953  0.00  0.00    +0.000 A 
ATOM     22  C   UNL     1       1.882   8.307  18.605  0.00  0.00    +0.000 A 
ATOM     23  C   UNL     1       1.642   9.558  18.044  0.00  0.00    +0.000 A 
ATOM     24  C   UNL     1       1.095  10.542  18.850  0.00  0.00    +0.000 A 
ATOM     25  N   UNL     1       0.763  10.352  20.145  0.00  0.00    +0.000 NA
ATOM     26  C   UNL     1       1.009   9.127  20.662  0.00  0.00    +0.000 A 
ENDBRANCH  20  21
ENDBRANCH   4  20
TORSDOF 4
ENDMDL
