MODEL 1
REMARK VINA RESULT:      -7.4      0.000      0.000
REMARK  Name = 
REMARK  6 active torsions:
REMARK  status: ('A' for Active; 'I' for Inactive)
REMARK    1  A    between atoms: C_1  and  C_2
REMARK    2  A    between atoms: N_4  and  C_5
REMARK    3  A    between atoms: C_8  and  S_9
REMARK    4  A    between atoms: S_9  and  C_11
REMARK    5  A    between atoms: C_14  and  S_15
REMARK    6  A    between atoms: S_15  and  N_16
REMARK                            x       y       z     vdW  Elec       q    Type
REMARK                         _______ _______ _______ _____ _____    ______ ____
ROOT
ATOM      1  S   UNL     1       2.714   5.416  20.090  0.00  0.00    +0.000 S 
ATOM      2  O   UNL     1       1.484   4.445  19.979  0.00  0.00    +0.000 OA
ENDROOT
BRANCH   1   6
ATOM      3  C   UNL     1       1.124   9.680  19.299  0.00  0.00    +0.000 A 
ATOM      4  C   UNL     1       0.955   9.050  20.534  0.00  0.00    +0.000 A 
ATOM      5  C   UNL     1       1.461   7.771  20.766  0.00  0.00    +0.000 A 
ATOM      6  C   UNL     1       2.150   7.090  19.763  0.00  0.00    +0.000 A 
ATOM      7  C   UNL     1       2.315   7.703  18.516  0.00  0.00    +0.000 A 
ATOM      8  C   UNL     1       1.799   8.990  18.283  0.00  0.00    +0.000 A 
BRANCH   3  12
ATOM      9  C   UNL     1      -0.904  12.714  18.317  0.00  0.00    +0.000 C 
ATOM     10  C   UNL     1      -0.680  11.261  18.634  0.00  0.00    +0.000 C 
ATOM     11  O   UNL     1      -1.608  10.462  18.535  0.00  0.00    +0.000 OA
ATOM     12  N   UNL     1       0.617  10.972  19.031  0.00  0.00    +0.000 N 
ATOM     13  H   UNL     1       1.232  11.754  19.220  0.00  0.00    +0.000 HD
ENDBRANCH   3  12
ENDBRANCH   1   6
BRANCH   1  14
ATOM     14  C   UNL     1       3.767   5.035  18.749  0.00  0.00    +0.000 A 
ATOM     15  C   UNL     1       3.344   4.261  17.690  0.00  0.00    +0.000 A 
ATOM     16  C   UNL     1       4.386   4.036  16.746  0.00  0.00    +0.000 A 
ATOM     17  C   UNL     1       5.569   4.646  17.118  0.00  0.00    +0.000 A 
ATOM     18  S   UNL     1       5.407   5.474  18.608  0.00  0.00    +0.000 S 
BRANCH  17  19
ATOM     19  S   UNL     1       7.167   4.701  16.338  0.00  0.00    +0.000 S 
ATOM     20  O   UNL     1       8.091   4.140  17.295  0.00  0.00    +0.000 OA
ATOM     21  O   UNL     1       6.950   4.148  15.025  0.00  0.00    +0.000 OA
BRANCH  19  22
ATOM     22  N   UNL     1       7.569   6.314  16.129  0.00  0.00    +0.000 NA
ATOM     23  H   UNL     1       8.573   6.469  16.068  0.00  0.00    +0.000 HD
ATOM     24  H   UNL     1       7.046   6.941  16.733  0.00  0.00    +0.000 HD
ENDBRANCH  19  22
ENDBRANCH  17  19
ENDBRANCH   1  14
TORSDOF 5
ENDMDL
MODEL 2
REMARK VINA RESULT:      -7.3      0.163      1.062
REMARK  Name = 
REMARK  6 active torsions:
REMARK  status: ('A' for Active; 'I' for Inactive)
REMARK    1  A    between atoms: C_1  and  C_2
REMARK    2  A    between atoms: N_4  and  C_5
REMARK    3  A    between atoms: C_8  and  S_9
REMARK    4  A    between atoms: S_9  and  C_11
REMARK    5  A    between atoms: C_14  and  S_15
REMARK    6  A    between atoms: S_15  and  N_16
REMARK                            x       y       z     vdW  Elec       q    Type
REMARK                         _______ _______ _______ _____ _____    ______ ____
ROOT
ATOM      1  S   UNL     1       2.633   5.261  20.062  0.00  0.00    +0.000 S 
ATOM      2  O   UNL     1       1.434   4.257  19.921  0.00  0.00    +0.000 OA
ENDROOT
BRANCH   1   6
ATOM      3  C   UNL     1       1.203   9.576  19.241  0.00  0.00    +0.000 A 
ATOM      4  C   UNL     1       1.820   8.805  18.252  0.00  0.00    +0.000 A 
ATOM      5  C   UNL     1       2.225   7.495  18.508  0.00  0.00    +0.000 A 
ATOM      6  C   UNL     1       2.023   6.924  19.764  0.00  0.00    +0.000 A 
ATOM      7  C   UNL     1       1.419   7.690  20.768  0.00  0.00    +0.000 A 
ATOM      8  C   UNL     1       1.017   9.011  20.509  0.00  0.00    +0.000 A 
BRANCH   3  12
ATOM      9  C   UNL     1      -0.611  12.773  18.363  0.00  0.00    +0.000 C 
ATOM     10  C   UNL     1      -0.489  11.299  18.640  0.00  0.00    +0.000 C 
ATOM     11  O   UNL     1      -1.473  10.573  18.530  0.00  0.00    +0.000 OA
ATOM     12  N   UNL     1       0.788  10.908  19.014  0.00  0.00    +0.000 N 
ATOM     13  H   UNL     1       1.459  11.639  19.216  0.00  0.00    +0.000 HD
ENDBRANCH   3  12
ENDBRANCH   1   6
BRANCH   1  14
ATOM     14  C   UNL     1       3.708   4.939  18.722  0.00  0.00    +0.000 A 
ATOM     15  C   UNL     1       3.329   4.144  17.662  0.00  0.00    +0.000 A 
ATOM     16  C   UNL     1       4.383   3.976  16.720  0.00  0.00    +0.000 A 
ATOM     17  C   UNL     1       5.531   4.648  17.094  0.00  0.00    +0.000 A 
ATOM     18  S   UNL     1       5.321   5.466  18.584  0.00  0.00    +0.000 S 
BRANCH  17  19
ATOM     19  S   UNL     1       7.125   4.790  16.317  0.00  0.00    +0.000 S 
ATOM     20  O   UNL     1       8.061   4.174  17.226  0.00  0.00    +0.000 OA
ATOM     21  O   UNL     1       6.912   4.335  14.966  0.00  0.00    +0.000 OA
BRANCH  19  22
ATOM     22  N   UNL     1       7.499   6.421  16.231  0.00  0.00    +0.000 NA
ATOM     23  H   UNL     1       6.693   7.003  16.015  0.00  0.00    +0.000 HD
ATOM     24  H   UNL     1       8.352   6.612  15.712  0.00  0.00    +0.000 HD
ENDBRANCH  19  22
ENDBRANCH  17  19
ENDBRANCH   1  14
TORSDOF 5
ENDMDL
MODEL 3
REMARK VINA RESULT:      -7.2      1.133      1.133
REMARK  Name = 
REMARK  6 active torsions:
REMARK  status: ('A' for Active; 'I' for Inactive)
REMARK    1  A    between atoms: C_1  and  C_2
REMARK    2  A    between atoms: N_4  and  C_5
REMARK    3  A    between atoms: C_8  and  S_9
REMARK    4  A    between atoms: S_9  and  C_11
REMARK    5  A    between atoms: C_14  and  S_15
REMARK    6  A    between atoms: S_15  and  N_16
REMARK                            x       y       z     vdW  Elec       q    Type
REMARK                         _______ _______ _______ _____ _____    ______ ____
ROOT
ATOM      1  S   UNL     1       2.641   5.292  20.050  0.00  0.00    +0.000 S 
ATOM      2  O   UNL     1       1.404   4.344  19.869  0.00  0.00    +0.000 OA
ENDROOT
BRANCH   1   6
ATOM      3  C   UNL     1       1.115   9.609  19.444  0.00  0.00    +0.000 A 
ATOM      4  C   UNL     1       0.922   8.923  20.645  0.00  0.00    +0.000 A 
ATOM      5  C   UNL     1       1.409   7.628  20.822  0.00  0.00    +0.000 A 
ATOM      6  C   UNL     1       2.103   6.987  19.797  0.00  0.00    +0.000 A 
ATOM      7  C   UNL     1       2.291   7.657  18.582  0.00  0.00    +0.000 A 
ATOM      8  C   UNL     1       1.795   8.960  18.405  0.00  0.00    +0.000 A 
BRANCH   3  12
ATOM      9  C   UNL     1       0.092  13.241  19.656  0.00  0.00    +0.000 C 
ATOM     10  C   UNL     1       0.819  11.996  20.085  0.00  0.00    +0.000 C 
ATOM     11  O   UNL     1       1.505  12.008  21.103  0.00  0.00    +0.000 OA
ATOM     12  N   UNL     1       0.627  10.919  19.232  0.00  0.00    +0.000 N 
ATOM     13  H   UNL     1       0.167  11.100  18.349  0.00  0.00    +0.000 HD
ENDBRANCH   3  12
ENDBRANCH   1   6
BRANCH   1  14
ATOM     14  C   UNL     1       3.716   4.966  18.712  0.00  0.00    +0.000 A 
ATOM     15  C   UNL     1       3.331   4.182  17.645  0.00  0.00    +0.000 A 
ATOM     16  C   UNL     1       4.386   4.007  16.705  0.00  0.00    +0.000 A 
ATOM     17  C   UNL     1       5.540   4.665  17.086  0.00  0.00    +0.000 A 
ATOM     18  S   UNL     1       5.336   5.475  18.581  0.00  0.00    +0.000 S 
BRANCH  17  19
ATOM     19  S   UNL     1       7.137   4.793  16.314  0.00  0.00    +0.000 S 
ATOM     20  O   UNL     1       8.065   4.166  17.224  0.00  0.00    +0.000 OA
ATOM     21  O   UNL     1       6.924   4.344  14.961  0.00  0.00    +0.000 OA
BRANCH  19  22
ATOM     22  N   UNL     1       7.527   6.420  16.233  0.00  0.00    +0.000 NA
ATOM     23  H   UNL     1       7.952   6.684  15.347  0.00  0.00    +0.000 HD
ATOM     24  H   UNL     1       7.975   6.770  17.076  0.00  0.00    +0.000 HD
ENDBRANCH  19  22
ENDBRANCH  17  19
ENDBRANCH   1  14
TORSDOF 5
ENDMDL
MODEL 4
REMARK VINA RESULT:      -7.1      1.400      1.498
REMARK  Name = 
REMARK  6 active torsions:
REMARK  status: ('A' for Active; 'I' for Inactive)
REMARK    1  A    between atoms: C_1  and  C_2
REMARK    2  A    between atoms: N_4  and  C_5
REMARK    3  A    between atoms: C_8  and  S_9
REMARK    4  A    between atoms: S_9  and  C_11
REMARK    5  A    between atoms: C_14  and  S_15
REMARK    6  A    between atoms: S_15  and  N_16
REMARK                            x       y       z     vdW  Elec       q    Type
REMARK                         _______ _______ _______ _____ _____    ______ ____
ROOT
ATOM      1  S   UNL     1       2.616   5.576  20.069  0.00  0.00    +0.000 S 
ATOM      2  O   UNL     1       1.378   4.613  20.008  0.00  0.00    +0.000 OA
ENDROOT
BRANCH   1   6
ATOM      3  C   UNL     1       1.038   9.839  19.248  0.00  0.00    +0.000 A 
ATOM      4  C   UNL     1       0.938   9.248  20.510  0.00  0.00    +0.000 A 
ATOM      5  C   UNL     1       1.440   7.969  20.749  0.00  0.00    +0.000 A 
ATOM      6  C   UNL     1       2.056   7.248  19.727  0.00  0.00    +0.000 A 
ATOM      7  C   UNL     1       2.151   7.822  18.453  0.00  0.00    +0.000 A 
ATOM      8  C   UNL     1       1.639   9.109  18.214  0.00  0.00    +0.000 A 
BRANCH   3  12
ATOM      9  C   UNL     1       0.495  13.509  18.530  0.00  0.00    +0.000 C 
ATOM     10  C   UNL     1       1.299  12.245  18.667  0.00  0.00    +0.000 C 
ATOM     11  O   UNL     1       2.515  12.272  18.502  0.00  0.00    +0.000 OA
ATOM     12  N   UNL     1       0.533  11.130  18.973  0.00  0.00    +0.000 N 
ATOM     13  H   UNL     1      -0.474  11.228  18.922  0.00  0.00    +0.000 HD
ENDBRANCH   3  12
ENDBRANCH   1   6
BRANCH   1  14
ATOM     14  C   UNL     1       3.631   5.164  18.707  0.00  0.00    +0.000 A 
ATOM     15  C   UNL     1       3.196   4.322  17.705  0.00  0.00    +0.000 A 
ATOM     16  C   UNL     1       4.209   4.084  16.733  0.00  0.00    +0.000 A 
ATOM     17  C   UNL     1       5.382   4.753  17.026  0.00  0.00    +0.000 A 
ATOM     18  S   UNL     1       5.246   5.651  18.478  0.00  0.00    +0.000 S 
BRANCH  17  19
ATOM     19  S   UNL     1       6.946   4.823  16.181  0.00  0.00    +0.000 S 
ATOM     20  O   UNL     1       6.803   3.978  15.020  0.00  0.00    +0.000 OA
ATOM     21  O   UNL     1       7.257   6.229  16.108  0.00  0.00    +0.000 OA
BRANCH  19  22
ATOM     22  N   UNL     1       8.090   4.121  17.183  0.00  0.00    +0.000 NA
ATOM     23  H   UNL     1       7.808   4.105  18.160  0.00  0.00    +0.000 HD
ATOM     24  H   UNL     1       9.040   4.427  16.987  0.00  0.00    +0.000 HD
ENDBRANCH  19  22
ENDBRANCH  17  19
ENDBRANCH   1  14
TORSDOF 5
ENDMDL
MODEL 5
REMARK VINA RESULT:      -7.1      1.423      1.578
REMARK  Name = 
REMARK  6 active torsions:
REMARK  status: ('A' for Active; 'I' for Inactive)
REMARK    1  A    between atoms: C_1  and  C_2
REMARK    2  A    between atoms: N_4  and  C_5
REMARK    3  A    between atoms: C_8  and  S_9
REMARK    4  A    between atoms: S_9  and  C_11
REMARK    5  A    between atoms: C_14  and  S_15
REMARK    6  A    between atoms: S_15  and  N_16
REMARK                            x       y       z     vdW  Elec       q    Type
REMARK                         _______ _______ _______ _____ _____    ______ ____
ROOT
ATOM      1  S   UNL     1       2.888   5.783  20.007  0.00  0.00    +0.000 S 
ATOM      2  O   UNL     1       1.700   4.792  20.274  0.00  0.00    +0.000 OA
ENDROOT
BRANCH   1   6
ATOM      3  C   UNL     1       1.000   9.829  18.824  0.00  0.00    +0.000 A 
ATOM      4  C   UNL     1       0.916   9.331  20.127  0.00  0.00    +0.000 A 
ATOM      5  C   UNL     1       1.511   8.119  20.475  0.00  0.00    +0.000 A 
ATOM      6  C   UNL     1       2.207   7.373  19.524  0.00  0.00    +0.000 A 
ATOM      7  C   UNL     1       2.286   7.852  18.211  0.00  0.00    +0.000 A 
ATOM      8  C   UNL     1       1.681   9.071  17.862  0.00  0.00    +0.000 A 
BRANCH   3  12
ATOM      9  C   UNL     1      -0.074  13.422  18.359  0.00  0.00    +0.000 C 
ATOM     10  C   UNL     1       0.820  12.312  18.837  0.00  0.00    +0.000 C 
ATOM     11  O   UNL     1       1.815  12.573  19.508  0.00  0.00    +0.000 OA
ATOM     12  N   UNL     1       0.401  11.051  18.440  0.00  0.00    +0.000 N 
ATOM     13  H   UNL     1      -0.345  11.001  17.758  0.00  0.00    +0.000 HD
ENDBRANCH   3  12
ENDBRANCH   1   6
BRANCH   1  14
ATOM     14  C   UNL     1       3.705   5.201  18.577  0.00  0.00    +0.000 A 
ATOM     15  C   UNL     1       3.205   4.157  17.827  0.00  0.00    +0.000 A 
ATOM     16  C   UNL     1       4.065   3.819  16.745  0.00  0.00    +0.000 A 
ATOM     17  C   UNL     1       5.194   4.615  16.705  0.00  0.00    +0.000 A 
ATOM     18  S   UNL     1       5.202   5.755  17.983  0.00  0.00    +0.000 S 
BRANCH  17  19
ATOM     19  S   UNL     1       6.583   4.643  15.595  0.00  0.00    +0.000 S 
ATOM     20  O   UNL     1       6.487   5.891  14.876  0.00  0.00    +0.000 OA
ATOM     21  O   UNL     1       7.712   4.284  16.416  0.00  0.00    +0.000 OA
BRANCH  19  22
ATOM     22  N   UNL     1       6.369   3.402  14.490  0.00  0.00    +0.000 NA
ATOM     23  H   UNL     1       7.169   2.777  14.433  0.00  0.00    +0.000 HD
ATOM     24  H   UNL     1       5.968   3.712  13.609  0.00  0.00    +0.000 HD
ENDBRANCH  19  22
ENDBRANCH  17  19
ENDBRANCH   1  14
TORSDOF 5
ENDMDL
MODEL 6
REMARK VINA RESULT:      -7.0      1.134      1.545
REMARK  Name = 
REMARK  6 active torsions:
REMARK  status: ('A' for Active; 'I' for Inactive)
REMARK    1  A    between atoms: C_1  and  C_2
REMARK    2  A    between atoms: N_4  and  C_5
REMARK    3  A    between atoms: C_8  and  S_9
REMARK    4  A    between atoms: S_9  and  C_11
REMARK    5  A    between atoms: C_14  and  S_15
REMARK    6  A    between atoms: S_15  and  N_16
REMARK                            x       y       z     vdW  Elec       q    Type
REMARK                         _______ _______ _______ _____ _____    ______ ____
ROOT
ATOM      1  S   UNL     1       2.653   5.232  20.081  0.00  0.00    +0.000 S 
ATOM      2  O   UNL     1       1.445   4.241  19.931  0.00  0.00    +0.000 OA
ENDROOT
BRANCH   1   6
ATOM      3  C   UNL     1       1.267   9.569  19.305  0.00  0.00    +0.000 A 
ATOM      4  C   UNL     1       1.942   8.828  18.333  0.00  0.00    +0.000 A 
ATOM      5  C   UNL     1       2.334   7.511  18.573  0.00  0.00    +0.000 A 
ATOM      6  C   UNL     1       2.059   6.903  19.797  0.00  0.00    +0.000 A 
ATOM      7  C   UNL     1       1.396   7.639  20.786  0.00  0.00    +0.000 A 
ATOM      8  C   UNL     1       1.007   8.967  20.544  0.00  0.00    +0.000 A 
BRANCH   3  12
ATOM      9  C   UNL     1       0.342  13.225  19.559  0.00  0.00    +0.000 C 
ATOM     10  C   UNL     1       0.948  11.930  20.027  0.00  0.00    +0.000 C 
ATOM     11  O   UNL     1       1.459  11.861  21.141  0.00  0.00    +0.000 OA
ATOM     12  N   UNL     1       0.863  10.908  19.094  0.00  0.00    +0.000 N 
ATOM     13  H   UNL     1       0.560  11.153  18.159  0.00  0.00    +0.000 HD
ENDBRANCH   3  12
ENDBRANCH   1   6
BRANCH   1  14
ATOM     14  C   UNL     1       3.726   4.912  18.740  0.00  0.00    +0.000 A 
ATOM     15  C   UNL     1       3.345   4.119  17.678  0.00  0.00    +0.000 A 
ATOM     16  C   UNL     1       4.398   3.952  16.735  0.00  0.00    +0.000 A 
ATOM     17  C   UNL     1       5.547   4.623  17.108  0.00  0.00    +0.000 A 
ATOM     18  S   UNL     1       5.340   5.437  18.601  0.00  0.00    +0.000 S 
BRANCH  17  19
ATOM     19  S   UNL     1       7.140   4.765  16.330  0.00  0.00    +0.000 S 
ATOM     20  O   UNL     1       8.082   4.177  17.253  0.00  0.00    +0.000 OA
ATOM     21  O   UNL     1       6.934   4.280  14.989  0.00  0.00    +0.000 OA
BRANCH  19  22
ATOM     22  N   UNL     1       7.498   6.397  16.210  0.00  0.00    +0.000 NA
ATOM     23  H   UNL     1       7.052   6.844  15.413  0.00  0.00    +0.000 HD
ATOM     24  H   UNL     1       8.481   6.606  16.360  0.00  0.00    +0.000 HD
ENDBRANCH  19  22
ENDBRANCH  17  19
ENDBRANCH   1  14
TORSDOF 5
ENDMDL
MODEL 7
REMARK VINA RESULT:      -7.0      1.434      1.856
REMARK  Name = 
REMARK  6 active torsions:
REMARK  status: ('A' for Active; 'I' for Inactive)
REMARK    1  A    between atoms: C_1  and  C_2
REMARK    2  A    between atoms: N_4  and  C_5
REMARK    3  A    between atoms: C_8  and  S_9
REMARK    4  A    between atoms: S_9  and  C_11
REMARK    5  A    between atoms: C_14  and  S_15
REMARK    6  A    between atoms: S_15  and  N_16
REMARK                            x       y       z     vdW  Elec       q    Type
REMARK                         _______ _______ _______ _____ _____    ______ ____
ROOT
ATOM      1  S   UNL     1       2.588   5.419  20.164  0.00  0.00    +0.000 S 
ATOM      2  O   UNL     1       1.385   4.418  20.035  0.00  0.00    +0.000 OA
ENDROOT
BRANCH   1   6
ATOM      3  C   UNL     1       1.168   9.733  19.320  0.00  0.00    +0.000 A 
ATOM      4  C   UNL     1       1.797   8.962  18.341  0.00  0.00    +0.000 A 
ATOM      5  C   UNL     1       2.199   7.652  18.603  0.00  0.00    +0.000 A 
ATOM      6  C   UNL     1       1.981   7.082  19.856  0.00  0.00    +0.000 A 
ATOM      7  C   UNL     1       1.365   7.848  20.852  0.00  0.00    +0.000 A 
ATOM      8  C   UNL     1       0.965   9.169  20.587  0.00  0.00    +0.000 A 
BRANCH   3  12
ATOM      9  C   UNL     1       0.871  13.412  18.508  0.00  0.00    +0.000 C 
ATOM     10  C   UNL     1       1.542  12.065  18.536  0.00  0.00    +0.000 C 
ATOM     11  O   UNL     1       2.678  11.938  18.089  0.00  0.00    +0.000 OA
ATOM     12  N   UNL     1       0.755  11.065  19.087  0.00  0.00    +0.000 N 
ATOM     13  H   UNL     1      -0.217  11.282  19.267  0.00  0.00    +0.000 HD
ENDBRANCH   3  12
ENDBRANCH   1   6
BRANCH   1  14
ATOM     14  C   UNL     1       3.656   5.085  18.821  0.00  0.00    +0.000 A 
ATOM     15  C   UNL     1       3.238   4.365  17.722  0.00  0.00    +0.000 A 
ATOM     16  C   UNL     1       4.291   4.168  16.784  0.00  0.00    +0.000 A 
ATOM     17  C   UNL     1       5.477   4.743  17.200  0.00  0.00    +0.000 A 
ATOM     18  S   UNL     1       5.303   5.506  18.724  0.00  0.00    +0.000 S 
BRANCH  17  19
ATOM     19  S   UNL     1       7.087   4.811  16.447  0.00  0.00    +0.000 S 
ATOM     20  O   UNL     1       7.005   3.978  15.271  0.00  0.00    +0.000 OA
ATOM     21  O   UNL     1       7.410   6.215  16.405  0.00  0.00    +0.000 OA
BRANCH  19  22
ATOM     22  N   UNL     1       8.167   4.091  17.505  0.00  0.00    +0.000 NA
ATOM     23  H   UNL     1       9.138   4.315  17.297  0.00  0.00    +0.000 HD
ATOM     24  H   UNL     1       7.955   3.115  17.696  0.00  0.00    +0.000 HD
ENDBRANCH  19  22
ENDBRANCH  17  19
ENDBRANCH   1  14
TORSDOF 5
ENDMDL
MODEL 8
REMARK VINA RESULT:      -6.9      1.487      1.953
REMARK  Name = 
REMARK  6 active torsions:
REMARK  status: ('A' for Active; 'I' for Inactive)
REMARK    1  A    between atoms: C_1  and  C_2
REMARK    2  A    between atoms: N_4  and  C_5
REMARK    3  A    between atoms: C_8  and  S_9
REMARK    4  A    between atoms: S_9  and  C_11
REMARK    5  A    between atoms: C_14  and  S_15
REMARK    6  A    between atoms: S_15  and  N_16
REMARK                            x       y       z     vdW  Elec       q    Type
REMARK                         _______ _______ _______ _____ _____    ______ ____
ROOT
ATOM      1  S   UNL     1       2.831   5.859  20.067  0.00  0.00    +0.000 S 
ATOM      2  O   UNL     1       1.690   4.825  20.370  0.00  0.00    +0.000 OA
ENDROOT
BRANCH   1   6
ATOM      3  C   UNL     1       1.028   9.928  18.832  0.00  0.00    +0.000 A 
ATOM      4  C   UNL     1       1.727   9.128  17.925  0.00  0.00    +0.000 A 
ATOM      5  C   UNL     1       2.246   7.891  18.306  0.00  0.00    +0.000 A 
ATOM      6  C   UNL     1       2.077   7.423  19.609  0.00  0.00    +0.000 A 
ATOM      7  C   UNL     1       1.391   8.220  20.532  0.00  0.00    +0.000 A 
ATOM      8  C   UNL     1       0.874   9.469  20.147  0.00  0.00    +0.000 A 
BRANCH   3  12
ATOM      9  C   UNL     1       0.198  13.589  18.402  0.00  0.00    +0.000 C 
ATOM     10  C   UNL     1       1.039  12.417  18.826  0.00  0.00    +0.000 C 
ATOM     11  O   UNL     1       2.099  12.606  19.416  0.00  0.00    +0.000 OA
ATOM     12  N   UNL     1       0.496  11.189  18.478  0.00  0.00    +0.000 N 
ATOM     13  H   UNL     1      -0.302  11.192  17.855  0.00  0.00    +0.000 HD
ENDBRANCH   3  12
ENDBRANCH   1   6
BRANCH   1  14
ATOM     14  C   UNL     1       3.623   5.308  18.609  0.00  0.00    +0.000 A 
ATOM     15  C   UNL     1       3.056   4.356  17.789  0.00  0.00    +0.000 A 
ATOM     16  C   UNL     1       3.905   4.022  16.696  0.00  0.00    +0.000 A 
ATOM     17  C   UNL     1       5.091   4.731  16.718  0.00  0.00    +0.000 A 
ATOM     18  S   UNL     1       5.166   5.783  18.068  0.00  0.00    +0.000 S 
BRANCH  17  19
ATOM     19  S   UNL     1       6.495   4.723  15.626  0.00  0.00    +0.000 S 
ATOM     20  O   UNL     1       6.374   5.916  14.823  0.00  0.00    +0.000 OA
ATOM     21  O   UNL     1       7.621   4.452  16.484  0.00  0.00    +0.000 OA
BRANCH  19  22
ATOM     22  N   UNL     1       6.330   3.405  14.606  0.00  0.00    +0.000 NA
ATOM     23  H   UNL     1       6.485   3.637  13.627  0.00  0.00    +0.000 HD
ATOM     24  H   UNL     1       5.516   2.832  14.815  0.00  0.00    +0.000 HD
ENDBRANCH  19  22
ENDBRANCH  17  19
ENDBRANCH   1  14
TORSDOF 5
ENDMDL
MODEL 9
REMARK VINA RESULT:      -6.6      0.971      1.204
REMARK  Name = 
REMARK  6 active torsions:
REMARK  status: ('A' for Active; 'I' for Inactive)
REMARK    1  A    between atoms: C_1  and  C_2
REMARK    2  A    between atoms: N_4  and  C_5
REMARK    3  A    between atoms: C_8  and  S_9
REMARK    4  A    between atoms: S_9  and  C_11
REMARK    5  A    between atoms: C_14  and  S_15
REMARK    6  A    between atoms: S_15  and  N_16
REMARK                            x       y       z     vdW  Elec       q    Type
REMARK                         _______ _______ _______ _____ _____    ______ ____
ROOT
ATOM      1  S   UNL     1       2.569   5.338  20.010  0.00  0.00    +0.000 S 
ATOM      2  O   UNL     1       1.473   4.392  19.402  0.00  0.00    +0.000 OA
ENDROOT
BRANCH   1   6
ATOM      3  C   UNL     1       1.150   9.682  19.340  0.00  0.00    +0.000 A 
ATOM      4  C   UNL     1       0.988   9.037  20.568  0.00  0.00    +0.000 A 
ATOM      5  C   UNL     1       1.443   7.733  20.763  0.00  0.00    +0.000 A 
ATOM      6  C   UNL     1       2.072   7.041  19.729  0.00  0.00    +0.000 A 
ATOM      7  C   UNL     1       2.227   7.670  18.488  0.00  0.00    +0.000 A 
ATOM      8  C   UNL     1       1.763   8.982  18.293  0.00  0.00    +0.000 A 
BRANCH   3  12
ATOM      9  C   UNL     1      -0.731  12.819  18.388  0.00  0.00    +0.000 C 
ATOM     10  C   UNL     1      -0.565  11.345  18.638  0.00  0.00    +0.000 C 
ATOM     11  O   UNL     1      -1.500  10.579  18.427  0.00  0.00    +0.000 OA
ATOM     12  N   UNL     1       0.693  11.000  19.111  0.00  0.00    +0.000 N 
ATOM     13  H   UNL     1       1.310  11.754  19.387  0.00  0.00    +0.000 HD
ENDBRANCH   3  12
ENDBRANCH   1   6
BRANCH   1  14
ATOM     14  C   UNL     1       4.001   5.130  19.030  0.00  0.00    +0.000 A 
ATOM     15  C   UNL     1       5.263   5.383  19.524  0.00  0.00    +0.000 A 
ATOM     16  C   UNL     1       6.269   5.201  18.533  0.00  0.00    +0.000 A 
ATOM     17  C   UNL     1       5.740   4.815  17.316  0.00  0.00    +0.000 A 
ATOM     18  S   UNL     1       4.033   4.688  17.386  0.00  0.00    +0.000 S 
BRANCH  17  19
ATOM     19  S   UNL     1       6.510   4.453  15.754  0.00  0.00    +0.000 S 
ATOM     20  O   UNL     1       7.932   4.507  15.994  0.00  0.00    +0.000 OA
ATOM     21  O   UNL     1       5.829   3.275  15.277  0.00  0.00    +0.000 OA
BRANCH  19  22
ATOM     22  N   UNL     1       6.124   5.699  14.703  0.00  0.00    +0.000 NA
ATOM     23  H   UNL     1       6.944   6.161  14.315  0.00  0.00    +0.000 HD
ATOM     24  H   UNL     1       5.381   6.301  15.046  0.00  0.00    +0.000 HD
ENDBRANCH  19  22
ENDBRANCH  17  19
ENDBRANCH   1  14
TORSDOF 5
ENDMDL
