MODEL 1
REMARK VINA RESULT:      -6.5      0.000      0.000
REMARK  Name = 
REMARK  12 active torsions:
REMARK  status: ('A' for Active; 'I' for Inactive)
REMARK    1  A    between atoms: C_1  and  C_2
REMARK    2  A    between atoms: C_2  and  C_3
REMARK    3  A    between atoms: C_3  and  C_4
REMARK    4  A    between atoms: C_4  and  N_5
REMARK    5  A    between atoms: N_5  and  C_6
REMARK    6  A    between atoms: N_5  and  C_7
REMARK    7  A    between atoms: C_10  and  S_11
REMARK    8  A    between atoms: S_11  and  C_12
REMARK    9  A    between atoms: C_16  and  S_17
REMARK   10  A    between atoms: S_17  and  N_20
REMARK   11  A    between atoms: N_20  and  C_21
REMARK   12  A    between atoms: N_20  and  C_22
REMARK                            x       y       z     vdW  Elec       q    Type
REMARK                         _______ _______ _______ _____ _____    ______ ____
ROOT
ATOM      1  C   UNL     1       3.408   6.470  17.843  0.00  0.00    +0.000 A 
ATOM      2  C   UNL     1       4.464   7.286  17.336  0.00  0.00    +0.000 A 
ATOM      3  C   UNL     1       5.565   6.803  16.621  0.00  0.00    +0.000 A 
ATOM      4  C   UNL     1       5.656   5.450  16.369  0.00  0.00    +0.000 A 
ATOM      5  C   UNL     1       4.661   4.591  16.830  0.00  0.00    +0.000 A 
ATOM      6  C   UNL     1       3.548   5.077  17.565  0.00  0.00    +0.000 A 
ENDROOT
BRANCH   4   7
ATOM      7  S   UNL     1       7.084   4.804  15.532  0.00  0.00    +0.000 S 
ATOM      8  C   UNL     1       6.427   3.688  14.329  0.00  0.00    +0.000 C 
ATOM      9  O   UNL     1       7.707   5.914  14.827  0.00  0.00    +0.000 OA
ATOM     10  O   UNL     1       7.839   4.036  16.503  0.00  0.00    +0.000 OA
ENDBRANCH   4   7
BRANCH   6  11
ATOM     11  S   UNL     1       2.268   3.858  17.923  0.00  0.00    +0.000 S 
ATOM     12  O   UNL     1       0.967   4.368  17.536  0.00  0.00    +0.000 OA
ATOM     13  O   UNL     1       2.772   2.587  17.443  0.00  0.00    +0.000 OA
BRANCH  11  14
ATOM     14  N   UNL     1       2.187   3.741  19.649  0.00  0.00    +0.000 NA
ATOM     15  C   UNL     1       0.802   3.595  20.179  0.00  0.00    +0.000 C 
ATOM     16  C   UNL     1       3.083   2.703  20.206  0.00  0.00    +0.000 C 
ENDBRANCH  11  14
ENDBRANCH   6  11
BRANCH   1  17
ATOM     17  N   UNL     1       2.365   7.118  18.525  0.00  0.00    +0.000 N 
ATOM     18  C   UNL     1       1.688   8.273  17.912  0.00  0.00    +0.000 C 
BRANCH  17  19
ATOM     19  C   UNL     1       2.200   7.062  19.989  0.00  0.00    +0.000 C 
BRANCH  19  20
ATOM     20  C   UNL     1       1.610   8.343  20.582  0.00  0.00    +0.000 C 
BRANCH  20  22
ATOM     21  C   UNL     1       0.039   9.314  22.275  0.00  0.00    +0.000 C 
ATOM     22  C   UNL     1       0.345   8.108  21.402  0.00  0.00    +0.000 C 
ENDBRANCH  20  22
ENDBRANCH  19  20
ENDBRANCH  17  19
ENDBRANCH   1  17
TORSDOF 7
ENDMDL
MODEL 2
REMARK VINA RESULT:      -6.5      3.096      7.092
REMARK  Name = 
REMARK  12 active torsions:
REMARK  status: ('A' for Active; 'I' for Inactive)
REMARK    1  A    between atoms: C_1  and  C_2
REMARK    2  A    between atoms: C_2  and  C_3
REMARK    3  A    between atoms: C_3  and  C_4
REMARK    4  A    between atoms: C_4  and  N_5
REMARK    5  A    between atoms: N_5  and  C_6
REMARK    6  A    between atoms: N_5  and  C_7
REMARK    7  A    between atoms: C_10  and  S_11
REMARK    8  A    between atoms: S_11  and  C_12
REMARK    9  A    between atoms: C_16  and  S_17
REMARK   10  A    between atoms: S_17  and  N_20
REMARK   11  A    between atoms: N_20  and  C_21
REMARK   12  A    between atoms: N_20  and  C_22
REMARK                            x       y       z     vdW  Elec       q    Type
REMARK                         _______ _______ _______ _____ _____    ______ ____
ROOT
ATOM      1  C   UNL     1       5.065   4.244  16.745  0.00  0.00    +0.000 A 
ATOM      2  C   UNL     1       3.730   3.743  16.707  0.00  0.00    +0.000 A 
ATOM      3  C   UNL     1       2.997   3.357  17.835  0.00  0.00    +0.000 A 
ATOM      4  C   UNL     1       3.580   3.467  19.079  0.00  0.00    +0.000 A 
ATOM      5  C   UNL     1       4.881   3.951  19.195  0.00  0.00    +0.000 A 
ATOM      6  C   UNL     1       5.631   4.333  18.052  0.00  0.00    +0.000 A 
ENDROOT
BRANCH   4   7
ATOM      7  S   UNL     1       2.698   2.909  20.517  0.00  0.00    +0.000 S 
ATOM      8  C   UNL     1       2.095   4.390  21.272  0.00  0.00    +0.000 C 
ATOM      9  O   UNL     1       1.553   2.143  20.049  0.00  0.00    +0.000 OA
ATOM     10  O   UNL     1       3.669   2.306  21.410  0.00  0.00    +0.000 OA
ENDBRANCH   4   7
BRANCH   6  11
ATOM     11  S   UNL     1       7.222   5.109  18.397  0.00  0.00    +0.000 S 
ATOM     12  O   UNL     1       7.388   5.300  19.825  0.00  0.00    +0.000 OA
ATOM     13  O   UNL     1       8.202   4.402  17.595  0.00  0.00    +0.000 OA
BRANCH  11  14
ATOM     14  N   UNL     1       7.121   6.715  17.757  0.00  0.00    +0.000 NA
ATOM     15  C   UNL     1       5.772   7.333  17.891  0.00  0.00    +0.000 C 
ATOM     16  C   UNL     1       8.175   7.617  18.276  0.00  0.00    +0.000 C 
ENDBRANCH  11  14
ENDBRANCH   6  11
BRANCH   1  17
ATOM     17  N   UNL     1       5.653   4.604  15.520  0.00  0.00    +0.000 N 
ATOM     18  C   UNL     1       5.336   5.904  14.904  0.00  0.00    +0.000 C 
BRANCH  17  19
ATOM     19  C   UNL     1       6.174   3.620  14.554  0.00  0.00    +0.000 C 
BRANCH  19  20
ATOM     20  C   UNL     1       5.578   3.769  13.154  0.00  0.00    +0.000 C 
BRANCH  20  22
ATOM     21  C   UNL     1       5.880   1.940  11.469  0.00  0.00    +0.000 C 
ATOM     22  C   UNL     1       6.473   3.213  12.049  0.00  0.00    +0.000 C 
ENDBRANCH  20  22
ENDBRANCH  19  20
ENDBRANCH  17  19
ENDBRANCH   1  17
TORSDOF 7
ENDMDL
MODEL 3
REMARK VINA RESULT:      -6.4      0.996      1.230
REMARK  Name = 
REMARK  12 active torsions:
REMARK  status: ('A' for Active; 'I' for Inactive)
REMARK    1  A    between atoms: C_1  and  C_2
REMARK    2  A    between atoms: C_2  and  C_3
REMARK    3  A    between atoms: C_3  and  C_4
REMARK    4  A    between atoms: C_4  and  N_5
REMARK    5  A    between atoms: N_5  and  C_6
REMARK    6  A    between atoms: N_5  and  C_7
REMARK    7  A    between atoms: C_10  and  S_11
REMARK    8  A    between atoms: S_11  and  C_12
REMARK    9  A    between atoms: C_16  and  S_17
REMARK   10  A    between atoms: S_17  and  N_20
REMARK   11  A    between atoms: N_20  and  C_21
REMARK   12  A    between atoms: N_20  and  C_22
REMARK                            x       y       z     vdW  Elec       q    Type
REMARK                         _______ _______ _______ _____ _____    ______ ____
ROOT
ATOM      1  C   UNL     1       3.160   6.954  18.156  0.00  0.00    +0.000 A 
ATOM      2  C   UNL     1       4.225   7.666  17.527  0.00  0.00    +0.000 A 
ATOM      3  C   UNL     1       5.333   7.063  16.924  0.00  0.00    +0.000 A 
ATOM      4  C   UNL     1       5.422   5.686  16.915  0.00  0.00    +0.000 A 
ATOM      5  C   UNL     1       4.418   4.924  17.507  0.00  0.00    +0.000 A 
ATOM      6  C   UNL     1       3.297   5.534  18.130  0.00  0.00    +0.000 A 
ENDROOT
BRANCH   4   7
ATOM      7  S   UNL     1       6.858   4.901  16.225  0.00  0.00    +0.000 S 
ATOM      8  C   UNL     1       6.211   3.632  15.177  0.00  0.00    +0.000 C 
ATOM      9  O   UNL     1       7.524   5.884  15.385  0.00  0.00    +0.000 OA
ATOM     10  O   UNL     1       7.569   4.269  17.320  0.00  0.00    +0.000 OA
ENDBRANCH   4   7
BRANCH   6  11
ATOM     11  S   UNL     1       2.008   4.399  18.680  0.00  0.00    +0.000 S 
ATOM     12  O   UNL     1       1.474   4.827  19.958  0.00  0.00    +0.000 OA
ATOM     13  O   UNL     1       1.157   4.161  17.530  0.00  0.00    +0.000 OA
BRANCH  11  14
ATOM     14  N   UNL     1       2.805   2.901  19.027  0.00  0.00    +0.000 NA
ATOM     15  C   UNL     1       3.163   2.728  20.463  0.00  0.00    +0.000 C 
ATOM     16  C   UNL     1       2.076   1.719  18.514  0.00  0.00    +0.000 C 
ENDBRANCH  11  14
ENDBRANCH   6  11
BRANCH   1  17
ATOM     17  N   UNL     1       2.110   7.713  18.699  0.00  0.00    +0.000 N 
ATOM     18  C   UNL     1       1.468   8.766  17.894  0.00  0.00    +0.000 C 
BRANCH  17  19
ATOM     19  C   UNL     1       1.908   7.891  20.149  0.00  0.00    +0.000 C 
BRANCH  19  20
ATOM     20  C   UNL     1       0.939   9.024  20.491  0.00  0.00    +0.000 C 
BRANCH  20  22
ATOM     21  C   UNL     1       0.091   9.391  22.820  0.00  0.00    +0.000 C 
ATOM     22  C   UNL     1      -0.118   8.631  21.521  0.00  0.00    +0.000 C 
ENDBRANCH  20  22
ENDBRANCH  19  20
ENDBRANCH  17  19
ENDBRANCH   1  17
TORSDOF 7
ENDMDL
MODEL 4
REMARK VINA RESULT:      -6.3      3.378      6.931
REMARK  Name = 
REMARK  12 active torsions:
REMARK  status: ('A' for Active; 'I' for Inactive)
REMARK    1  A    between atoms: C_1  and  C_2
REMARK    2  A    between atoms: C_2  and  C_3
REMARK    3  A    between atoms: C_3  and  C_4
REMARK    4  A    between atoms: C_4  and  N_5
REMARK    5  A    between atoms: N_5  and  C_6
REMARK    6  A    between atoms: N_5  and  C_7
REMARK    7  A    between atoms: C_10  and  S_11
REMARK    8  A    between atoms: S_11  and  C_12
REMARK    9  A    between atoms: C_16  and  S_17
REMARK   10  A    between atoms: S_17  and  N_20
REMARK   11  A    between atoms: N_20  and  C_21
REMARK   12  A    between atoms: N_20  and  C_22
REMARK                            x       y       z     vdW  Elec       q    Type
REMARK                         _______ _______ _______ _____ _____    ______ ____
ROOT
ATOM      1  C   UNL     1       4.779   4.383  16.766  0.00  0.00    +0.000 A 
ATOM      2  C   UNL     1       3.400   4.026  16.679  0.00  0.00    +0.000 A 
ATOM      3  C   UNL     1       2.566   3.811  17.782  0.00  0.00    +0.000 A 
ATOM      4  C   UNL     1       3.087   3.957  19.050  0.00  0.00    +0.000 A 
ATOM      5  C   UNL     1       4.425   4.306  19.214  0.00  0.00    +0.000 A 
ATOM      6  C   UNL     1       5.277   4.514  18.097  0.00  0.00    +0.000 A 
ENDROOT
BRANCH   4   7
ATOM      7  S   UNL     1       2.069   3.612  20.465  0.00  0.00    +0.000 S 
ATOM      8  C   UNL     1       2.975   2.402  21.381  0.00  0.00    +0.000 C 
ATOM      9  O   UNL     1       2.010   4.830  21.259  0.00  0.00    +0.000 OA
ATOM     10  O   UNL     1       0.850   2.996  19.976  0.00  0.00    +0.000 OA
ENDBRANCH   4   7
BRANCH   6  11
ATOM     11  S   UNL     1       6.923   5.139  18.487  0.00  0.00    +0.000 S 
ATOM     12  O   UNL     1       7.037   5.400  19.909  0.00  0.00    +0.000 OA
ATOM     13  O   UNL     1       7.859   4.285  17.783  0.00  0.00    +0.000 OA
BRANCH  11  14
ATOM     14  N   UNL     1       7.027   6.704  17.753  0.00  0.00    +0.000 NA
ATOM     15  C   UNL     1       5.749   7.469  17.781  0.00  0.00    +0.000 C 
ATOM     16  C   UNL     1       8.147   7.519  18.275  0.00  0.00    +0.000 C 
ENDBRANCH  11  14
ENDBRANCH   6  11
BRANCH   1  17
ATOM     17  N   UNL     1       5.471   4.579  15.559  0.00  0.00    +0.000 N 
ATOM     18  C   UNL     1       5.322   5.846  14.822  0.00  0.00    +0.000 C 
BRANCH  17  19
ATOM     19  C   UNL     1       5.950   3.471  14.712  0.00  0.00    +0.000 C 
BRANCH  19  20
ATOM     20  C   UNL     1       6.586   3.940  13.403  0.00  0.00    +0.000 C 
BRANCH  20  22
ATOM     21  C   UNL     1       4.668   3.360  11.900  0.00  0.00    +0.000 C 
ATOM     22  C   UNL     1       6.142   3.130  12.187  0.00  0.00    +0.000 C 
ENDBRANCH  20  22
ENDBRANCH  19  20
ENDBRANCH  17  19
ENDBRANCH   1  17
TORSDOF 7
ENDMDL
MODEL 5
REMARK VINA RESULT:      -6.2      2.952      7.037
REMARK  Name = 
REMARK  12 active torsions:
REMARK  status: ('A' for Active; 'I' for Inactive)
REMARK    1  A    between atoms: C_1  and  C_2
REMARK    2  A    between atoms: C_2  and  C_3
REMARK    3  A    between atoms: C_3  and  C_4
REMARK    4  A    between atoms: C_4  and  N_5
REMARK    5  A    between atoms: N_5  and  C_6
REMARK    6  A    between atoms: N_5  and  C_7
REMARK    7  A    between atoms: C_10  and  S_11
REMARK    8  A    between atoms: S_11  and  C_12
REMARK    9  A    between atoms: C_16  and  S_17
REMARK   10  A    between atoms: S_17  and  N_20
REMARK   11  A    between atoms: N_20  and  C_21
REMARK   12  A    between atoms: N_20  and  C_22
REMARK                            x       y       z     vdW  Elec       q    Type
REMARK                         _______ _______ _______ _____ _____    ______ ____
ROOT
ATOM      1  C   UNL     1       4.863   3.947  16.471  0.00  0.00    +0.000 A 
ATOM      2  C   UNL     1       4.164   2.751  16.815  0.00  0.00    +0.000 A 
ATOM      3  C   UNL     1       3.266   2.638  17.882  0.00  0.00    +0.000 A 
ATOM      4  C   UNL     1       3.017   3.746  18.664  0.00  0.00    +0.000 A 
ATOM      5  C   UNL     1       3.661   4.949  18.388  0.00  0.00    +0.000 A 
ATOM      6  C   UNL     1       4.581   5.064  17.312  0.00  0.00    +0.000 A 
ENDROOT
BRANCH   4   7
ATOM      7  S   UNL     1       1.942   3.605  20.072  0.00  0.00    +0.000 S 
ATOM      8  C   UNL     1       1.754   5.264  20.656  0.00  0.00    +0.000 C 
ATOM      9  O   UNL     1       0.650   3.149  19.583  0.00  0.00    +0.000 OA
ATOM     10  O   UNL     1       2.654   2.845  21.082  0.00  0.00    +0.000 OA
ENDBRANCH   4   7
BRANCH   6  11
ATOM     11  S   UNL     1       5.179   6.734  16.983  0.00  0.00    +0.000 S 
ATOM     12  O   UNL     1       5.215   6.982  15.555  0.00  0.00    +0.000 OA
ATOM     13  O   UNL     1       4.472   7.607  17.900  0.00  0.00    +0.000 OA
BRANCH  11  14
ATOM     14  N   UNL     1       6.843   6.749  17.464  0.00  0.00    +0.000 NA
ATOM     15  C   UNL     1       7.436   8.114  17.538  0.00  0.00    +0.000 C 
ATOM     16  C   UNL     1       7.097   5.989  18.709  0.00  0.00    +0.000 C 
ENDBRANCH  11  14
ENDBRANCH   6  11
BRANCH   1  17
ATOM     17  N   UNL     1       5.717   3.895  15.356  0.00  0.00    +0.000 N 
ATOM     18  C   UNL     1       7.162   4.129  15.522  0.00  0.00    +0.000 C 
BRANCH  17  19
ATOM     19  C   UNL     1       5.253   4.107  13.973  0.00  0.00    +0.000 C 
BRANCH  19  20
ATOM     20  C   UNL     1       6.269   3.666  12.918  0.00  0.00    +0.000 C 
BRANCH  20  22
ATOM     21  C   UNL     1       4.285   3.303  11.432  0.00  0.00    +0.000 C 
ATOM     22  C   UNL     1       5.665   2.798  11.817  0.00  0.00    +0.000 C 
ENDBRANCH  20  22
ENDBRANCH  19  20
ENDBRANCH  17  19
ENDBRANCH   1  17
TORSDOF 7
ENDMDL
MODEL 6
REMARK VINA RESULT:      -6.1      3.120      6.091
REMARK  Name = 
REMARK  12 active torsions:
REMARK  status: ('A' for Active; 'I' for Inactive)
REMARK    1  A    between atoms: C_1  and  C_2
REMARK    2  A    between atoms: C_2  and  C_3
REMARK    3  A    between atoms: C_3  and  C_4
REMARK    4  A    between atoms: C_4  and  N_5
REMARK    5  A    between atoms: N_5  and  C_6
REMARK    6  A    between atoms: N_5  and  C_7
REMARK    7  A    between atoms: C_10  and  S_11
REMARK    8  A    between atoms: S_11  and  C_12
REMARK    9  A    between atoms: C_16  and  S_17
REMARK   10  A    between atoms: S_17  and  N_20
REMARK   11  A    between atoms: N_20  and  C_21
REMARK   12  A    between atoms: N_20  and  C_22
REMARK                            x       y       z     vdW  Elec       q    Type
REMARK                         _______ _______ _______ _____ _____    ______ ____
ROOT
ATOM      1  C   UNL     1       3.939   5.802  17.845  0.00  0.00    +0.000 A 
ATOM      2  C   UNL     1       4.168   7.093  17.279  0.00  0.00    +0.000 A 
ATOM      3  C   UNL     1       3.373   8.217  17.524  0.00  0.00    +0.000 A 
ATOM      4  C   UNL     1       2.293   8.099  18.374  0.00  0.00    +0.000 A 
ATOM      5  C   UNL     1       2.009   6.871  18.967  0.00  0.00    +0.000 A 
ATOM      6  C   UNL     1       2.808   5.725  18.711  0.00  0.00    +0.000 A 
ENDROOT
BRANCH   4   7
ATOM      7  S   UNL     1       1.224   9.493  18.638  0.00  0.00    +0.000 S 
ATOM      8  C   UNL     1       2.197  10.895  18.177  0.00  0.00    +0.000 C 
ATOM      9  O   UNL     1       0.124   9.376  17.693  0.00  0.00    +0.000 OA
ATOM     10  O   UNL     1       0.962   9.569  20.063  0.00  0.00    +0.000 OA
ENDBRANCH   4   7
BRANCH   6  11
ATOM     11  S   UNL     1       2.409   4.271  19.700  0.00  0.00    +0.000 S 
ATOM     12  O   UNL     1       3.594   3.788  20.383  0.00  0.00    +0.000 OA
ATOM     13  O   UNL     1       1.185   4.585  20.410  0.00  0.00    +0.000 OA
BRANCH  11  14
ATOM     14  N   UNL     1       2.023   3.015  18.572  0.00  0.00    +0.000 NA
ATOM     15  C   UNL     1       3.033   1.922  18.517  0.00  0.00    +0.000 C 
ATOM     16  C   UNL     1       0.658   2.471  18.750  0.00  0.00    +0.000 C 
ENDBRANCH  11  14
ENDBRANCH   6  11
BRANCH   1  17
ATOM     17  N   UNL     1       4.844   4.782  17.508  0.00  0.00    +0.000 N 
ATOM     18  C   UNL     1       6.091   4.620  18.275  0.00  0.00    +0.000 C 
BRANCH  17  19
ATOM     19  C   UNL     1       4.905   4.164  16.171  0.00  0.00    +0.000 C 
BRANCH  19  20
ATOM     20  C   UNL     1       6.333   3.976  15.654  0.00  0.00    +0.000 C 
BRANCH  20  22
ATOM     21  C   UNL     1       6.010   3.696  13.186  0.00  0.00    +0.000 C 
ATOM     22  C   UNL     1       6.568   4.593  14.278  0.00  0.00    +0.000 C 
ENDBRANCH  20  22
ENDBRANCH  19  20
ENDBRANCH  17  19
ENDBRANCH   1  17
TORSDOF 7
ENDMDL
MODEL 7
REMARK VINA RESULT:      -6.1      3.335      7.157
REMARK  Name = 
REMARK  12 active torsions:
REMARK  status: ('A' for Active; 'I' for Inactive)
REMARK    1  A    between atoms: C_1  and  C_2
REMARK    2  A    between atoms: C_2  and  C_3
REMARK    3  A    between atoms: C_3  and  C_4
REMARK    4  A    between atoms: C_4  and  N_5
REMARK    5  A    between atoms: N_5  and  C_6
REMARK    6  A    between atoms: N_5  and  C_7
REMARK    7  A    between atoms: C_10  and  S_11
REMARK    8  A    between atoms: S_11  and  C_12
REMARK    9  A    between atoms: C_16  and  S_17
REMARK   10  A    between atoms: S_17  and  N_20
REMARK   11  A    between atoms: N_20  and  C_21
REMARK   12  A    between atoms: N_20  and  C_22
REMARK                            x       y       z     vdW  Elec       q    Type
REMARK                         _______ _______ _______ _____ _____    ______ ____
ROOT
ATOM      1  C   UNL     1       4.768   4.010  16.572  0.00  0.00    +0.000 A 
ATOM      2  C   UNL     1       4.035   2.836  16.920  0.00  0.00    +0.000 A 
ATOM      3  C   UNL     1       3.107   2.763  17.964  0.00  0.00    +0.000 A 
ATOM      4  C   UNL     1       2.860   3.891  18.717  0.00  0.00    +0.000 A 
ATOM      5  C   UNL     1       3.536   5.075  18.435  0.00  0.00    +0.000 A 
ATOM      6  C   UNL     1       4.486   5.150  17.382  0.00  0.00    +0.000 A 
ENDROOT
BRANCH   4   7
ATOM      7  S   UNL     1       1.745   3.801  20.098  0.00  0.00    +0.000 S 
ATOM      8  C   UNL     1       2.600   2.823  21.297  0.00  0.00    +0.000 C 
ATOM      9  O   UNL     1       1.608   5.149  20.628  0.00  0.00    +0.000 OA
ATOM     10  O   UNL     1       0.576   3.063  19.658  0.00  0.00    +0.000 OA
ENDBRANCH   4   7
BRANCH   6  11
ATOM     11  S   UNL     1       5.127   6.800  17.037  0.00  0.00    +0.000 S 
ATOM     12  O   UNL     1       5.141   7.045  15.608  0.00  0.00    +0.000 OA
ATOM     13  O   UNL     1       4.467   7.695  17.966  0.00  0.00    +0.000 OA
BRANCH  11  14
ATOM     14  N   UNL     1       6.801   6.766  17.483  0.00  0.00    +0.000 NA
ATOM     15  C   UNL     1       7.441   8.111  17.521  0.00  0.00    +0.000 C 
ATOM     16  C   UNL     1       7.056   6.019  18.735  0.00  0.00    +0.000 C 
ENDBRANCH  11  14
ENDBRANCH   6  11
BRANCH   1  17
ATOM     17  N   UNL     1       5.650   3.919  15.481  0.00  0.00    +0.000 N 
ATOM     18  C   UNL     1       7.104   4.006  15.700  0.00  0.00    +0.000 C 
BRANCH  17  19
ATOM     19  C   UNL     1       5.255   4.226  14.095  0.00  0.00    +0.000 C 
BRANCH  19  20
ATOM     20  C   UNL     1       6.161   3.575  13.048  0.00  0.00    +0.000 C 
BRANCH  20  22
ATOM     21  C   UNL     1       6.156   1.751  11.331  0.00  0.00    +0.000 C 
ATOM     22  C   UNL     1       5.394   2.941  11.890  0.00  0.00    +0.000 C 
ENDBRANCH  20  22
ENDBRANCH  19  20
ENDBRANCH  17  19
ENDBRANCH   1  17
TORSDOF 7
ENDMDL
MODEL 8
REMARK VINA RESULT:      -6.0      2.889      5.952
REMARK  Name = 
REMARK  12 active torsions:
REMARK  status: ('A' for Active; 'I' for Inactive)
REMARK    1  A    between atoms: C_1  and  C_2
REMARK    2  A    between atoms: C_2  and  C_3
REMARK    3  A    between atoms: C_3  and  C_4
REMARK    4  A    between atoms: C_4  and  N_5
REMARK    5  A    between atoms: N_5  and  C_6
REMARK    6  A    between atoms: N_5  and  C_7
REMARK    7  A    between atoms: C_10  and  S_11
REMARK    8  A    between atoms: S_11  and  C_12
REMARK    9  A    between atoms: C_16  and  S_17
REMARK   10  A    between atoms: S_17  and  N_20
REMARK   11  A    between atoms: N_20  and  C_21
REMARK   12  A    between atoms: N_20  and  C_22
REMARK                            x       y       z     vdW  Elec       q    Type
REMARK                         _______ _______ _______ _____ _____    ______ ____
ROOT
ATOM      1  C   UNL     1       4.837   5.326  17.360  0.00  0.00    +0.000 A 
ATOM      2  C   UNL     1       4.971   6.694  16.977  0.00  0.00    +0.000 A 
ATOM      3  C   UNL     1       4.052   7.699  17.295  0.00  0.00    +0.000 A 
ATOM      4  C   UNL     1       2.936   7.373  18.036  0.00  0.00    +0.000 A 
ATOM      5  C   UNL     1       2.738   6.058  18.449  0.00  0.00    +0.000 A 
ATOM      6  C   UNL     1       3.664   5.033  18.118  0.00  0.00    +0.000 A 
ENDROOT
BRANCH   4   7
ATOM      7  S   UNL     1       1.716   8.617  18.384  0.00  0.00    +0.000 S 
ATOM      8  C   UNL     1       2.494  10.140  17.939  0.00  0.00    +0.000 C 
ATOM      9  O   UNL     1       0.604   8.394  17.472  0.00  0.00    +0.000 OA
ATOM     10  O   UNL     1       1.500   8.617  19.818  0.00  0.00    +0.000 OA
ENDBRANCH   4   7
BRANCH   6  11
ATOM     11  S   UNL     1       3.349   3.432  18.887  0.00  0.00    +0.000 S 
ATOM     12  O   UNL     1       2.903   2.476  17.892  0.00  0.00    +0.000 OA
ATOM     13  O   UNL     1       4.480   3.169  19.755  0.00  0.00    +0.000 OA
BRANCH  11  14
ATOM     14  N   UNL     1       1.974   3.657  19.915  0.00  0.00    +0.000 NA
ATOM     15  C   UNL     1       0.754   2.936  19.455  0.00  0.00    +0.000 C 
ATOM     16  C   UNL     1       2.257   3.370  21.339  0.00  0.00    +0.000 C 
ENDBRANCH  11  14
ENDBRANCH   6  11
BRANCH   1  17
ATOM     17  N   UNL     1       5.861   4.445  16.974  0.00  0.00    +0.000 N 
ATOM     18  C   UNL     1       7.253   4.713  17.373  0.00  0.00    +0.000 C 
BRANCH  17  19
ATOM     19  C   UNL     1       5.758   3.546  15.810  0.00  0.00    +0.000 C 
BRANCH  19  20
ATOM     20  C   UNL     1       6.397   4.118  14.543  0.00  0.00    +0.000 C 
BRANCH  20  22
ATOM     21  C   UNL     1       6.181   3.296  12.187  0.00  0.00    +0.000 C 
ATOM     22  C   UNL     1       5.491   4.041  13.317  0.00  0.00    +0.000 C 
ENDBRANCH  20  22
ENDBRANCH  19  20
ENDBRANCH  17  19
ENDBRANCH   1  17
TORSDOF 7
ENDMDL
MODEL 9
REMARK VINA RESULT:      -6.0      1.275      1.650
REMARK  Name = 
REMARK  12 active torsions:
REMARK  status: ('A' for Active; 'I' for Inactive)
REMARK    1  A    between atoms: C_1  and  C_2
REMARK    2  A    between atoms: C_2  and  C_3
REMARK    3  A    between atoms: C_3  and  C_4
REMARK    4  A    between atoms: C_4  and  N_5
REMARK    5  A    between atoms: N_5  and  C_6
REMARK    6  A    between atoms: N_5  and  C_7
REMARK    7  A    between atoms: C_10  and  S_11
REMARK    8  A    between atoms: S_11  and  C_12
REMARK    9  A    between atoms: C_16  and  S_17
REMARK   10  A    between atoms: S_17  and  N_20
REMARK   11  A    between atoms: N_20  and  C_21
REMARK   12  A    between atoms: N_20  and  C_22
REMARK                            x       y       z     vdW  Elec       q    Type
REMARK                         _______ _______ _______ _____ _____    ______ ____
ROOT
ATOM      1  C   UNL     1       3.024   6.971  18.080  0.00  0.00    +0.000 A 
ATOM      2  C   UNL     1       4.049   7.642  17.348  0.00  0.00    +0.000 A 
ATOM      3  C   UNL     1       5.148   7.006  16.760  0.00  0.00    +0.000 A 
ATOM      4  C   UNL     1       5.266   5.637  16.875  0.00  0.00    +0.000 A 
ATOM      5  C   UNL     1       4.302   4.913  17.573  0.00  0.00    +0.000 A 
ATOM      6  C   UNL     1       3.191   5.558  18.180  0.00  0.00    +0.000 A 
ENDROOT
BRANCH   4   7
ATOM      7  S   UNL     1       6.693   4.817  16.205  0.00  0.00    +0.000 S 
ATOM      8  C   UNL     1       7.707   4.469  17.611  0.00  0.00    +0.000 C 
ATOM      9  O   UNL     1       6.240   3.550  15.650  0.00  0.00    +0.000 OA
ATOM     10  O   UNL     1       7.387   5.777  15.369  0.00  0.00    +0.000 OA
ENDBRANCH   4   7
BRANCH   6  11
ATOM     11  S   UNL     1       1.949   4.455  18.882  0.00  0.00    +0.000 S 
ATOM     12  O   UNL     1       1.407   5.021  20.102  0.00  0.00    +0.000 OA
ATOM     13  O   UNL     1       1.101   4.045  17.780  0.00  0.00    +0.000 OA
BRANCH  11  14
ATOM     14  N   UNL     1       2.803   3.043  19.406  0.00  0.00    +0.000 NA
ATOM     15  C   UNL     1       2.694   2.781  20.868  0.00  0.00    +0.000 C 
ATOM     16  C   UNL     1       2.467   1.833  18.621  0.00  0.00    +0.000 C 
ENDBRANCH  11  14
ENDBRANCH   6  11
BRANCH   1  17
ATOM     17  N   UNL     1       1.978   7.759  18.592  0.00  0.00    +0.000 N 
ATOM     18  C   UNL     1       1.265   8.699  17.711  0.00  0.00    +0.000 C 
BRANCH  17  19
ATOM     19  C   UNL     1       1.842   8.089  20.022  0.00  0.00    +0.000 C 
BRANCH  19  20
ATOM     20  C   UNL     1       1.282   9.491  20.269  0.00  0.00    +0.000 C 
BRANCH  20  22
ATOM     21  C   UNL     1      -0.337   8.224  21.701  0.00  0.00    +0.000 C 
ATOM     22  C   UNL     1       0.335   9.566  21.464  0.00  0.00    +0.000 C 
ENDBRANCH  20  22
ENDBRANCH  19  20
ENDBRANCH  17  19
ENDBRANCH   1  17
TORSDOF 7
ENDMDL
