MODEL 1
REMARK VINA RESULT:      -8.0      0.000      0.000
REMARK  Name = 
REMARK  3 active torsions:
REMARK  status: ('A' for Active; 'I' for Inactive)
REMARK    1  A    between atoms: C_1  and  C_2
REMARK    2  A    between atoms: C_2  and  C_3
REMARK    3  A    between atoms: C_3  and  C_4
REMARK                            x       y       z     vdW  Elec       q    Type
REMARK                         _______ _______ _______ _____ _____    ______ ____
ROOT
ATOM      1  C   UNL     1       2.705   8.045  18.212  0.00  0.00    +0.000 A 
ATOM      2  N   UNL     1       2.096   7.186  19.088  0.00  0.00    +0.000 NA
ATOM      3  C   UNL     1       2.901   6.159  19.106  0.00  0.00    +0.000 A 
ATOM      4  N   UNL     1       3.973   6.398  18.277  0.00  0.00    +0.000 N 
ATOM      5  N   UNL     1       3.913   7.658  17.780  0.00  0.00    +0.000 NA
ATOM      6  C   UNL     1       4.843   5.345  17.684  0.00  0.00    +0.000 C 
ATOM      7  C   UNL     1       4.732   5.529  16.140  0.00  0.00    +0.000 C 
ATOM      8  C   UNL     1       5.707   4.753  15.260  0.00  0.00    +0.000 C 
ATOM      9  C   UNL     1       7.133   4.687  15.777  0.00  0.00    +0.000 C 
ATOM     10  C   UNL     1       7.290   4.641  17.293  0.00  0.00    +0.000 C 
ATOM     11  C   UNL     1       6.337   5.572  18.062  0.00  0.00    +0.000 C 
ATOM     12  C   UNL     1       4.395   3.924  18.255  0.00  0.00    +0.000 C 
ATOM     13  C   UNL     1       3.402   3.152  17.364  0.00  0.00    +0.000 C 
ATOM     14  C   UNL     1       3.034   1.801  17.967  0.00  0.00    +0.000 C 
ATOM     15  C   UNL     1       2.430   1.949  19.353  0.00  0.00    +0.000 C 
ATOM     16  C   UNL     1       3.367   2.702  20.289  0.00  0.00    +0.000 C 
ATOM     17  C   UNL     1       3.840   4.041  19.711  0.00  0.00    +0.000 C 
ATOM     18  N   UNL     1       2.724   4.966  19.709  0.00  0.00    +0.000 N 
ATOM     19  H   UNL     1       2.045   4.929  20.453  0.00  0.00    +0.000 HD
ENDROOT
BRANCH   1  20
ATOM     20  C   UNL     1       2.013   9.267  17.711  0.00  0.00    +0.000 C 
BRANCH  20  22
ATOM     21  C   UNL     1      -0.344  10.130  18.246  0.00  0.00    +0.000 C 
ATOM     22  C   UNL     1       1.089   9.946  18.734  0.00  0.00    +0.000 C 
ENDBRANCH  20  22
ENDBRANCH   1  20
TORSDOF 2
ENDMDL
MODEL 2
REMARK VINA RESULT:      -7.4      1.353      3.978
REMARK  Name = 
REMARK  3 active torsions:
REMARK  status: ('A' for Active; 'I' for Inactive)
REMARK    1  A    between atoms: C_1  and  C_2
REMARK    2  A    between atoms: C_2  and  C_3
REMARK    3  A    between atoms: C_3  and  C_4
REMARK                            x       y       z     vdW  Elec       q    Type
REMARK                         _______ _______ _______ _____ _____    ______ ____
ROOT
ATOM      1  C   UNL     1       2.148   7.863  18.809  0.00  0.00    +0.000 A 
ATOM      2  N   UNL     1       3.144   8.237  17.946  0.00  0.00    +0.000 NA
ATOM      3  C   UNL     1       3.595   7.096  17.499  0.00  0.00    +0.000 A 
ATOM      4  N   UNL     1       2.879   6.065  18.064  0.00  0.00    +0.000 N 
ATOM      5  N   UNL     1       1.871   6.552  18.827  0.00  0.00    +0.000 NA
ATOM      6  C   UNL     1       3.355   4.658  18.171  0.00  0.00    +0.000 C 
ATOM      7  C   UNL     1       3.349   4.328  19.694  0.00  0.00    +0.000 C 
ATOM      8  C   UNL     1       3.552   2.873  20.108  0.00  0.00    +0.000 C 
ATOM      9  C   UNL     1       2.829   1.851  19.248  0.00  0.00    +0.000 C 
ATOM     10  C   UNL     1       2.696   2.200  17.770  0.00  0.00    +0.000 C 
ATOM     11  C   UNL     1       2.357   3.674  17.490  0.00  0.00    +0.000 C 
ATOM     12  C   UNL     1       4.763   4.530  17.431  0.00  0.00    +0.000 C 
ATOM     13  C   UNL     1       5.992   4.676  18.350  0.00  0.00    +0.000 C 
ATOM     14  C   UNL     1       7.297   4.528  17.574  0.00  0.00    +0.000 C 
ATOM     15  C   UNL     1       7.404   5.547  16.453  0.00  0.00    +0.000 C 
ATOM     16  C   UNL     1       6.218   5.453  15.502  0.00  0.00    +0.000 C 
ATOM     17  C   UNL     1       4.866   5.518  16.225  0.00  0.00    +0.000 C 
ATOM     18  N   UNL     1       4.665   6.868  16.712  0.00  0.00    +0.000 N 
ATOM     19  H   UNL     1       5.007   7.648  16.172  0.00  0.00    +0.000 HD
ENDROOT
BRANCH   1  20
ATOM     20  C   UNL     1       1.502   8.846  19.724  0.00  0.00    +0.000 C 
BRANCH  20  22
ATOM     21  C   UNL     1      -0.205   8.651  21.632  0.00  0.00    +0.000 C 
ATOM     22  C   UNL     1       1.193   8.305  21.130  0.00  0.00    +0.000 C 
ENDBRANCH  20  22
ENDBRANCH   1  20
TORSDOF 2
ENDMDL
MODEL 3
REMARK VINA RESULT:      -7.3      1.257      1.403
REMARK  Name = 
REMARK  3 active torsions:
REMARK  status: ('A' for Active; 'I' for Inactive)
REMARK    1  A    between atoms: C_1  and  C_2
REMARK    2  A    between atoms: C_2  and  C_3
REMARK    3  A    between atoms: C_3  and  C_4
REMARK                            x       y       z     vdW  Elec       q    Type
REMARK                         _______ _______ _______ _____ _____    ______ ____
ROOT
ATOM      1  C   UNL     1       2.085   8.405  18.624  0.00  0.00    +0.000 A 
ATOM      2  N   UNL     1       1.425   7.792  19.656  0.00  0.00    +0.000 NA
ATOM      3  C   UNL     1       2.128   6.709  19.857  0.00  0.00    +0.000 A 
ATOM      4  N   UNL     1       3.190   6.680  18.983  0.00  0.00    +0.000 N 
ATOM      5  N   UNL     1       3.235   7.824  18.256  0.00  0.00    +0.000 NA
ATOM      6  C   UNL     1       3.934   5.452  18.588  0.00  0.00    +0.000 C 
ATOM      7  C   UNL     1       3.791   5.354  17.040  0.00  0.00    +0.000 C 
ATOM      8  C   UNL     1       4.657   4.332  16.308  0.00  0.00    +0.000 C 
ATOM      9  C   UNL     1       6.086   4.222  16.808  0.00  0.00    +0.000 C 
ATOM     10  C   UNL     1       6.288   4.444  18.303  0.00  0.00    +0.000 C 
ATOM     11  C   UNL     1       5.456   5.594  18.895  0.00  0.00    +0.000 C 
ATOM     12  C   UNL     1       3.371   4.216  19.425  0.00  0.00    +0.000 C 
ATOM     13  C   UNL     1       2.280   3.395  18.711  0.00  0.00    +0.000 C 
ATOM     14  C   UNL     1       1.803   2.225  19.565  0.00  0.00    +0.000 C 
ATOM     15  C   UNL     1       1.263   2.690  20.906  0.00  0.00    +0.000 C 
ATOM     16  C   UNL     1       2.298   3.507  21.668  0.00  0.00    +0.000 C 
ATOM     17  C   UNL     1       2.878   4.660  20.840  0.00  0.00    +0.000 C 
ATOM     18  N   UNL     1       1.857   5.675  20.678  0.00  0.00    +0.000 N 
ATOM     19  H   UNL     1       1.203   5.847  21.426  0.00  0.00    +0.000 HD
ENDROOT
BRANCH   1  20
ATOM     20  C   UNL     1       1.498   9.574  17.910  0.00  0.00    +0.000 C 
BRANCH  20  22
ATOM     21  C   UNL     1      -0.998  10.161  17.775  0.00  0.00    +0.000 C 
ATOM     22  C   UNL     1       0.281  10.206  18.605  0.00  0.00    +0.000 C 
ENDBRANCH  20  22
ENDBRANCH   1  20
TORSDOF 2
ENDMDL
MODEL 4
REMARK VINA RESULT:      -7.2      1.400      4.010
REMARK  Name = 
REMARK  3 active torsions:
REMARK  status: ('A' for Active; 'I' for Inactive)
REMARK    1  A    between atoms: C_1  and  C_2
REMARK    2  A    between atoms: C_2  and  C_3
REMARK    3  A    between atoms: C_3  and  C_4
REMARK                            x       y       z     vdW  Elec       q    Type
REMARK                         _______ _______ _______ _____ _____    ______ ____
ROOT
ATOM      1  C   UNL     1       1.840   8.847  18.139  0.00  0.00    +0.000 A 
ATOM      2  N   UNL     1       3.026   8.841  17.454  0.00  0.00    +0.000 NA
ATOM      3  C   UNL     1       3.336   7.574  17.407  0.00  0.00    +0.000 A 
ATOM      4  N   UNL     1       2.357   6.835  18.031  0.00  0.00    +0.000 N 
ATOM      5  N   UNL     1       1.332   7.637  18.411  0.00  0.00    +0.000 NA
ATOM      6  C   UNL     1       2.544   5.463  18.577  0.00  0.00    +0.000 C 
ATOM      7  C   UNL     1       2.205   5.565  20.094  0.00  0.00    +0.000 C 
ATOM      8  C   UNL     1       2.063   4.265  20.881  0.00  0.00    +0.000 C 
ATOM      9  C   UNL     1       1.336   3.147  20.155  0.00  0.00    +0.000 C 
ATOM     10  C   UNL     1       1.537   3.093  18.644  0.00  0.00    +0.000 C 
ATOM     11  C   UNL     1       1.525   4.465  17.949  0.00  0.00    +0.000 C 
ATOM     12  C   UNL     1       4.016   4.961  18.219  0.00  0.00    +0.000 C 
ATOM     13  C   UNL     1       5.065   5.195  19.324  0.00  0.00    +0.000 C 
ATOM     14  C   UNL     1       6.441   4.677  18.916  0.00  0.00    +0.000 C 
ATOM     15  C   UNL     1       6.929   5.329  17.634  0.00  0.00    +0.000 C 
ATOM     16  C   UNL     1       5.937   5.130  16.496  0.00  0.00    +0.000 C 
ATOM     17  C   UNL     1       4.511   5.560  16.864  0.00  0.00    +0.000 C 
ATOM     18  N   UNL     1       4.473   7.006  16.954  0.00  0.00    +0.000 N 
ATOM     19  H   UNL     1       5.041   7.559  16.332  0.00  0.00    +0.000 HD
ENDROOT
BRANCH   1  20
ATOM     20  C   UNL     1       1.226  10.115  18.624  0.00  0.00    +0.000 C 
BRANCH  20  22
ATOM     21  C   UNL     1      -1.213  10.201  17.830  0.00  0.00    +0.000 C 
ATOM     22  C   UNL     1      -0.259  10.006  19.004  0.00  0.00    +0.000 C 
ENDBRANCH  20  22
ENDBRANCH   1  20
TORSDOF 2
ENDMDL
MODEL 5
REMARK VINA RESULT:      -7.1      1.007      3.845
REMARK  Name = 
REMARK  3 active torsions:
REMARK  status: ('A' for Active; 'I' for Inactive)
REMARK    1  A    between atoms: C_1  and  C_2
REMARK    2  A    between atoms: C_2  and  C_3
REMARK    3  A    between atoms: C_3  and  C_4
REMARK                            x       y       z     vdW  Elec       q    Type
REMARK                         _______ _______ _______ _____ _____    ______ ____
ROOT
ATOM      1  C   UNL     1       2.158   7.972  18.565  0.00  0.00    +0.000 A 
ATOM      2  N   UNL     1       3.192   8.287  17.724  0.00  0.00    +0.000 NA
ATOM      3  C   UNL     1       3.639   7.118  17.352  0.00  0.00    +0.000 A 
ATOM      4  N   UNL     1       2.884   6.128  17.937  0.00  0.00    +0.000 N 
ATOM      5  N   UNL     1       1.856   6.669  18.636  0.00  0.00    +0.000 NA
ATOM      6  C   UNL     1       3.330   4.720  18.131  0.00  0.00    +0.000 C 
ATOM      7  C   UNL     1       3.261   4.466  19.667  0.00  0.00    +0.000 C 
ATOM      8  C   UNL     1       3.421   3.030  20.158  0.00  0.00    +0.000 C 
ATOM      9  C   UNL     1       2.714   1.979  19.321  0.00  0.00    +0.000 C 
ATOM     10  C   UNL     1       2.643   2.257  17.824  0.00  0.00    +0.000 C 
ATOM     11  C   UNL     1       2.341   3.720  17.460  0.00  0.00    +0.000 C 
ATOM     12  C   UNL     1       4.763   4.534  17.453  0.00  0.00    +0.000 C 
ATOM     13  C   UNL     1       5.959   4.705  18.410  0.00  0.00    +0.000 C 
ATOM     14  C   UNL     1       7.289   4.499  17.694  0.00  0.00    +0.000 C 
ATOM     15  C   UNL     1       7.456   5.460  16.530  0.00  0.00    +0.000 C 
ATOM     16  C   UNL     1       6.306   5.338  15.539  0.00  0.00    +0.000 C 
ATOM     17  C   UNL     1       4.929   5.460  16.205  0.00  0.00    +0.000 C 
ATOM     18  N   UNL     1       4.734   6.835  16.618  0.00  0.00    +0.000 N 
ATOM     19  H   UNL     1       5.110   7.582  16.055  0.00  0.00    +0.000 HD
ENDROOT
BRANCH   1  20
ATOM     20  C   UNL     1       1.495   9.009  19.406  0.00  0.00    +0.000 C 
BRANCH  20  22
ATOM     21  C   UNL     1      -0.593  10.253  18.581  0.00  0.00    +0.000 C 
ATOM     22  C   UNL     1       0.930  10.206  18.624  0.00  0.00    +0.000 C 
ENDBRANCH  20  22
ENDBRANCH   1  20
TORSDOF 2
ENDMDL
MODEL 6
REMARK VINA RESULT:      -7.0      1.511      4.033
REMARK  Name = 
REMARK  3 active torsions:
REMARK  status: ('A' for Active; 'I' for Inactive)
REMARK    1  A    between atoms: C_1  and  C_2
REMARK    2  A    between atoms: C_2  and  C_3
REMARK    3  A    between atoms: C_3  and  C_4
REMARK                            x       y       z     vdW  Elec       q    Type
REMARK                         _______ _______ _______ _____ _____    ______ ____
ROOT
ATOM      1  C   UNL     1       1.839   6.882  20.033  0.00  0.00    +0.000 A 
ATOM      2  N   UNL     1       2.623   7.639  19.204  0.00  0.00    +0.000 NA
ATOM      3  C   UNL     1       3.215   6.747  18.457  0.00  0.00    +0.000 A 
ATOM      4  N   UNL     1       2.787   5.489  18.814  0.00  0.00    +0.000 N 
ATOM      5  N   UNL     1       1.816   5.571  19.756  0.00  0.00    +0.000 NA
ATOM      6  C   UNL     1       3.527   4.227  18.535  0.00  0.00    +0.000 C 
ATOM      7  C   UNL     1       3.786   3.576  19.927  0.00  0.00    +0.000 C 
ATOM      8  C   UNL     1       4.310   2.143  19.956  0.00  0.00    +0.000 C 
ATOM      9  C   UNL     1       3.683   1.206  18.940  0.00  0.00    +0.000 C 
ATOM     10  C   UNL     1       3.291   1.835  17.607  0.00  0.00    +0.000 C 
ATOM     11  C   UNL     1       2.648   3.228  17.724  0.00  0.00    +0.000 C 
ATOM     12  C   UNL     1       4.822   4.569  17.668  0.00  0.00    +0.000 C 
ATOM     13  C   UNL     1       6.114   4.767  18.485  0.00  0.00    +0.000 C 
ATOM     14  C   UNL     1       7.308   5.075  17.588  0.00  0.00    +0.000 C 
ATOM     15  C   UNL     1       7.072   6.314  16.743  0.00  0.00    +0.000 C 
ATOM     16  C   UNL     1       5.808   6.181  15.903  0.00  0.00    +0.000 C 
ATOM     17  C   UNL     1       4.577   5.796  16.733  0.00  0.00    +0.000 C 
ATOM     18  N   UNL     1       4.194   6.931  17.548  0.00  0.00    +0.000 N 
ATOM     19  H   UNL     1       4.309   7.865  17.187  0.00  0.00    +0.000 HD
ENDROOT
BRANCH   1  20
ATOM     20  C   UNL     1       1.149   7.478  21.212  0.00  0.00    +0.000 C 
BRANCH  20  22
ATOM     21  C   UNL     1       0.166   9.585  22.299  0.00  0.00    +0.000 C 
ATOM     22  C   UNL     1       0.722   8.943  21.032  0.00  0.00    +0.000 C 
ENDBRANCH  20  22
ENDBRANCH   1  20
TORSDOF 2
ENDMDL
MODEL 7
REMARK VINA RESULT:      -6.8      2.114      4.479
REMARK  Name = 
REMARK  3 active torsions:
REMARK  status: ('A' for Active; 'I' for Inactive)
REMARK    1  A    between atoms: C_1  and  C_2
REMARK    2  A    between atoms: C_2  and  C_3
REMARK    3  A    between atoms: C_3  and  C_4
REMARK                            x       y       z     vdW  Elec       q    Type
REMARK                         _______ _______ _______ _____ _____    ______ ____
ROOT
ATOM      1  C   UNL     1       1.422   8.014  20.856  0.00  0.00    +0.000 A 
ATOM      2  N   UNL     1       2.238   8.407  19.829  0.00  0.00    +0.000 NA
ATOM      3  C   UNL     1       2.512   7.284  19.221  0.00  0.00    +0.000 A 
ATOM      4  N   UNL     1       1.865   6.247  19.853  0.00  0.00    +0.000 N 
ATOM      5  N   UNL     1       1.070   6.721  20.844  0.00  0.00    +0.000 NA
ATOM      6  C   UNL     1       2.261   4.815  19.761  0.00  0.00    +0.000 C 
ATOM      7  C   UNL     1       2.552   4.365  21.225  0.00  0.00    +0.000 C 
ATOM      8  C   UNL     1       2.742   2.874  21.486  0.00  0.00    +0.000 C 
ATOM      9  C   UNL     1       1.792   1.960  20.731  0.00  0.00    +0.000 C 
ATOM     10  C   UNL     1       1.377   2.432  19.343  0.00  0.00    +0.000 C 
ATOM     11  C   UNL     1       1.082   3.938  19.242  0.00  0.00    +0.000 C 
ATOM     12  C   UNL     1       3.473   4.679  18.732  0.00  0.00    +0.000 C 
ATOM     13  C   UNL     1       4.873   4.691  19.376  0.00  0.00    +0.000 C 
ATOM     14  C   UNL     1       5.976   4.543  18.333  0.00  0.00    +0.000 C 
ATOM     15  C   UNL     1       5.912   5.642  17.287  0.00  0.00    +0.000 C 
ATOM     16  C   UNL     1       4.551   5.681  16.605  0.00  0.00    +0.000 C 
ATOM     17  C   UNL     1       3.386   5.754  17.601  0.00  0.00    +0.000 C 
ATOM     18  N   UNL     1       3.378   7.069  18.210  0.00  0.00    +0.000 N 
ATOM     19  H   UNL     1       3.649   7.872  17.664  0.00  0.00    +0.000 HD
ENDROOT
BRANCH   1  20
ATOM     20  C   UNL     1       1.044   8.950  21.953  0.00  0.00    +0.000 C 
BRANCH  20  22
ATOM     21  C   UNL     1      -0.854  10.229  23.115  0.00  0.00    +0.000 C 
ATOM     22  C   UNL     1      -0.468   9.068  22.204  0.00  0.00    +0.000 C 
ENDBRANCH  20  22
ENDBRANCH   1  20
TORSDOF 2
ENDMDL
MODEL 8
REMARK VINA RESULT:      -6.5      1.693      1.987
REMARK  Name = 
REMARK  3 active torsions:
REMARK  status: ('A' for Active; 'I' for Inactive)
REMARK    1  A    between atoms: C_1  and  C_2
REMARK    2  A    between atoms: C_2  and  C_3
REMARK    3  A    between atoms: C_3  and  C_4
REMARK                            x       y       z     vdW  Elec       q    Type
REMARK                         _______ _______ _______ _____ _____    ______ ____
ROOT
ATOM      1  C   UNL     1       1.701   7.735  20.326  0.00  0.00    +0.000 A 
ATOM      2  N   UNL     1       1.130   6.565  20.753  0.00  0.00    +0.000 NA
ATOM      3  C   UNL     1       1.986   5.658  20.365  0.00  0.00    +0.000 A 
ATOM      4  N   UNL     1       3.049   6.265  19.737  0.00  0.00    +0.000 N 
ATOM      5  N   UNL     1       2.929   7.614  19.804  0.00  0.00    +0.000 NA
ATOM      6  C   UNL     1       3.973   5.590  18.785  0.00  0.00    +0.000 C 
ATOM      7  C   UNL     1       3.863   6.393  17.453  0.00  0.00    +0.000 C 
ATOM      8  C   UNL     1       4.880   6.094  16.356  0.00  0.00    +0.000 C 
ATOM      9  C   UNL     1       6.304   5.881  16.836  0.00  0.00    +0.000 C 
ATOM     10  C   UNL     1       6.455   5.217  18.201  0.00  0.00    +0.000 C 
ATOM     11  C   UNL     1       5.453   5.704  19.261  0.00  0.00    +0.000 C 
ATOM     12  C   UNL     1       3.594   4.043  18.705  0.00  0.00    +0.000 C 
ATOM     13  C   UNL     1       2.646   3.668  17.549  0.00  0.00    +0.000 C 
ATOM     14  C   UNL     1       2.341   2.174  17.530  0.00  0.00    +0.000 C 
ATOM     15  C   UNL     1       1.723   1.709  18.837  0.00  0.00    +0.000 C 
ATOM     16  C   UNL     1       2.615   2.045  20.024  0.00  0.00    +0.000 C 
ATOM     17  C   UNL     1       3.025   3.523  20.064  0.00  0.00    +0.000 C 
ATOM     18  N   UNL     1       1.864   4.316  20.416  0.00  0.00    +0.000 N 
ATOM     19  H   UNL     1       1.184   3.945  21.060  0.00  0.00    +0.000 HD
ENDROOT
BRANCH   1  20
ATOM     20  C   UNL     1       0.953   9.024  20.358  0.00  0.00    +0.000 C 
BRANCH  20  22
ATOM     21  C   UNL     1       0.243   9.418  22.793  0.00  0.00    +0.000 C 
ATOM     22  C   UNL     1      -0.199   9.072  21.375  0.00  0.00    +0.000 C 
ENDBRANCH  20  22
ENDBRANCH   1  20
TORSDOF 2
ENDMDL
MODEL 9
REMARK VINA RESULT:      -6.4      5.490      8.152
REMARK  Name = 
REMARK  3 active torsions:
REMARK  status: ('A' for Active; 'I' for Inactive)
REMARK    1  A    between atoms: C_1  and  C_2
REMARK    2  A    between atoms: C_2  and  C_3
REMARK    3  A    between atoms: C_3  and  C_4
REMARK                            x       y       z     vdW  Elec       q    Type
REMARK                         _______ _______ _______ _____ _____    ______ ____
ROOT
ATOM      1  C   UNL     1       1.768  13.968  18.732  0.00  0.00    +0.000 A 
ATOM      2  N   UNL     1       0.481  14.287  18.392  0.00  0.00    +0.000 NA
ATOM      3  C   UNL     1      -0.201  13.252  18.802  0.00  0.00    +0.000 A 
ATOM      4  N   UNL     1       0.649  12.342  19.388  0.00  0.00    +0.000 N 
ATOM      5  N   UNL     1       1.908  12.843  19.447  0.00  0.00    +0.000 NA
ATOM      6  C   UNL     1       0.356  10.893  19.563  0.00  0.00    +0.000 C 
ATOM      7  C   UNL     1       1.490  10.141  18.804  0.00  0.00    +0.000 C 
ATOM      8  C   UNL     1       1.605   8.633  19.009  0.00  0.00    +0.000 C 
ATOM      9  C   UNL     1       1.389   8.157  20.435  0.00  0.00    +0.000 C 
ATOM     10  C   UNL     1       0.381   8.952  21.257  0.00  0.00    +0.000 C 
ATOM     11  C   UNL     1       0.458  10.476  21.061  0.00  0.00    +0.000 C 
ATOM     12  C   UNL     1      -1.133  10.604  19.066  0.00  0.00    +0.000 C 
ATOM     13  C   UNL     1      -1.245  10.120  17.606  0.00  0.00    +0.000 C 
ATOM     14  C   UNL     1      -2.693   9.852  17.210  0.00  0.00    +0.000 C 
ATOM     15  C   UNL     1      -3.561  11.085  17.382  0.00  0.00    +0.000 C 
ATOM     16  C   UNL     1      -3.500  11.613  18.810  0.00  0.00    +0.000 C 
ATOM     17  C   UNL     1      -2.064  11.835  19.303  0.00  0.00    +0.000 C 
ATOM     18  N   UNL     1      -1.507  12.979  18.610  0.00  0.00    +0.000 N 
ATOM     19  H   UNL     1      -2.104  13.756  18.372  0.00  0.00    +0.000 HD
ENDROOT
BRANCH   1  20
ATOM     20  C   UNL     1       2.925  14.773  18.246  0.00  0.00    +0.000 C 
BRANCH  20  22
ATOM     21  C   UNL     1       2.776  17.050  17.072  0.00  0.00    +0.000 C 
ATOM     22  C   UNL     1       2.756  16.293  18.395  0.00  0.00    +0.000 C 
ENDBRANCH  20  22
ENDBRANCH   1  20
TORSDOF 2
ENDMDL
