MODEL 1
REMARK VINA RESULT:      -7.4      0.000      0.000
REMARK  Name = 
REMARK  7 active torsions:
REMARK  status: ('A' for Active; 'I' for Inactive)
REMARK    1  A    between atoms: C_1  and  C_2
REMARK    2  A    between atoms: C_4  and  C_5
REMARK    3  A    between atoms: C_4  and  C_6
REMARK    4  A    between atoms: C_8  and  O_9
REMARK    5  A    between atoms: C_10  and  N_11
REMARK    6  A    between atoms: N_12  and  C_13
REMARK    7  A    between atoms: C_13  and  S_15
REMARK                            x       y       z     vdW  Elec       q    Type
REMARK                         _______ _______ _______ _____ _____    ______ ____
ROOT
ATOM      1  C   UNL     1       0.524   4.669  20.426  0.00  0.00    +0.000 C 
ATOM      2  C   UNL     1       1.991   5.012  20.677  0.00  0.00    +0.000 C 
ATOM      3  C   UNL     1       2.896   3.775  20.888  0.00  0.00    +0.000 C 
ATOM      4  C   UNL     1       3.317   2.962  19.608  0.00  0.00    +0.000 C 
ATOM      5  C   UNL     1       4.451   2.019  20.074  0.00  0.00    +0.000 C 
ATOM      6  C   UNL     1       2.149   2.100  19.095  0.00  0.00    +0.000 C 
ATOM      7  N   UNL     1       3.755   3.893  18.543  0.00  0.00    +0.000 N 
ATOM      8  C   UNL     1       4.499   3.681  17.400  0.00  0.00    +0.000 A 
ATOM      9  C   UNL     1       4.633   4.912  16.775  0.00  0.00    +0.000 A 
ATOM     10  C   UNL     1       3.899   5.886  17.498  0.00  0.00    +0.000 A 
ATOM     11  C   UNL     1       3.621   7.260  17.349  0.00  0.00    +0.000 A 
ATOM     12  C   UNL     1       2.822   7.904  18.305  0.00  0.00    +0.000 A 
ATOM     13  C   UNL     1       2.296   7.203  19.389  0.00  0.00    +0.000 A 
ATOM     14  C   UNL     1       2.554   5.836  19.555  0.00  0.00    +0.000 A 
ATOM     15  C   UNL     1       3.359   5.222  18.588  0.00  0.00    +0.000 A 
ENDROOT
BRANCH   8  16
ATOM     16  O   UNL     1       4.970   2.495  17.016  0.00  0.00    +0.000 OA
ATOM     17  H   UNL     1       4.271   1.826  17.059  0.00  0.00    +0.000 HD
ENDBRANCH   8  16
BRANCH   9  18
ATOM     18  N   UNL     1       5.293   5.204  15.572  0.00  0.00    +0.000 NA
ATOM     19  N   UNL     1       6.173   4.367  15.279  0.00  0.00    +0.000 NA
BRANCH  19  20
ATOM     20  C   UNL     1       6.801   4.620  14.088  0.00  0.00    +0.000 C 
ATOM     21  N   UNL     1       7.737   5.499  13.948  0.00  0.00    +0.000 NA
ATOM     22  H   UNL     1       7.861   5.917  14.876  0.00  0.00    +0.000 HD
BRANCH  20  23
ATOM     23  S   UNL     1       6.302   3.694  12.695  0.00  0.00    +0.000 S 
ATOM     24  H   UNL     1       6.675   2.512  13.202  0.00  0.00    +0.000 HD
ENDBRANCH  20  23
ENDBRANCH  19  20
ENDBRANCH   9  18
TORSDOF 4
ENDMDL
MODEL 2
REMARK VINA RESULT:      -6.7      3.797      5.131
REMARK  Name = 
REMARK  7 active torsions:
REMARK  status: ('A' for Active; 'I' for Inactive)
REMARK    1  A    between atoms: C_1  and  C_2
REMARK    2  A    between atoms: C_4  and  C_5
REMARK    3  A    between atoms: C_4  and  C_6
REMARK    4  A    between atoms: C_8  and  O_9
REMARK    5  A    between atoms: C_10  and  N_11
REMARK    6  A    between atoms: N_12  and  C_13
REMARK    7  A    between atoms: C_13  and  S_15
REMARK                            x       y       z     vdW  Elec       q    Type
REMARK                         _______ _______ _______ _____ _____    ______ ____
ROOT
ATOM      1  C   UNL     1       4.710   1.566  19.229  0.00  0.00    +0.000 C 
ATOM      2  C   UNL     1       3.591   2.053  18.311  0.00  0.00    +0.000 C 
ATOM      3  C   UNL     1       2.203   2.111  18.993  0.00  0.00    +0.000 C 
ATOM      4  C   UNL     1       1.923   3.322  19.959  0.00  0.00    +0.000 C 
ATOM      5  C   UNL     1       0.398   3.298  20.218  0.00  0.00    +0.000 C 
ATOM      6  C   UNL     1       2.647   3.131  21.304  0.00  0.00    +0.000 C 
ATOM      7  N   UNL     1       2.371   4.583  19.326  0.00  0.00    +0.000 N 
ATOM      8  C   UNL     1       2.062   5.900  19.604  0.00  0.00    +0.000 A 
ATOM      9  C   UNL     1       2.745   6.675  18.680  0.00  0.00    +0.000 A 
ATOM     10  C   UNL     1       3.548   5.836  17.866  0.00  0.00    +0.000 A 
ATOM     11  C   UNL     1       4.468   6.026  16.815  0.00  0.00    +0.000 A 
ATOM     12  C   UNL     1       5.089   4.908  16.240  0.00  0.00    +0.000 A 
ATOM     13  C   UNL     1       4.813   3.619  16.698  0.00  0.00    +0.000 A 
ATOM     14  C   UNL     1       3.906   3.407  17.744  0.00  0.00    +0.000 A 
ATOM     15  C   UNL     1       3.299   4.542  18.295  0.00  0.00    +0.000 A 
ENDROOT
BRANCH   8  16
ATOM     16  O   UNL     1       1.257   6.292  20.591  0.00  0.00    +0.000 OA
ATOM     17  H   UNL     1       0.354   6.410  20.262  0.00  0.00    +0.000 HD
ENDBRANCH   8  16
BRANCH   9  18
ATOM     18  N   UNL     1       2.762   8.074  18.568  0.00  0.00    +0.000 NA
ATOM     19  N   UNL     1       1.620   8.572  18.478  0.00  0.00    +0.000 NA
BRANCH  19  20
ATOM     20  C   UNL     1       1.618   9.940  18.403  0.00  0.00    +0.000 C 
ATOM     21  N   UNL     1       2.189  10.604  17.453  0.00  0.00    +0.000 NA
ATOM     22  H   UNL     1       2.606   9.898  16.839  0.00  0.00    +0.000 HD
BRANCH  20  23
ATOM     23  S   UNL     1       0.794  10.820  19.666  0.00  0.00    +0.000 S 
ATOM     24  H   UNL     1       1.012  12.026  19.128  0.00  0.00    +0.000 HD
ENDBRANCH  20  23
ENDBRANCH  19  20
ENDBRANCH   9  18
TORSDOF 4
ENDMDL
MODEL 3
REMARK VINA RESULT:      -6.4      3.627      5.195
REMARK  Name = 
REMARK  7 active torsions:
REMARK  status: ('A' for Active; 'I' for Inactive)
REMARK    1  A    between atoms: C_1  and  C_2
REMARK    2  A    between atoms: C_4  and  C_5
REMARK    3  A    between atoms: C_4  and  C_6
REMARK    4  A    between atoms: C_8  and  O_9
REMARK    5  A    between atoms: C_10  and  N_11
REMARK    6  A    between atoms: N_12  and  C_13
REMARK    7  A    between atoms: C_13  and  S_15
REMARK                            x       y       z     vdW  Elec       q    Type
REMARK                         _______ _______ _______ _____ _____    ______ ____
ROOT
ATOM      1  C   UNL     1       3.614   1.637  18.255  0.00  0.00    +0.000 C 
ATOM      2  C   UNL     1       4.247   2.639  19.218  0.00  0.00    +0.000 C 
ATOM      3  C   UNL     1       5.459   3.397  18.626  0.00  0.00    +0.000 C 
ATOM      4  C   UNL     1       5.155   4.571  17.622  0.00  0.00    +0.000 C 
ATOM      5  C   UNL     1       6.492   5.334  17.464  0.00  0.00    +0.000 C 
ATOM      6  C   UNL     1       4.743   4.024  16.243  0.00  0.00    +0.000 C 
ATOM      7  N   UNL     1       4.075   5.428  18.162  0.00  0.00    +0.000 N 
ATOM      8  C   UNL     1       3.687   6.713  17.841  0.00  0.00    +0.000 A 
ATOM      9  C   UNL     1       2.631   7.034  18.680  0.00  0.00    +0.000 A 
ATOM     10  C   UNL     1       2.309   5.908  19.480  0.00  0.00    +0.000 A 
ATOM     11  C   UNL     1       1.341   5.606  20.459  0.00  0.00    +0.000 A 
ATOM     12  C   UNL     1       1.337   4.334  21.047  0.00  0.00    +0.000 A 
ATOM     13  C   UNL     1       2.270   3.367  20.671  0.00  0.00    +0.000 A 
ATOM     14  C   UNL     1       3.238   3.643  19.697  0.00  0.00    +0.000 A 
ATOM     15  C   UNL     1       3.220   4.924  19.132  0.00  0.00    +0.000 A 
ENDROOT
BRANCH   8  16
ATOM     16  O   UNL     1       4.253   7.455  16.890  0.00  0.00    +0.000 OA
ATOM     17  H   UNL     1       4.379   6.933  16.085  0.00  0.00    +0.000 HD
ENDBRANCH   8  16
BRANCH   9  18
ATOM     18  N   UNL     1       1.891   8.226  18.722  0.00  0.00    +0.000 NA
ATOM     19  N   UNL     1       2.459   9.177  18.144  0.00  0.00    +0.000 NA
BRANCH  19  20
ATOM     20  C   UNL     1       1.732  10.338  18.147  0.00  0.00    +0.000 C 
ATOM     21  N   UNL     1       2.197  11.473  17.740  0.00  0.00    +0.000 NA
ATOM     22  H   UNL     1       3.163  11.284  17.452  0.00  0.00    +0.000 HD
BRANCH  20  23
ATOM     23  S   UNL     1       0.089  10.264  18.731  0.00  0.00    +0.000 S 
ATOM     24  H   UNL     1       0.374  10.760  19.942  0.00  0.00    +0.000 HD
ENDBRANCH  20  23
ENDBRANCH  19  20
ENDBRANCH   9  18
TORSDOF 4
ENDMDL
MODEL 4
REMARK VINA RESULT:      -6.4      8.933     11.538
REMARK  Name = 
REMARK  7 active torsions:
REMARK  status: ('A' for Active; 'I' for Inactive)
REMARK    1  A    between atoms: C_1  and  C_2
REMARK    2  A    between atoms: C_4  and  C_5
REMARK    3  A    between atoms: C_4  and  C_6
REMARK    4  A    between atoms: C_8  and  O_9
REMARK    5  A    between atoms: C_10  and  N_11
REMARK    6  A    between atoms: N_12  and  C_13
REMARK    7  A    between atoms: C_13  and  S_15
REMARK                            x       y       z     vdW  Elec       q    Type
REMARK                         _______ _______ _______ _____ _____    ______ ____
ROOT
ATOM      1  C   UNL     1       0.660   9.657  18.282  0.00  0.00    +0.000 C 
ATOM      2  C   UNL     1       1.190  10.680  19.285  0.00  0.00    +0.000 C 
ATOM      3  C   UNL     1       0.929  12.150  18.877  0.00  0.00    +0.000 C 
ATOM      4  C   UNL     1      -0.527  12.711  19.090  0.00  0.00    +0.000 C 
ATOM      5  C   UNL     1      -0.406  14.243  18.917  0.00  0.00    +0.000 C 
ATOM      6  C   UNL     1      -1.486  12.174  18.013  0.00  0.00    +0.000 C 
ATOM      7  N   UNL     1      -1.021  12.329  20.433  0.00  0.00    +0.000 N 
ATOM      8  C   UNL     1      -2.054  12.831  21.198  0.00  0.00    +0.000 A 
ATOM      9  C   UNL     1      -2.056  12.117  22.386  0.00  0.00    +0.000 A 
ATOM     10  C   UNL     1      -1.061  11.109  22.329  0.00  0.00    +0.000 A 
ATOM     11  C   UNL     1      -0.618  10.074  23.178  0.00  0.00    +0.000 A 
ATOM     12  C   UNL     1       0.433   9.247  22.758  0.00  0.00    +0.000 A 
ATOM     13  C   UNL     1       1.036   9.431  21.514  0.00  0.00    +0.000 A 
ATOM     14  C   UNL     1       0.611  10.449  20.652  0.00  0.00    +0.000 A 
ATOM     15  C   UNL     1      -0.437  11.262  21.101  0.00  0.00    +0.000 A 
ENDROOT
BRANCH   8  16
ATOM     16  O   UNL     1      -2.869  13.812  20.812  0.00  0.00    +0.000 OA
ATOM     17  H   UNL     1      -3.793  13.532  20.885  0.00  0.00    +0.000 HD
ENDBRANCH   8  16
BRANCH   9  18
ATOM     18  N   UNL     1      -2.932  12.252  23.475  0.00  0.00    +0.000 NA
ATOM     19  N   UNL     1      -4.118  12.441  23.131  0.00  0.00    +0.000 NA
BRANCH  19  20
ATOM     20  C   UNL     1      -4.989  12.539  24.183  0.00  0.00    +0.000 C 
ATOM     21  N   UNL     1      -4.656  12.309  25.410  0.00  0.00    +0.000 NA
ATOM     22  H   UNL     1      -3.664  12.052  25.380  0.00  0.00    +0.000 HD
BRANCH  20  23
ATOM     23  S   UNL     1      -6.634  13.005  23.832  0.00  0.00    +0.000 S 
ATOM     24  H   UNL     1      -6.443  14.306  24.084  0.00  0.00    +0.000 HD
ENDBRANCH  20  23
ENDBRANCH  19  20
ENDBRANCH   9  18
TORSDOF 4
ENDMDL
MODEL 5
REMARK VINA RESULT:      -6.3      5.564      7.785
REMARK  Name = 
REMARK  7 active torsions:
REMARK  status: ('A' for Active; 'I' for Inactive)
REMARK    1  A    between atoms: C_1  and  C_2
REMARK    2  A    between atoms: C_4  and  C_5
REMARK    3  A    between atoms: C_4  and  C_6
REMARK    4  A    between atoms: C_8  and  O_9
REMARK    5  A    between atoms: C_10  and  N_11
REMARK    6  A    between atoms: N_12  and  C_13
REMARK    7  A    between atoms: C_13  and  S_15
REMARK                            x       y       z     vdW  Elec       q    Type
REMARK                         _______ _______ _______ _____ _____    ______ ____
ROOT
ATOM      1  C   UNL     1      -1.234  13.650  21.706  0.00  0.00    +0.000 C 
ATOM      2  C   UNL     1      -1.906  12.326  21.348  0.00  0.00    +0.000 C 
ATOM      3  C   UNL     1      -2.285  12.201  19.853  0.00  0.00    +0.000 C 
ATOM      4  C   UNL     1      -1.125  11.873  18.840  0.00  0.00    +0.000 C 
ATOM      5  C   UNL     1      -1.830  11.487  17.519  0.00  0.00    +0.000 C 
ATOM      6  C   UNL     1      -0.253  13.115  18.582  0.00  0.00    +0.000 C 
ATOM      7  N   UNL     1      -0.285  10.776  19.376  0.00  0.00    +0.000 N 
ATOM      8  C   UNL     1       0.615   9.934  18.755  0.00  0.00    +0.000 A 
ATOM      9  C   UNL     1       1.099   9.076  19.730  0.00  0.00    +0.000 A 
ATOM     10  C   UNL     1       0.552   9.438  20.987  0.00  0.00    +0.000 A 
ATOM     11  C   UNL     1       0.686   8.990  22.316  0.00  0.00    +0.000 A 
ATOM     12  C   UNL     1      -0.046   9.625  23.329  0.00  0.00    +0.000 A 
ATOM     13  C   UNL     1      -0.895  10.693  23.039  0.00  0.00    +0.000 A 
ATOM     14  C   UNL     1      -1.040  11.158  21.727  0.00  0.00    +0.000 A 
ATOM     15  C   UNL     1      -0.301  10.502  20.736  0.00  0.00    +0.000 A 
ENDROOT
BRANCH   8  16
ATOM     16  O   UNL     1       0.925   9.986  17.460  0.00  0.00    +0.000 OA
ATOM     17  H   UNL     1       1.020   9.092  17.100  0.00  0.00    +0.000 HD
ENDBRANCH   8  16
BRANCH   9  18
ATOM     18  N   UNL     1       2.050   8.053  19.587  0.00  0.00    +0.000 NA
ATOM     19  N   UNL     1       2.235   7.718  18.399  0.00  0.00    +0.000 NA
BRANCH  19  20
ATOM     20  C   UNL     1       3.186   6.744  18.242  0.00  0.00    +0.000 C 
ATOM     21  N   UNL     1       4.152   6.820  17.387  0.00  0.00    +0.000 NA
ATOM     22  H   UNL     1       4.018   7.714  16.903  0.00  0.00    +0.000 HD
BRANCH  20  23
ATOM     23  S   UNL     1       3.076   5.332  19.262  0.00  0.00    +0.000 S 
ATOM     24  H   UNL     1       3.025   4.460  18.248  0.00  0.00    +0.000 HD
ENDBRANCH  20  23
ENDBRANCH  19  20
ENDBRANCH   9  18
TORSDOF 4
ENDMDL
MODEL 6
REMARK VINA RESULT:      -6.3      2.497      2.632
REMARK  Name = 
REMARK  7 active torsions:
REMARK  status: ('A' for Active; 'I' for Inactive)
REMARK    1  A    between atoms: C_1  and  C_2
REMARK    2  A    between atoms: C_4  and  C_5
REMARK    3  A    between atoms: C_4  and  C_6
REMARK    4  A    between atoms: C_8  and  O_9
REMARK    5  A    between atoms: C_10  and  N_11
REMARK    6  A    between atoms: N_12  and  C_13
REMARK    7  A    between atoms: C_13  and  S_15
REMARK                            x       y       z     vdW  Elec       q    Type
REMARK                         _______ _______ _______ _____ _____    ______ ____
ROOT
ATOM      1  C   UNL     1       0.310   2.996  20.227  0.00  0.00    +0.000 C 
ATOM      2  C   UNL     1       1.438   3.576  21.078  0.00  0.00    +0.000 C 
ATOM      3  C   UNL     1       2.643   2.621  21.256  0.00  0.00    +0.000 C 
ATOM      4  C   UNL     1       3.641   2.486  20.045  0.00  0.00    +0.000 C 
ATOM      5  C   UNL     1       4.880   1.756  20.614  0.00  0.00    +0.000 C 
ATOM      6  C   UNL     1       3.035   1.618  18.928  0.00  0.00    +0.000 C 
ATOM      7  N   UNL     1       3.969   3.828  19.512  0.00  0.00    +0.000 N 
ATOM      8  C   UNL     1       5.004   4.258  18.707  0.00  0.00    +0.000 A 
ATOM      9  C   UNL     1       4.839   5.624  18.538  0.00  0.00    +0.000 A 
ATOM     10  C   UNL     1       3.644   6.035  19.181  0.00  0.00    +0.000 A 
ATOM     11  C   UNL     1       2.937   7.246  19.325  0.00  0.00    +0.000 A 
ATOM     12  C   UNL     1       1.744   7.258  20.062  0.00  0.00    +0.000 A 
ATOM     13  C   UNL     1       1.249   6.091  20.644  0.00  0.00    +0.000 A 
ATOM     14  C   UNL     1       1.932   4.876  20.511  0.00  0.00    +0.000 A 
ATOM     15  C   UNL     1       3.123   4.896  19.774  0.00  0.00    +0.000 A 
ENDROOT
BRANCH   8  16
ATOM     16  O   UNL     1       5.953   3.464  18.211  0.00  0.00    +0.000 OA
ATOM     17  H   UNL     1       6.830   3.829  18.400  0.00  0.00    +0.000 HD
ENDBRANCH   8  16
BRANCH   9  18
ATOM     18  N   UNL     1       5.632   6.505  17.786  0.00  0.00    +0.000 NA
ATOM     19  N   UNL     1       6.826   6.524  18.153  0.00  0.00    +0.000 NA
BRANCH  19  20
ATOM     20  C   UNL     1       7.620   7.353  17.406  0.00  0.00    +0.000 C 
ATOM     21  N   UNL     1       7.977   7.096  16.191  0.00  0.00    +0.000 NA
ATOM     22  H   UNL     1       7.552   6.190  15.967  0.00  0.00    +0.000 HD
BRANCH  20  23
ATOM     23  S   UNL     1       8.168   8.836  18.147  0.00  0.00    +0.000 S 
ATOM     24  H   UNL     1       8.910   8.230  19.083  0.00  0.00    +0.000 HD
ENDBRANCH  20  23
ENDBRANCH  19  20
ENDBRANCH   9  18
TORSDOF 4
ENDMDL
MODEL 7
REMARK VINA RESULT:      -6.1      3.835      5.913
REMARK  Name = 
REMARK  7 active torsions:
REMARK  status: ('A' for Active; 'I' for Inactive)
REMARK    1  A    between atoms: C_1  and  C_2
REMARK    2  A    between atoms: C_4  and  C_5
REMARK    3  A    between atoms: C_4  and  C_6
REMARK    4  A    between atoms: C_8  and  O_9
REMARK    5  A    between atoms: C_10  and  N_11
REMARK    6  A    between atoms: N_12  and  C_13
REMARK    7  A    between atoms: C_13  and  S_15
REMARK                            x       y       z     vdW  Elec       q    Type
REMARK                         _______ _______ _______ _____ _____    ______ ____
ROOT
ATOM      1  C   UNL     1       3.697   1.795  17.853  0.00  0.00    +0.000 C 
ATOM      2  C   UNL     1       4.321   2.655  18.951  0.00  0.00    +0.000 C 
ATOM      3  C   UNL     1       5.442   3.595  18.449  0.00  0.00    +0.000 C 
ATOM      4  C   UNL     1       5.001   4.903  17.692  0.00  0.00    +0.000 C 
ATOM      5  C   UNL     1       6.273   5.780  17.611  0.00  0.00    +0.000 C 
ATOM      6  C   UNL     1       4.542   4.580  16.258  0.00  0.00    +0.000 C 
ATOM      7  N   UNL     1       3.902   5.566  18.430  0.00  0.00    +0.000 N 
ATOM      8  C   UNL     1       3.411   6.854  18.367  0.00  0.00    +0.000 A 
ATOM      9  C   UNL     1       2.390   6.940  19.300  0.00  0.00    +0.000 A 
ATOM     10  C   UNL     1       2.191   5.669  19.896  0.00  0.00    +0.000 A 
ATOM     11  C   UNL     1       1.306   5.124  20.849  0.00  0.00    +0.000 A 
ATOM     12  C   UNL     1       1.422   3.771  21.195  0.00  0.00    +0.000 A 
ATOM     13  C   UNL     1       2.392   2.960  20.605  0.00  0.00    +0.000 A 
ATOM     14  C   UNL     1       3.279   3.478  19.653  0.00  0.00    +0.000 A 
ATOM     15  C   UNL     1       3.142   4.833  19.332  0.00  0.00    +0.000 A 
ENDROOT
BRANCH   8  16
ATOM     16  O   UNL     1       3.869   7.795  17.542  0.00  0.00    +0.000 OA
ATOM     17  H   UNL     1       4.670   8.200  17.904  0.00  0.00    +0.000 HD
ENDBRANCH   8  16
BRANCH   9  18
ATOM     18  N   UNL     1       1.576   8.046  19.594  0.00  0.00    +0.000 NA
ATOM     19  N   UNL     1       1.618   8.379  20.798  0.00  0.00    +0.000 NA
BRANCH  19  20
ATOM     20  C   UNL     1       0.857   9.479  21.092  0.00  0.00    +0.000 C 
ATOM     21  N   UNL     1       0.860  10.061  22.245  0.00  0.00    +0.000 NA
ATOM     22  H   UNL     1       1.516   9.523  22.821  0.00  0.00    +0.000 HD
BRANCH  20  23
ATOM     23  S   UNL     1      -0.165  10.119  19.830  0.00  0.00    +0.000 S 
ATOM     24  H   UNL     1      -1.089  10.609  20.666  0.00  0.00    +0.000 HD
ENDBRANCH  20  23
ENDBRANCH  19  20
ENDBRANCH   9  18
TORSDOF 4
ENDMDL
MODEL 8
REMARK VINA RESULT:      -6.0      3.882      5.820
REMARK  Name = 
REMARK  7 active torsions:
REMARK  status: ('A' for Active; 'I' for Inactive)
REMARK    1  A    between atoms: C_1  and  C_2
REMARK    2  A    between atoms: C_4  and  C_5
REMARK    3  A    between atoms: C_4  and  C_6
REMARK    4  A    between atoms: C_8  and  O_9
REMARK    5  A    between atoms: C_10  and  N_11
REMARK    6  A    between atoms: N_12  and  C_13
REMARK    7  A    between atoms: C_13  and  S_15
REMARK                            x       y       z     vdW  Elec       q    Type
REMARK                         _______ _______ _______ _____ _____    ______ ____
ROOT
ATOM      1  C   UNL     1       6.164   4.104  17.435  0.00  0.00    +0.000 C 
ATOM      2  C   UNL     1       4.708   4.179  16.981  0.00  0.00    +0.000 C 
ATOM      3  C   UNL     1       3.832   3.009  17.489  0.00  0.00    +0.000 C 
ATOM      4  C   UNL     1       3.356   3.062  18.989  0.00  0.00    +0.000 C 
ATOM      5  C   UNL     1       2.260   1.977  19.111  0.00  0.00    +0.000 C 
ATOM      6  C   UNL     1       4.507   2.701  19.945  0.00  0.00    +0.000 C 
ATOM      7  N   UNL     1       2.850   4.417  19.307  0.00  0.00    +0.000 N 
ATOM      8  C   UNL     1       2.049   4.869  20.337  0.00  0.00    +0.000 A 
ATOM      9  C   UNL     1       1.866   6.228  20.134  0.00  0.00    +0.000 A 
ATOM     10  C   UNL     1       2.624   6.641  19.008  0.00  0.00    +0.000 A 
ATOM     11  C   UNL     1       2.874   7.861  18.348  0.00  0.00    +0.000 A 
ATOM     12  C   UNL     1       3.713   7.872  17.225  0.00  0.00    +0.000 A 
ATOM     13  C   UNL     1       4.305   6.697  16.761  0.00  0.00    +0.000 A 
ATOM     14  C   UNL     1       4.075   5.474  17.403  0.00  0.00    +0.000 A 
ATOM     15  C   UNL     1       3.229   5.494  18.519  0.00  0.00    +0.000 A 
ENDROOT
BRANCH   8  16
ATOM     16  O   UNL     1       1.576   4.101  21.317  0.00  0.00    +0.000 OA
ATOM     17  H   UNL     1       1.350   3.223  20.976  0.00  0.00    +0.000 HD
ENDBRANCH   8  16
BRANCH   9  18
ATOM     18  N   UNL     1       1.140   7.132  20.926  0.00  0.00    +0.000 NA
ATOM     19  N   UNL     1       1.735   8.215  21.105  0.00  0.00    +0.000 NA
BRANCH  19  20
ATOM     20  C   UNL     1       1.022   9.120  21.847  0.00  0.00    +0.000 C 
ATOM     21  N   UNL     1       1.292   9.405  23.078  0.00  0.00    +0.000 NA
ATOM     22  H   UNL     1       2.099   8.821  23.322  0.00  0.00    +0.000 HD
BRANCH  20  23
ATOM     23  S   UNL     1      -0.318   9.926  21.072  0.00  0.00    +0.000 S 
ATOM     24  H   UNL     1       0.118   9.704  19.826  0.00  0.00    +0.000 HD
ENDBRANCH  20  23
ENDBRANCH  19  20
ENDBRANCH   9  18
TORSDOF 4
ENDMDL
MODEL 9
REMARK VINA RESULT:      -6.0      5.706      8.113
REMARK  Name = 
REMARK  7 active torsions:
REMARK  status: ('A' for Active; 'I' for Inactive)
REMARK    1  A    between atoms: C_1  and  C_2
REMARK    2  A    between atoms: C_4  and  C_5
REMARK    3  A    between atoms: C_4  and  C_6
REMARK    4  A    between atoms: C_8  and  O_9
REMARK    5  A    between atoms: C_10  and  N_11
REMARK    6  A    between atoms: N_12  and  C_13
REMARK    7  A    between atoms: C_13  and  S_15
REMARK                            x       y       z     vdW  Elec       q    Type
REMARK                         _______ _______ _______ _____ _____    ______ ____
ROOT
ATOM      1  C   UNL     1      -1.151  13.774  21.632  0.00  0.00    +0.000 C 
ATOM      2  C   UNL     1      -1.870  12.470  21.292  0.00  0.00    +0.000 C 
ATOM      3  C   UNL     1      -2.204  12.314  19.789  0.00  0.00    +0.000 C 
ATOM      4  C   UNL     1      -1.027  11.903  18.828  0.00  0.00    +0.000 C 
ATOM      5  C   UNL     1      -1.704  11.506  17.495  0.00  0.00    +0.000 C 
ATOM      6  C   UNL     1      -0.092  13.096  18.561  0.00  0.00    +0.000 C 
ATOM      7  N   UNL     1      -0.256  10.788  19.425  0.00  0.00    +0.000 N 
ATOM      8  C   UNL     1       0.626   9.888  18.862  0.00  0.00    +0.000 A 
ATOM      9  C   UNL     1       1.038   9.041  19.879  0.00  0.00    +0.000 A 
ATOM     10  C   UNL     1       0.466   9.467  21.104  0.00  0.00    +0.000 A 
ATOM     11  C   UNL     1       0.536   9.056  22.451  0.00  0.00    +0.000 A 
ATOM     12  C   UNL     1      -0.200   9.755  23.418  0.00  0.00    +0.000 A 
ATOM     13  C   UNL     1      -0.990  10.849  23.066  0.00  0.00    +0.000 A 
ATOM     14  C   UNL     1      -1.071  11.279  21.736  0.00  0.00    +0.000 A 
ATOM     15  C   UNL     1      -0.329  10.559  20.791  0.00  0.00    +0.000 A 
ENDROOT
BRANCH   8  16
ATOM     16  O   UNL     1       0.981   9.884  17.577  0.00  0.00    +0.000 OA
ATOM     17  H   UNL     1       0.465   9.227  17.087  0.00  0.00    +0.000 HD
ENDBRANCH   8  16
BRANCH   9  18
ATOM     18  N   UNL     1       1.946   7.973  19.801  0.00  0.00    +0.000 NA
ATOM     19  N   UNL     1       1.515   6.924  20.326  0.00  0.00    +0.000 NA
BRANCH  19  20
ATOM     20  C   UNL     1       2.376   5.864  20.226  0.00  0.00    +0.000 C 
ATOM     21  N   UNL     1       3.580   5.961  19.766  0.00  0.00    +0.000 NA
ATOM     22  H   UNL     1       3.697   6.949  19.516  0.00  0.00    +0.000 HD
BRANCH  20  23
ATOM     23  S   UNL     1       1.803   4.302  20.756  0.00  0.00    +0.000 S 
ATOM     24  H   UNL     1       2.488   4.312  21.907  0.00  0.00    +0.000 HD
ENDBRANCH  20  23
ENDBRANCH  19  20
ENDBRANCH   9  18
TORSDOF 4
ENDMDL
