MODEL 1
REMARK VINA RESULT:      -8.0      0.000      0.000
REMARK  Name = 
REMARK  11 active torsions:
REMARK  status: ('A' for Active; 'I' for Inactive)
REMARK    1  A    between atoms: C_1  and  O_2
REMARK    2  A    between atoms: O_2  and  C_3
REMARK    3  A    between atoms: C_5  and  C_6
REMARK    4  A    between atoms: C_8  and  O_9
REMARK    5  A    between atoms: O_9  and  C_10
REMARK    6  A    between atoms: C_14  and  C_15
REMARK    7  A    between atoms: N_22  and  C_23
REMARK    8  A    between atoms: C_28  and  O_29
REMARK    9  A    between atoms: O_29  and  C_30
REMARK   10  A    between atoms: C_31  and  O_32
REMARK   11  A    between atoms: O_32  and  C_33
REMARK                            x       y       z     vdW  Elec       q    Type
REMARK                         _______ _______ _______ _____ _____    ______ ____
ROOT
ATOM      1  C   UNL     1       2.356   6.393  19.872  0.00  0.00    +0.000 A 
ATOM      2  C   UNL     1       2.187   5.418  20.957  0.00  0.00    +0.000 A 
ATOM      3  C   UNL     1       2.564   4.134  20.842  0.00  0.00    +0.000 A 
ATOM      4  C   UNL     1       3.133   3.690  19.609  0.00  0.00    +0.000 A 
ATOM      5  N   UNL     1       3.518   2.507  19.182  0.00  0.00    +0.000 NA
ATOM      6  N   UNL     1       4.063   2.665  17.935  0.00  0.00    +0.000 NA
ATOM      7  C   UNL     1       4.019   3.944  17.599  0.00  0.00    +0.000 A 
ATOM      8  N   UNL     1       3.355   4.641  18.613  0.00  0.00    +0.000 N 
ATOM      9  C   UNL     1       2.967   5.993  18.747  0.00  0.00    +0.000 A 
ENDROOT
BRANCH   7  10
ATOM     10  C   UNL     1       4.797   4.535  16.502  0.00  0.00    +0.000 A 
ATOM     11  C   UNL     1       5.844   5.440  16.685  0.00  0.00    +0.000 A 
ATOM     12  C   UNL     1       6.788   5.684  15.671  0.00  0.00    +0.000 A 
ATOM     13  C   UNL     1       6.646   4.976  14.463  0.00  0.00    +0.000 A 
ATOM     14  C   UNL     1       5.509   4.204  14.204  0.00  0.00    +0.000 A 
ATOM     15  C   UNL     1       5.626   3.686  12.890  0.00  0.00    +0.000 A 
ATOM     16  C   UNL     1       6.920   3.911  12.496  0.00  0.00    +0.000 A 
ATOM     17  N   UNL     1       7.451   4.846  13.350  0.00  0.00    +0.000 N 
ATOM     18  C   UNL     1       8.662   5.566  13.035  0.00  0.00    +0.000 C 
ATOM     19  C   UNL     1       4.550   4.029  15.216  0.00  0.00    +0.000 A 
ENDBRANCH   7  10
BRANCH   1  22
ATOM     20  C   UNL     1       1.216   9.840  18.944  0.00  0.00    +0.000 A 
ATOM     21  C   UNL     1       1.992   8.674  19.002  0.00  0.00    +0.000 A 
ATOM     22  C   UNL     1       1.812   7.748  20.032  0.00  0.00    +0.000 A 
ATOM     23  C   UNL     1       0.936   8.051  21.069  0.00  0.00    +0.000 A 
ATOM     24  C   UNL     1       0.192   9.244  21.067  0.00  0.00    +0.000 A 
ATOM     25  C   UNL     1       0.302  10.142  19.978  0.00  0.00    +0.000 A 
BRANCH  20  27
ATOM     26  C   UNL     1       2.307  11.762  18.082  0.00  0.00    +0.000 C 
ATOM     27  O   UNL     1       1.360  10.711  17.892  0.00  0.00    +0.000 OA
ENDBRANCH  20  27
BRANCH  24  28
ATOM     28  O   UNL     1      -0.615   9.324  22.173  0.00  0.00    +0.000 OA
ATOM     29  C   UNL     1      -0.034   9.520  23.452  0.00  0.00    +0.000 C 
ENDBRANCH  24  28
BRANCH  25  30
ATOM     30  O   UNL     1      -0.497  11.255  20.019  0.00  0.00    +0.000 OA
ATOM     31  C   UNL     1      -1.727  11.265  19.309  0.00  0.00    +0.000 C 
ENDBRANCH  25  30
ENDBRANCH   1  22
BRANCH   3  32
ATOM     32  O   UNL     1       2.484   3.163  21.811  0.00  0.00    +0.000 OA
ATOM     33  C   UNL     1       1.288   2.397  21.868  0.00  0.00    +0.000 C 
ENDBRANCH   3  32
TORSDOF 6
ENDMDL
MODEL 2
REMARK VINA RESULT:      -7.9      0.605      2.207
REMARK  Name = 
REMARK  11 active torsions:
REMARK  status: ('A' for Active; 'I' for Inactive)
REMARK    1  A    between atoms: C_1  and  O_2
REMARK    2  A    between atoms: O_2  and  C_3
REMARK    3  A    between atoms: C_5  and  C_6
REMARK    4  A    between atoms: C_8  and  O_9
REMARK    5  A    between atoms: O_9  and  C_10
REMARK    6  A    between atoms: C_14  and  C_15
REMARK    7  A    between atoms: N_22  and  C_23
REMARK    8  A    between atoms: C_28  and  O_29
REMARK    9  A    between atoms: O_29  and  C_30
REMARK   10  A    between atoms: C_31  and  O_32
REMARK   11  A    between atoms: O_32  and  C_33
REMARK                            x       y       z     vdW  Elec       q    Type
REMARK                         _______ _______ _______ _____ _____    ______ ____
ROOT
ATOM      1  C   UNL     1       2.264   6.372  19.872  0.00  0.00    +0.000 A 
ATOM      2  C   UNL     1       2.120   5.406  20.968  0.00  0.00    +0.000 A 
ATOM      3  C   UNL     1       2.545   4.135  20.875  0.00  0.00    +0.000 A 
ATOM      4  C   UNL     1       3.143   3.696  19.653  0.00  0.00    +0.000 A 
ATOM      5  N   UNL     1       3.576   2.522  19.247  0.00  0.00    +0.000 NA
ATOM      6  N   UNL     1       4.128   2.684  18.003  0.00  0.00    +0.000 NA
ATOM      7  C   UNL     1       4.040   3.956  17.650  0.00  0.00    +0.000 A 
ATOM      8  N   UNL     1       3.340   4.641  18.647  0.00  0.00    +0.000 N 
ATOM      9  C   UNL     1       2.902   5.979  18.759  0.00  0.00    +0.000 A 
ENDROOT
BRANCH   7  10
ATOM     10  C   UNL     1       4.808   4.560  16.553  0.00  0.00    +0.000 A 
ATOM     11  C   UNL     1       5.845   5.476  16.736  0.00  0.00    +0.000 A 
ATOM     12  C   UNL     1       6.783   5.735  15.720  0.00  0.00    +0.000 A 
ATOM     13  C   UNL     1       6.645   5.031  14.510  0.00  0.00    +0.000 A 
ATOM     14  C   UNL     1       5.515   4.248  14.251  0.00  0.00    +0.000 A 
ATOM     15  C   UNL     1       5.633   3.737  12.934  0.00  0.00    +0.000 A 
ATOM     16  C   UNL     1       6.924   3.979  12.536  0.00  0.00    +0.000 A 
ATOM     17  N   UNL     1       7.447   4.915  13.393  0.00  0.00    +0.000 N 
ATOM     18  C   UNL     1       8.648   5.650  13.077  0.00  0.00    +0.000 C 
ATOM     19  C   UNL     1       4.561   4.057  15.265  0.00  0.00    +0.000 A 
ENDBRANCH   7  10
BRANCH   1  22
ATOM     20  C   UNL     1       1.050   9.511  21.519  0.00  0.00    +0.000 A 
ATOM     21  C   UNL     1       1.290   8.151  21.277  0.00  0.00    +0.000 A 
ATOM     22  C   UNL     1       1.670   7.708  20.009  0.00  0.00    +0.000 A 
ATOM     23  C   UNL     1       1.692   8.613  18.954  0.00  0.00    +0.000 A 
ATOM     24  C   UNL     1       1.394   9.973  19.157  0.00  0.00    +0.000 A 
ATOM     25  C   UNL     1       1.099  10.444  20.458  0.00  0.00    +0.000 A 
BRANCH  20  27
ATOM     26  C   UNL     1      -0.624   9.776  23.178  0.00  0.00    +0.000 C 
ATOM     27  O   UNL     1       0.738   9.941  22.785  0.00  0.00    +0.000 OA
ENDBRANCH  20  27
BRANCH  24  28
ATOM     28  O   UNL     1       1.495  10.680  17.985  0.00  0.00    +0.000 OA
ATOM     29  C   UNL     1       2.478  11.694  17.860  0.00  0.00    +0.000 C 
ENDBRANCH  24  28
BRANCH  25  30
ATOM     30  O   UNL     1       0.876  11.790  20.586  0.00  0.00    +0.000 OA
ATOM     31  C   UNL     1      -0.429  12.310  20.380  0.00  0.00    +0.000 C 
ENDBRANCH  25  30
ENDBRANCH   1  22
BRANCH   3  32
ATOM     32  O   UNL     1       2.490   3.175  21.856  0.00  0.00    +0.000 OA
ATOM     33  C   UNL     1       1.301   2.400  21.943  0.00  0.00    +0.000 C 
ENDBRANCH   3  32
TORSDOF 6
ENDMDL
MODEL 3
REMARK VINA RESULT:      -7.8      3.326      8.196
REMARK  Name = 
REMARK  11 active torsions:
REMARK  status: ('A' for Active; 'I' for Inactive)
REMARK    1  A    between atoms: C_1  and  O_2
REMARK    2  A    between atoms: O_2  and  C_3
REMARK    3  A    between atoms: C_5  and  C_6
REMARK    4  A    between atoms: C_8  and  O_9
REMARK    5  A    between atoms: O_9  and  C_10
REMARK    6  A    between atoms: C_14  and  C_15
REMARK    7  A    between atoms: N_22  and  C_23
REMARK    8  A    between atoms: C_28  and  O_29
REMARK    9  A    between atoms: O_29  and  C_30
REMARK   10  A    between atoms: C_31  and  O_32
REMARK   11  A    between atoms: O_32  and  C_33
REMARK                            x       y       z     vdW  Elec       q    Type
REMARK                         _______ _______ _______ _____ _____    ______ ____
ROOT
ATOM      1  C   UNL     1       4.190   4.593  17.847  0.00  0.00    +0.000 A 
ATOM      2  C   UNL     1       3.583   3.282  18.106  0.00  0.00    +0.000 A 
ATOM      3  C   UNL     1       2.576   3.109  18.979  0.00  0.00    +0.000 A 
ATOM      4  C   UNL     1       2.088   4.242  19.700  0.00  0.00    +0.000 A 
ATOM      5  N   UNL     1       1.186   4.370  20.649  0.00  0.00    +0.000 NA
ATOM      6  N   UNL     1       1.058   5.705  20.932  0.00  0.00    +0.000 NA
ATOM      7  C   UNL     1       1.874   6.395  20.152  0.00  0.00    +0.000 A 
ATOM      8  N   UNL     1       2.622   5.492  19.391  0.00  0.00    +0.000 N 
ATOM      9  C   UNL     1       3.672   5.666  18.462  0.00  0.00    +0.000 A 
ENDROOT
BRANCH   7  10
ATOM     10  C   UNL     1       1.775   7.845  19.935  0.00  0.00    +0.000 A 
ATOM     11  C   UNL     1       1.975   8.467  18.702  0.00  0.00    +0.000 A 
ATOM     12  C   UNL     1       1.511   9.771  18.453  0.00  0.00    +0.000 A 
ATOM     13  C   UNL     1       0.829  10.429  19.493  0.00  0.00    +0.000 A 
ATOM     14  C   UNL     1       0.777   9.890  20.783  0.00  0.00    +0.000 A 
ATOM     15  C   UNL     1       0.094  10.813  21.613  0.00  0.00    +0.000 A 
ATOM     16  C   UNL     1      -0.486  11.734  20.777  0.00  0.00    +0.000 A 
ATOM     17  N   UNL     1       0.119  11.611  19.551  0.00  0.00    +0.000 N 
ATOM     18  C   UNL     1       0.004  12.633  18.538  0.00  0.00    +0.000 C 
ATOM     19  C   UNL     1       1.305   8.609  21.016  0.00  0.00    +0.000 A 
ENDBRANCH   7  10
BRANCH   1  22
ATOM     20  C   UNL     1       6.321   4.143  14.797  0.00  0.00    +0.000 A 
ATOM     21  C   UNL     1       5.422   3.864  15.836  0.00  0.00    +0.000 A 
ATOM     22  C   UNL     1       5.364   4.680  16.968  0.00  0.00    +0.000 A 
ATOM     23  C   UNL     1       6.291   5.706  17.110  0.00  0.00    +0.000 A 
ATOM     24  C   UNL     1       7.245   5.968  16.111  0.00  0.00    +0.000 A 
ATOM     25  C   UNL     1       7.248   5.203  14.921  0.00  0.00    +0.000 A 
BRANCH  20  27
ATOM     26  C   UNL     1       5.162   3.467  12.841  0.00  0.00    +0.000 C 
ATOM     27  O   UNL     1       6.324   3.369  13.663  0.00  0.00    +0.000 OA
ENDBRANCH  20  27
BRANCH  24  28
ATOM     28  O   UNL     1       8.041   7.031  16.455  0.00  0.00    +0.000 OA
ATOM     29  C   UNL     1       7.743   7.782  17.619  0.00  0.00    +0.000 C 
ENDBRANCH  24  28
BRANCH  25  30
ATOM     30  O   UNL     1       8.170   5.554  13.969  0.00  0.00    +0.000 OA
ATOM     31  C   UNL     1       7.794   5.576  12.600  0.00  0.00    +0.000 C 
ENDBRANCH  25  30
ENDBRANCH   1  22
BRANCH   3  32
ATOM     32  O   UNL     1       1.921   1.934  19.257  0.00  0.00    +0.000 OA
ATOM     33  C   UNL     1       0.616   1.772  18.717  0.00  0.00    +0.000 C 
ENDBRANCH   3  32
TORSDOF 6
ENDMDL
MODEL 4
REMARK VINA RESULT:      -7.7      3.349      8.424
REMARK  Name = 
REMARK  11 active torsions:
REMARK  status: ('A' for Active; 'I' for Inactive)
REMARK    1  A    between atoms: C_1  and  O_2
REMARK    2  A    between atoms: O_2  and  C_3
REMARK    3  A    between atoms: C_5  and  C_6
REMARK    4  A    between atoms: C_8  and  O_9
REMARK    5  A    between atoms: O_9  and  C_10
REMARK    6  A    between atoms: C_14  and  C_15
REMARK    7  A    between atoms: N_22  and  C_23
REMARK    8  A    between atoms: C_28  and  O_29
REMARK    9  A    between atoms: O_29  and  C_30
REMARK   10  A    between atoms: C_31  and  O_32
REMARK   11  A    between atoms: O_32  and  C_33
REMARK                            x       y       z     vdW  Elec       q    Type
REMARK                         _______ _______ _______ _____ _____    ______ ____
ROOT
ATOM      1  C   UNL     1       3.826   4.978  17.601  0.00  0.00    +0.000 A 
ATOM      2  C   UNL     1       3.326   3.623  17.864  0.00  0.00    +0.000 A 
ATOM      3  C   UNL     1       2.470   3.347  18.862  0.00  0.00    +0.000 A 
ATOM      4  C   UNL     1       2.043   4.409  19.717  0.00  0.00    +0.000 A 
ATOM      5  N   UNL     1       1.289   4.433  20.795  0.00  0.00    +0.000 NA
ATOM      6  N   UNL     1       1.143   5.741  21.178  0.00  0.00    +0.000 NA
ATOM      7  C   UNL     1       1.800   6.518  20.331  0.00  0.00    +0.000 A 
ATOM      8  N   UNL     1       2.466   5.702  19.413  0.00  0.00    +0.000 N 
ATOM      9  C   UNL     1       3.356   5.985  18.353  0.00  0.00    +0.000 A 
ENDROOT
BRANCH   7  10
ATOM     10  C   UNL     1       1.602   7.970  20.224  0.00  0.00    +0.000 A 
ATOM     11  C   UNL     1       1.728   8.690  19.035  0.00  0.00    +0.000 A 
ATOM     12  C   UNL     1       1.175   9.976  18.894  0.00  0.00    +0.000 A 
ATOM     13  C   UNL     1       0.480  10.511  19.994  0.00  0.00    +0.000 A 
ATOM     14  C   UNL     1       0.498   9.878  21.241  0.00  0.00    +0.000 A 
ATOM     15  C   UNL     1      -0.220  10.693  22.152  0.00  0.00    +0.000 A 
ATOM     16  C   UNL     1      -0.881  11.631  21.399  0.00  0.00    +0.000 A 
ATOM     17  N   UNL     1      -0.303  11.636  20.153  0.00  0.00    +0.000 N 
ATOM     18  C   UNL     1      -0.510  12.719  19.222  0.00  0.00    +0.000 C 
ATOM     19  C   UNL     1       1.114   8.621  21.367  0.00  0.00    +0.000 A 
ENDBRANCH   7  10
BRANCH   1  22
ATOM     20  C   UNL     1       7.014   6.137  16.010  0.00  0.00    +0.000 A 
ATOM     21  C   UNL     1       5.840   6.140  16.776  0.00  0.00    +0.000 A 
ATOM     22  C   UNL     1       4.849   5.179  16.567  0.00  0.00    +0.000 A 
ATOM     23  C   UNL     1       4.984   4.288  15.509  0.00  0.00    +0.000 A 
ATOM     24  C   UNL     1       6.123   4.303  14.686  0.00  0.00    +0.000 A 
ATOM     25  C   UNL     1       7.173   5.214  14.951  0.00  0.00    +0.000 A 
BRANCH  20  27
ATOM     26  C   UNL     1       7.796   7.895  17.398  0.00  0.00    +0.000 C 
ATOM     27  O   UNL     1       8.008   7.049  16.268  0.00  0.00    +0.000 OA
ENDBRANCH  20  27
BRANCH  24  28
ATOM     28  O   UNL     1       6.050   3.329  13.722  0.00  0.00    +0.000 OA
ATOM     29  C   UNL     1       5.365   3.593  12.509  0.00  0.00    +0.000 C 
ENDBRANCH  24  28
BRANCH  25  30
ATOM     30  O   UNL     1       8.276   5.131  14.142  0.00  0.00    +0.000 OA
ATOM     31  C   UNL     1       8.285   5.807  12.893  0.00  0.00    +0.000 C 
ENDBRANCH  25  30
ENDBRANCH   1  22
BRANCH   3  32
ATOM     32  O   UNL     1       1.920   2.123  19.158  0.00  0.00    +0.000 OA
ATOM     33  C   UNL     1       0.600   1.873  18.693  0.00  0.00    +0.000 C 
ENDBRANCH   3  32
TORSDOF 6
ENDMDL
MODEL 5
REMARK VINA RESULT:      -7.3      3.759      7.053
REMARK  Name = 
REMARK  11 active torsions:
REMARK  status: ('A' for Active; 'I' for Inactive)
REMARK    1  A    between atoms: C_1  and  O_2
REMARK    2  A    between atoms: O_2  and  C_3
REMARK    3  A    between atoms: C_5  and  C_6
REMARK    4  A    between atoms: C_8  and  O_9
REMARK    5  A    between atoms: O_9  and  C_10
REMARK    6  A    between atoms: C_14  and  C_15
REMARK    7  A    between atoms: N_22  and  C_23
REMARK    8  A    between atoms: C_28  and  O_29
REMARK    9  A    between atoms: O_29  and  C_30
REMARK   10  A    between atoms: C_31  and  O_32
REMARK   11  A    between atoms: O_32  and  C_33
REMARK                            x       y       z     vdW  Elec       q    Type
REMARK                         _______ _______ _______ _____ _____    ______ ____
ROOT
ATOM      1  C   UNL     1      -1.878  11.537  20.116  0.00  0.00    +0.000 A 
ATOM      2  C   UNL     1      -1.740  12.283  21.372  0.00  0.00    +0.000 A 
ATOM      3  C   UNL     1      -0.857  11.940  22.325  0.00  0.00    +0.000 A 
ATOM      4  C   UNL     1      -0.033  10.791  22.119  0.00  0.00    +0.000 A 
ATOM      5  N   UNL     1       0.848  10.181  22.883  0.00  0.00    +0.000 NA
ATOM      6  N   UNL     1       1.405   9.163  22.154  0.00  0.00    +0.000 NA
ATOM      7  C   UNL     1       0.872   9.153  20.943  0.00  0.00    +0.000 A 
ATOM      8  N   UNL     1      -0.121  10.136  20.893  0.00  0.00    +0.000 N 
ATOM      9  C   UNL     1      -1.043  10.511  19.890  0.00  0.00    +0.000 A 
ENDROOT
BRANCH   7  10
ATOM     10  C   UNL     1       1.446   8.435  19.797  0.00  0.00    +0.000 A 
ATOM     11  C   UNL     1       1.695   9.018  18.554  0.00  0.00    +0.000 A 
ATOM     12  C   UNL     1       2.571   8.424  17.627  0.00  0.00    +0.000 A 
ATOM     13  C   UNL     1       3.197   7.220  18.000  0.00  0.00    +0.000 A 
ATOM     14  C   UNL     1       2.823   6.538  19.163  0.00  0.00    +0.000 A 
ATOM     15  C   UNL     1       3.572   5.336  19.221  0.00  0.00    +0.000 A 
ATOM     16  C   UNL     1       4.559   5.445  18.274  0.00  0.00    +0.000 A 
ATOM     17  N   UNL     1       4.204   6.469  17.430  0.00  0.00    +0.000 N 
ATOM     18  C   UNL     1       4.823   6.641  16.137  0.00  0.00    +0.000 C 
ATOM     19  C   UNL     1       1.897   7.128  20.040  0.00  0.00    +0.000 A 
ENDBRANCH   7  10
BRANCH   1  22
ATOM     20  C   UNL     1      -4.002  11.464  17.029  0.00  0.00    +0.000 A 
ATOM     21  C   UNL     1      -2.872  11.445  17.858  0.00  0.00    +0.000 A 
ATOM     22  C   UNL     1      -2.946  11.903  19.175  0.00  0.00    +0.000 A 
ATOM     23  C   UNL     1      -4.124  12.490  19.622  0.00  0.00    +0.000 A 
ATOM     24  C   UNL     1      -5.254  12.579  18.790  0.00  0.00    +0.000 A 
ATOM     25  C   UNL     1      -5.212  12.032  17.486  0.00  0.00    +0.000 A 
BRANCH  20  27
ATOM     26  C   UNL     1      -2.853  10.050  15.509  0.00  0.00    +0.000 C 
ATOM     27  O   UNL     1      -3.931  10.953  15.756  0.00  0.00    +0.000 OA
ENDBRANCH  20  27
BRANCH  24  28
ATOM     28  O   UNL     1      -6.302  13.177  19.442  0.00  0.00    +0.000 OA
ATOM     29  C   UNL     1      -7.208  12.383  20.189  0.00  0.00    +0.000 C 
ENDBRANCH  24  28
BRANCH  25  30
ATOM     30  O   UNL     1      -6.370  12.105  16.754  0.00  0.00    +0.000 OA
ATOM     31  C   UNL     1      -6.938  13.372  16.460  0.00  0.00    +0.000 C 
ENDBRANCH  25  30
ENDBRANCH   1  22
BRANCH   3  32
ATOM     32  O   UNL     1      -0.630  12.597  23.510  0.00  0.00    +0.000 OA
ATOM     33  C   UNL     1      -1.258  13.860  23.686  0.00  0.00    +0.000 C 
ENDBRANCH   3  32
TORSDOF 6
ENDMDL
MODEL 6
REMARK VINA RESULT:      -7.3      4.327      9.047
REMARK  Name = 
REMARK  11 active torsions:
REMARK  status: ('A' for Active; 'I' for Inactive)
REMARK    1  A    between atoms: C_1  and  O_2
REMARK    2  A    between atoms: O_2  and  C_3
REMARK    3  A    between atoms: C_5  and  C_6
REMARK    4  A    between atoms: C_8  and  O_9
REMARK    5  A    between atoms: O_9  and  C_10
REMARK    6  A    between atoms: C_14  and  C_15
REMARK    7  A    between atoms: N_22  and  C_23
REMARK    8  A    between atoms: C_28  and  O_29
REMARK    9  A    between atoms: O_29  and  C_30
REMARK   10  A    between atoms: C_31  and  O_32
REMARK   11  A    between atoms: O_32  and  C_33
REMARK                            x       y       z     vdW  Elec       q    Type
REMARK                         _______ _______ _______ _____ _____    ______ ____
ROOT
ATOM      1  C   UNL     1       1.106   9.532  18.700  0.00  0.00    +0.000 A 
ATOM      2  C   UNL     1      -0.210   9.324  18.084  0.00  0.00    +0.000 A 
ATOM      3  C   UNL     1      -1.148  10.284  18.036  0.00  0.00    +0.000 A 
ATOM      4  C   UNL     1      -0.864  11.554  18.626  0.00  0.00    +0.000 A 
ATOM      5  N   UNL     1      -1.592  12.637  18.798  0.00  0.00    +0.000 NA
ATOM      6  N   UNL     1      -0.792  13.597  19.361  0.00  0.00    +0.000 NA
ATOM      7  C   UNL     1       0.425  13.107  19.528  0.00  0.00    +0.000 A 
ATOM      8  N   UNL     1       0.414  11.763  19.143  0.00  0.00    +0.000 N 
ATOM      9  C   UNL     1       1.399  10.751  19.176  0.00  0.00    +0.000 A 
ENDROOT
BRANCH   7  10
ATOM     10  C   UNL     1       1.615  13.929  19.787  0.00  0.00    +0.000 A 
ATOM     11  C   UNL     1       2.180  14.112  21.050  0.00  0.00    +0.000 A 
ATOM     12  C   UNL     1       3.498  14.578  21.205  0.00  0.00    +0.000 A 
ATOM     13  C   UNL     1       4.235  14.848  20.037  0.00  0.00    +0.000 A 
ATOM     14  C   UNL     1       3.627  14.839  18.777  0.00  0.00    +0.000 A 
ATOM     15  C   UNL     1       4.602  15.221  17.821  0.00  0.00    +0.000 A 
ATOM     16  C   UNL     1       5.814  15.179  18.463  0.00  0.00    +0.000 A 
ATOM     17  N   UNL     1       5.562  15.153  19.812  0.00  0.00    +0.000 N 
ATOM     18  C   UNL     1       6.586  15.447  20.785  0.00  0.00    +0.000 C 
ATOM     19  C   UNL     1       2.288  14.428  18.660  0.00  0.00    +0.000 A 
ENDBRANCH   7  10
BRANCH   1  22
ATOM     20  C   UNL     1       2.440   6.197  19.768  0.00  0.00    +0.000 A 
ATOM     21  C   UNL     1       1.819   7.453  19.822  0.00  0.00    +0.000 A 
ATOM     22  C   UNL     1       2.033   8.398  18.817  0.00  0.00    +0.000 A 
ATOM     23  C   UNL     1       2.964   8.128  17.821  0.00  0.00    +0.000 A 
ATOM     24  C   UNL     1       3.648   6.900  17.778  0.00  0.00    +0.000 A 
ATOM     25  C   UNL     1       3.366   5.903  18.741  0.00  0.00    +0.000 A 
BRANCH  20  27
ATOM     26  C   UNL     1       1.082   4.376  20.451  0.00  0.00    +0.000 C 
ATOM     27  O   UNL     1       2.173   5.254  20.729  0.00  0.00    +0.000 OA
ENDBRANCH  20  27
BRANCH  24  28
ATOM     28  O   UNL     1       4.501   6.847  16.705  0.00  0.00    +0.000 OA
ATOM     29  C   UNL     1       5.901   6.816  16.922  0.00  0.00    +0.000 C 
ENDBRANCH  24  28
BRANCH  25  30
ATOM     30  O   UNL     1       4.031   4.712  18.602  0.00  0.00    +0.000 OA
ATOM     31  C   UNL     1       3.524   3.723  17.717  0.00  0.00    +0.000 C 
ENDBRANCH  25  30
ENDBRANCH   1  22
BRANCH   3  32
ATOM     32  O   UNL     1      -2.387  10.196  17.449  0.00  0.00    +0.000 OA
ATOM     33  C   UNL     1      -2.431  10.130  16.029  0.00  0.00    +0.000 C 
ENDBRANCH   3  32
TORSDOF 6
ENDMDL
MODEL 7
REMARK VINA RESULT:      -7.1      6.228      9.568
REMARK  Name = 
REMARK  11 active torsions:
REMARK  status: ('A' for Active; 'I' for Inactive)
REMARK    1  A    between atoms: C_1  and  O_2
REMARK    2  A    between atoms: O_2  and  C_3
REMARK    3  A    between atoms: C_5  and  C_6
REMARK    4  A    between atoms: C_8  and  O_9
REMARK    5  A    between atoms: O_9  and  C_10
REMARK    6  A    between atoms: C_14  and  C_15
REMARK    7  A    between atoms: N_22  and  C_23
REMARK    8  A    between atoms: C_28  and  O_29
REMARK    9  A    between atoms: O_29  and  C_30
REMARK   10  A    between atoms: C_31  and  O_32
REMARK   11  A    between atoms: O_32  and  C_33
REMARK                            x       y       z     vdW  Elec       q    Type
REMARK                         _______ _______ _______ _____ _____    ______ ____
ROOT
ATOM      1  C   UNL     1       2.504  14.226  19.093  0.00  0.00    +0.000 A 
ATOM      2  C   UNL     1       1.905  15.509  18.707  0.00  0.00    +0.000 A 
ATOM      3  C   UNL     1       2.633  16.623  18.521  0.00  0.00    +0.000 A 
ATOM      4  C   UNL     1       4.046  16.564  18.727  0.00  0.00    +0.000 A 
ATOM      5  N   UNL     1       4.988  17.482  18.696  0.00  0.00    +0.000 NA
ATOM      6  N   UNL     1       6.192  16.858  18.896  0.00  0.00    +0.000 NA
ATOM      7  C   UNL     1       5.989  15.559  19.043  0.00  0.00    +0.000 A 
ATOM      8  N   UNL     1       4.612  15.324  19.021  0.00  0.00    +0.000 N 
ATOM      9  C   UNL     1       3.839  14.155  19.202  0.00  0.00    +0.000 A 
ENDROOT
BRANCH   7  10
ATOM     10  C   UNL     1       7.048  14.545  18.942  0.00  0.00    +0.000 A 
ATOM     11  C   UNL     1       7.361  13.855  17.770  0.00  0.00    +0.000 A 
ATOM     12  C   UNL     1       8.591  13.190  17.615  0.00  0.00    +0.000 A 
ATOM     13  C   UNL     1       9.503  13.251  18.685  0.00  0.00    +0.000 A 
ATOM     14  C   UNL     1       9.134  13.784  19.924  0.00  0.00    +0.000 A 
ATOM     15  C   UNL     1      10.233  13.634  20.807  0.00  0.00    +0.000 A 
ATOM     16  C   UNL     1      11.310  13.283  20.032  0.00  0.00    +0.000 A 
ATOM     17  N   UNL     1      10.822  12.867  18.818  0.00  0.00    +0.000 N 
ATOM     18  C   UNL     1      11.630  12.114  17.889  0.00  0.00    +0.000 C 
ATOM     19  C   UNL     1       7.873  14.387  20.067  0.00  0.00    +0.000 A 
ENDBRANCH   7  10
BRANCH   1  22
ATOM     20  C   UNL     1       1.048  10.780  18.873  0.00  0.00    +0.000 A 
ATOM     21  C   UNL     1       1.577  12.020  18.489  0.00  0.00    +0.000 A 
ATOM     22  C   UNL     1       1.629  13.084  19.391  0.00  0.00    +0.000 A 
ATOM     23  C   UNL     1       1.040  12.940  20.642  0.00  0.00    +0.000 A 
ATOM     24  C   UNL     1       0.447  11.726  21.031  0.00  0.00    +0.000 A 
ATOM     25  C   UNL     1       0.474  10.615  20.154  0.00  0.00    +0.000 A 
BRANCH  20  27
ATOM     26  C   UNL     1       2.286   8.997  17.917  0.00  0.00    +0.000 C 
ATOM     27  O   UNL     1       1.061   9.724  17.996  0.00  0.00    +0.000 OA
ENDBRANCH  20  27
BRANCH  24  28
ATOM     28  O   UNL     1      -0.053  11.807  22.306  0.00  0.00    +0.000 OA
ATOM     29  C   UNL     1      -0.899  12.887  22.661  0.00  0.00    +0.000 C 
ENDBRANCH  24  28
BRANCH  25  30
ATOM     30  O   UNL     1      -0.073   9.450  20.625  0.00  0.00    +0.000 OA
ATOM     31  C   UNL     1       0.746   8.515  21.311  0.00  0.00    +0.000 C 
ENDBRANCH  25  30
ENDBRANCH   1  22
BRANCH   3  32
ATOM     32  O   UNL     1       2.169  17.853  18.123  0.00  0.00    +0.000 OA
ATOM     33  C   UNL     1       1.006  18.350  18.771  0.00  0.00    +0.000 C 
ENDBRANCH   3  32
TORSDOF 6
ENDMDL
MODEL 8
REMARK VINA RESULT:      -7.0      6.053      9.621
REMARK  Name = 
REMARK  11 active torsions:
REMARK  status: ('A' for Active; 'I' for Inactive)
REMARK    1  A    between atoms: C_1  and  O_2
REMARK    2  A    between atoms: O_2  and  C_3
REMARK    3  A    between atoms: C_5  and  C_6
REMARK    4  A    between atoms: C_8  and  O_9
REMARK    5  A    between atoms: O_9  and  C_10
REMARK    6  A    between atoms: C_14  and  C_15
REMARK    7  A    between atoms: N_22  and  C_23
REMARK    8  A    between atoms: C_28  and  O_29
REMARK    9  A    between atoms: O_29  and  C_30
REMARK   10  A    between atoms: C_31  and  O_32
REMARK   11  A    between atoms: O_32  and  C_33
REMARK                            x       y       z     vdW  Elec       q    Type
REMARK                         _______ _______ _______ _____ _____    ______ ____
ROOT
ATOM      1  C   UNL     1       1.697  13.944  19.373  0.00  0.00    +0.000 A 
ATOM      2  C   UNL     1       0.870  15.115  19.059  0.00  0.00    +0.000 A 
ATOM      3  C   UNL     1       1.390  16.337  18.857  0.00  0.00    +0.000 A 
ATOM      4  C   UNL     1       2.804  16.512  18.972  0.00  0.00    +0.000 A 
ATOM      5  N   UNL     1       3.576  17.575  18.905  0.00  0.00    +0.000 NA
ATOM      6  N   UNL     1       4.877  17.158  19.014  0.00  0.00    +0.000 NA
ATOM      7  C   UNL     1       4.903  15.841  19.139  0.00  0.00    +0.000 A 
ATOM      8  N   UNL     1       3.585  15.380  19.198  0.00  0.00    +0.000 N 
ATOM      9  C   UNL     1       3.030  14.096  19.396  0.00  0.00    +0.000 A 
ENDROOT
BRANCH   7  10
ATOM     10  C   UNL     1       6.106  15.019  18.946  0.00  0.00    +0.000 A 
ATOM     11  C   UNL     1       6.379  14.293  17.786  0.00  0.00    +0.000 A 
ATOM     12  C   UNL     1       7.678  13.839  17.493  0.00  0.00    +0.000 A 
ATOM     13  C   UNL     1       8.699  14.150  18.410  0.00  0.00    +0.000 A 
ATOM     14  C   UNL     1       8.409  14.720  19.654  0.00  0.00    +0.000 A 
ATOM     15  C   UNL     1       9.626  14.840  20.371  0.00  0.00    +0.000 A 
ATOM     16  C   UNL     1      10.634  14.612  19.469  0.00  0.00    +0.000 A 
ATOM     17  N   UNL     1      10.071  14.013  18.369  0.00  0.00    +0.000 N 
ATOM     18  C   UNL     1      10.871  13.331  17.380  0.00  0.00    +0.000 C 
ATOM     19  C   UNL     1       7.090  15.107  19.944  0.00  0.00    +0.000 A 
ENDBRANCH   7  10
BRANCH   1  22
ATOM     20  C   UNL     1       0.722  10.338  19.078  0.00  0.00    +0.000 A 
ATOM     21  C   UNL     1       1.008  11.665  18.726  0.00  0.00    +0.000 A 
ATOM     22  C   UNL     1       1.045  12.668  19.696  0.00  0.00    +0.000 A 
ATOM     23  C   UNL     1       0.676  12.362  21.001  0.00  0.00    +0.000 A 
ATOM     24  C   UNL     1       0.323  11.051  21.368  0.00  0.00    +0.000 A 
ATOM     25  C   UNL     1       0.375  10.013  20.408  0.00  0.00    +0.000 A 
BRANCH  20  27
ATOM     26  C   UNL     1       2.043   8.849  17.789  0.00  0.00    +0.000 C 
ATOM     27  O   UNL     1       0.750   9.351  18.124  0.00  0.00    +0.000 OA
ENDBRANCH  20  27
BRANCH  24  28
ATOM     28  O   UNL     1       0.014  10.979  22.703  0.00  0.00    +0.000 OA
ATOM     29  C   UNL     1      -1.343  11.021  23.111  0.00  0.00    +0.000 C 
ENDBRANCH  24  28
BRANCH  25  30
ATOM     30  O   UNL     1       0.072   8.752  20.854  0.00  0.00    +0.000 OA
ATOM     31  C   UNL     1       1.109   7.907  21.332  0.00  0.00    +0.000 C 
ENDBRANCH  25  30
ENDBRANCH   1  22
BRANCH   3  32
ATOM     32  O   UNL     1       0.703  17.478  18.520  0.00  0.00    +0.000 OA
ATOM     33  C   UNL     1      -0.588  17.316  17.947  0.00  0.00    +0.000 C 
ENDBRANCH   3  32
TORSDOF 6
ENDMDL
MODEL 9
REMARK VINA RESULT:      -7.0      4.637      8.680
REMARK  Name = 
REMARK  11 active torsions:
REMARK  status: ('A' for Active; 'I' for Inactive)
REMARK    1  A    between atoms: C_1  and  O_2
REMARK    2  A    between atoms: O_2  and  C_3
REMARK    3  A    between atoms: C_5  and  C_6
REMARK    4  A    between atoms: C_8  and  O_9
REMARK    5  A    between atoms: O_9  and  C_10
REMARK    6  A    between atoms: C_14  and  C_15
REMARK    7  A    between atoms: N_22  and  C_23
REMARK    8  A    between atoms: C_28  and  O_29
REMARK    9  A    between atoms: O_29  and  C_30
REMARK   10  A    between atoms: C_31  and  O_32
REMARK   11  A    between atoms: O_32  and  C_33
REMARK                            x       y       z     vdW  Elec       q    Type
REMARK                         _______ _______ _______ _____ _____    ______ ____
ROOT
ATOM      1  C   UNL     1      -2.519  13.091  20.681  0.00  0.00    +0.000 A 
ATOM      2  C   UNL     1      -2.088  14.445  21.049  0.00  0.00    +0.000 A 
ATOM      3  C   UNL     1      -0.802  14.759  21.278  0.00  0.00    +0.000 A 
ATOM      4  C   UNL     1       0.186  13.732  21.180  0.00  0.00    +0.000 A 
ATOM      5  N   UNL     1       1.481  13.719  21.415  0.00  0.00    +0.000 NA
ATOM      6  N   UNL     1       1.956  12.476  21.087  0.00  0.00    +0.000 NA
ATOM      7  C   UNL     1       0.956  11.730  20.645  0.00  0.00    +0.000 A 
ATOM      8  N   UNL     1      -0.226  12.468  20.759  0.00  0.00    +0.000 N 
ATOM      9  C   UNL     1      -1.579  12.150  20.507  0.00  0.00    +0.000 A 
ENDROOT
BRANCH   7  10
ATOM     10  C   UNL     1       1.132  10.476  19.900  0.00  0.00    +0.000 A 
ATOM     11  C   UNL     1       1.568  10.408  18.576  0.00  0.00    +0.000 A 
ATOM     12  C   UNL     1       2.076   9.215  18.031  0.00  0.00    +0.000 A 
ATOM     13  C   UNL     1       2.137   8.089  18.871  0.00  0.00    +0.000 A 
ATOM     14  C   UNL     1       1.543   8.095  20.138  0.00  0.00    +0.000 A 
ATOM     15  C   UNL     1       1.706   6.805  20.701  0.00  0.00    +0.000 A 
ATOM     16  C   UNL     1       2.615   6.147  19.911  0.00  0.00    +0.000 A 
ATOM     17  N   UNL     1       2.707   6.840  18.730  0.00  0.00    +0.000 N 
ATOM     18  C   UNL     1       3.300   6.259  17.549  0.00  0.00    +0.000 C 
ATOM     19  C   UNL     1       0.987   9.287  20.632  0.00  0.00    +0.000 A 
ENDBRANCH   7  10
BRANCH   1  22
ATOM     20  C   UNL     1      -5.707  11.719  19.269  0.00  0.00    +0.000 A 
ATOM     21  C   UNL     1      -4.449  12.332  19.343  0.00  0.00    +0.000 A 
ATOM     22  C   UNL     1      -3.954  12.800  20.562  0.00  0.00    +0.000 A 
ATOM     23  C   UNL     1      -4.772  12.760  21.685  0.00  0.00    +0.000 A 
ATOM     24  C   UNL     1      -6.064  12.207  21.624  0.00  0.00    +0.000 A 
ATOM     25  C   UNL     1      -6.535  11.647  20.413  0.00  0.00    +0.000 A 
BRANCH  20  27
ATOM     26  C   UNL     1      -5.335  11.474  16.939  0.00  0.00    +0.000 C 
ATOM     27  O   UNL     1      -6.155  11.208  18.076  0.00  0.00    +0.000 OA
ENDBRANCH  20  27
BRANCH  24  28
ATOM     28  O   UNL     1      -6.681  12.258  22.849  0.00  0.00    +0.000 OA
ATOM     29  C   UNL     1      -6.010  12.851  23.948  0.00  0.00    +0.000 C 
ENDBRANCH  24  28
BRANCH  25  30
ATOM     30  O   UNL     1      -7.780  11.075  20.446  0.00  0.00    +0.000 OA
ATOM     31  C   UNL     1      -7.916   9.703  20.784  0.00  0.00    +0.000 C 
ENDBRANCH  25  30
ENDBRANCH   1  22
BRANCH   3  32
ATOM     32  O   UNL     1      -0.301  16.001  21.586  0.00  0.00    +0.000 OA
ATOM     33  C   UNL     1      -0.368  16.999  20.577  0.00  0.00    +0.000 C 
ENDBRANCH   3  32
TORSDOF 6
ENDMDL
