MODEL 1
REMARK VINA RESULT:      -8.6      0.000      0.000
REMARK  Name = 
REMARK  8 active torsions:
REMARK  status: ('A' for Active; 'I' for Inactive)
REMARK    1  A    between atoms: N_3  and  C_4
REMARK    2  A    between atoms: C_7  and  N_8
REMARK    3  A    between atoms: N_8  and  C_9
REMARK    4  A    between atoms: C_9  and  C_10
REMARK    5  A    between atoms: C_13  and  C_14
REMARK    6  A    between atoms: N_16  and  O_17
REMARK    7  A    between atoms: N_22  and  C_23
REMARK    8  A    between atoms: C_28  and  C_29
REMARK                            x       y       z     vdW  Elec       q    Type
REMARK                         _______ _______ _______ _____ _____    ______ ____
ROOT
ATOM      1  C   UNL     1      -0.210  10.850  22.303  0.00  0.00    +0.000 A 
ATOM      2  C   UNL     1       0.004  12.048  21.619  0.00  0.00    +0.000 A 
ATOM      3  C   UNL     1      -0.826  13.152  21.825  0.00  0.00    +0.000 A 
ATOM      4  C   UNL     1      -1.925  13.083  22.681  0.00  0.00    +0.000 A 
ATOM      5  C   UNL     1      -2.136  11.880  23.364  0.00  0.00    +0.000 A 
ATOM      6  C   UNL     1      -1.303  10.767  23.165  0.00  0.00    +0.000 A 
ENDROOT
BRANCH   1   9
ATOM      7  O   UNL     1      -0.047   9.016  20.104  0.00  0.00    +0.000 OA
ATOM      8  C   UNL     1       0.658   8.869  21.095  0.00  0.00    +0.000 C 
ATOM      9  N   UNL     1       0.644   9.726  22.182  0.00  0.00    +0.000 N 
ATOM     10  N   UNL     1       1.590   7.847  21.231  0.00  0.00    +0.000 N 
ATOM     11  H   UNL     1       1.420   9.679  22.824  0.00  0.00    +0.000 HD
ATOM     12  H   UNL     1       2.232   7.906  22.007  0.00  0.00    +0.000 HD
BRANCH  10  13
ATOM     13  C   UNL     1       1.850   6.863  20.246  0.00  0.00    +0.000 A 
ATOM     14  C   UNL     1       2.491   7.144  19.040  0.00  0.00    +0.000 A 
ATOM     15  C   UNL     1       2.805   6.128  18.137  0.00  0.00    +0.000 A 
ATOM     16  C   UNL     1       2.463   4.804  18.413  0.00  0.00    +0.000 A 
ATOM     17 CL   UNL     1       2.944   3.635  17.242  0.00  0.00    +0.000 Cl
ATOM     18  C   UNL     1       1.777   4.491  19.592  0.00  0.00    +0.000 A 
ATOM     19  C   UNL     1       1.467   5.541  20.497  0.00  0.00    +0.000 A 
BRANCH  18  20
ATOM     20  C   UNL     1       1.355   3.097  19.976  0.00  0.00    +0.000 C 
ATOM     21  F   UNL     1       0.724   2.954  21.169  0.00  0.00    +0.000 F 
ATOM     22  F   UNL     1       0.512   2.555  19.050  0.00  0.00    +0.000 F 
ATOM     23  F   UNL     1       2.423   2.249  20.027  0.00  0.00    +0.000 F 
ENDBRANCH  18  20
ENDBRANCH  10  13
ENDBRANCH   1   9
BRANCH   4  24
ATOM     24  N   UNL     1      -2.671  14.234  22.896  0.00  0.00    +0.000 N 
ATOM     25  H   UNL     1      -2.184  14.956  23.418  0.00  0.00    +0.000 HD
BRANCH  24  26
ATOM     26  C   UNL     1      -3.546  14.775  21.865  0.00  0.00    +0.000 C 
BRANCH  26  27
ATOM     27  C   UNL     1      -4.351  13.676  21.211  0.00  0.00    +0.000 A 
ATOM     28  C   UNL     1      -5.539  13.236  21.807  0.00  0.00    +0.000 A 
ATOM     29  C   UNL     1      -6.299  12.224  21.212  0.00  0.00    +0.000 A 
ATOM     30  C   UNL     1      -5.892  11.638  20.005  0.00  0.00    +0.000 A 
ATOM     31  C   UNL     1      -4.721  12.094  19.392  0.00  0.00    +0.000 A 
ATOM     32  C   UNL     1      -3.967  13.108  19.987  0.00  0.00    +0.000 A 
BRANCH  30  33
ATOM     33  C   UNL     1      -6.731  10.538  19.446  0.00  0.00    +0.000 C 
ATOM     34  O   UNL     1      -7.052  10.524  18.260  0.00  0.00    +0.000 OA
ATOM     35  N   UNL     1      -7.134   9.540  20.301  0.00  0.00    +0.000 N 
ATOM     36  H   UNL     1      -6.874   9.424  21.271  0.00  0.00    +0.000 HD
BRANCH  35  37
ATOM     37  O   UNL     1      -7.915   8.511  19.729  0.00  0.00    +0.000 OA
ATOM     38  H   UNL     1      -8.114   7.949  20.511  0.00  0.00    +0.000 HD
ENDBRANCH  35  37
ENDBRANCH  30  33
ENDBRANCH  26  27
ENDBRANCH  24  26
ENDBRANCH   4  24
TORSDOF 8
ENDMDL
MODEL 2
REMARK VINA RESULT:      -8.3      7.399     11.062
REMARK  Name = 
REMARK  8 active torsions:
REMARK  status: ('A' for Active; 'I' for Inactive)
REMARK    1  A    between atoms: N_3  and  C_4
REMARK    2  A    between atoms: C_7  and  N_8
REMARK    3  A    between atoms: N_8  and  C_9
REMARK    4  A    between atoms: C_9  and  C_10
REMARK    5  A    between atoms: C_13  and  C_14
REMARK    6  A    between atoms: N_16  and  O_17
REMARK    7  A    between atoms: N_22  and  C_23
REMARK    8  A    between atoms: C_28  and  C_29
REMARK                            x       y       z     vdW  Elec       q    Type
REMARK                         _______ _______ _______ _____ _____    ______ ____
ROOT
ATOM      1  C   UNL     1       7.853   6.888  18.561  0.00  0.00    +0.000 A 
ATOM      2  C   UNL     1       7.340   6.756  17.270  0.00  0.00    +0.000 A 
ATOM      3  C   UNL     1       6.416   5.754  16.962  0.00  0.00    +0.000 A 
ATOM      4  C   UNL     1       6.012   4.823  17.917  0.00  0.00    +0.000 A 
ATOM      5  C   UNL     1       6.530   4.958  19.211  0.00  0.00    +0.000 A 
ATOM      6  C   UNL     1       7.456   5.964  19.528  0.00  0.00    +0.000 A 
ENDROOT
BRANCH   1   9
ATOM      7  O   UNL     1       7.797   9.623  17.698  0.00  0.00    +0.000 OA
ATOM      8  C   UNL     1       8.663   9.228  18.469  0.00  0.00    +0.000 C 
ATOM      9  N   UNL     1       8.738   7.928  18.940  0.00  0.00    +0.000 N 
ATOM     10  N   UNL     1       9.652  10.046  19.000  0.00  0.00    +0.000 N 
ATOM     11  H   UNL     1       9.312   7.756  19.750  0.00  0.00    +0.000 HD
ATOM     12  H   UNL     1      10.215   9.668  19.747  0.00  0.00    +0.000 HD
BRANCH  10  13
ATOM     13  C   UNL     1       9.776  11.431  18.731  0.00  0.00    +0.000 A 
ATOM     14  C   UNL     1      10.513  11.936  17.660  0.00  0.00    +0.000 A 
ATOM     15  C   UNL     1      10.536  13.301  17.381  0.00  0.00    +0.000 A 
ATOM     16  C   UNL     1       9.834  14.201  18.183  0.00  0.00    +0.000 A 
ATOM     17 CL   UNL     1       9.903  15.857  17.710  0.00  0.00    +0.000 Cl
ATOM     18  C   UNL     1       9.121  13.736  19.294  0.00  0.00    +0.000 A 
ATOM     19  C   UNL     1       9.112  12.341  19.561  0.00  0.00    +0.000 A 
BRANCH  18  20
ATOM     20  C   UNL     1       8.342  14.626  20.227  0.00  0.00    +0.000 C 
ATOM     21  F   UNL     1       7.217  15.199  19.731  0.00  0.00    +0.000 F 
ATOM     22  F   UNL     1       7.946  13.955  21.347  0.00  0.00    +0.000 F 
ATOM     23  F   UNL     1       9.106  15.662  20.681  0.00  0.00    +0.000 F 
ENDBRANCH  18  20
ENDBRANCH  10  13
ENDBRANCH   1   9
BRANCH   4  24
ATOM     24  N   UNL     1       5.040   3.894  17.568  0.00  0.00    +0.000 N 
ATOM     25  H   UNL     1       5.010   3.076  18.167  0.00  0.00    +0.000 HD
BRANCH  24  26
ATOM     26  C   UNL     1       3.721   4.312  17.113  0.00  0.00    +0.000 C 
BRANCH  26  27
ATOM     27  C   UNL     1       3.135   5.349  18.043  0.00  0.00    +0.000 A 
ATOM     28  C   UNL     1       3.020   6.679  17.618  0.00  0.00    +0.000 A 
ATOM     29  C   UNL     1       2.475   7.650  18.462  0.00  0.00    +0.000 A 
ATOM     30  C   UNL     1       2.023   7.311  19.746  0.00  0.00    +0.000 A 
ATOM     31  C   UNL     1       2.108   5.979  20.164  0.00  0.00    +0.000 A 
ATOM     32  C   UNL     1       2.649   5.011  19.315  0.00  0.00    +0.000 A 
BRANCH  30  33
ATOM     33  C   UNL     1       1.487   8.404  20.608  0.00  0.00    +0.000 C 
ATOM     34  O   UNL     1       0.801   9.308  20.134  0.00  0.00    +0.000 OA
ATOM     35  N   UNL     1       1.784   8.369  21.949  0.00  0.00    +0.000 N 
ATOM     36  H   UNL     1       2.281   7.642  22.447  0.00  0.00    +0.000 HD
BRANCH  35  37
ATOM     37  O   UNL     1       1.247   9.415  22.732  0.00  0.00    +0.000 OA
ATOM     38  H   UNL     1       1.564  10.211  22.252  0.00  0.00    +0.000 HD
ENDBRANCH  35  37
ENDBRANCH  30  33
ENDBRANCH  26  27
ENDBRANCH  24  26
ENDBRANCH   4  24
TORSDOF 8
ENDMDL
MODEL 3
REMARK VINA RESULT:      -8.3      9.407     12.065
REMARK  Name = 
REMARK  8 active torsions:
REMARK  status: ('A' for Active; 'I' for Inactive)
REMARK    1  A    between atoms: N_3  and  C_4
REMARK    2  A    between atoms: C_7  and  N_8
REMARK    3  A    between atoms: N_8  and  C_9
REMARK    4  A    between atoms: C_9  and  C_10
REMARK    5  A    between atoms: C_13  and  C_14
REMARK    6  A    between atoms: N_16  and  O_17
REMARK    7  A    between atoms: N_22  and  C_23
REMARK    8  A    between atoms: C_28  and  C_29
REMARK                            x       y       z     vdW  Elec       q    Type
REMARK                         _______ _______ _______ _____ _____    ______ ____
ROOT
ATOM      1  C   UNL     1       8.079   7.211  18.487  0.00  0.00    +0.000 A 
ATOM      2  C   UNL     1       7.525   7.458  17.230  0.00  0.00    +0.000 A 
ATOM      3  C   UNL     1       6.997   6.418  16.460  0.00  0.00    +0.000 A 
ATOM      4  C   UNL     1       7.051   5.095  16.896  0.00  0.00    +0.000 A 
ATOM      5  C   UNL     1       7.608   4.852  18.157  0.00  0.00    +0.000 A 
ATOM      6  C   UNL     1       8.136   5.892  18.938  0.00  0.00    +0.000 A 
ENDROOT
BRANCH   1   9
ATOM      7  O   UNL     1       9.030   9.804  17.714  0.00  0.00    +0.000 OA
ATOM      8  C   UNL     1       9.025   9.465  18.891  0.00  0.00    +0.000 C 
ATOM      9  N   UNL     1       8.562   8.238  19.335  0.00  0.00    +0.000 N 
ATOM     10  N   UNL     1       9.442  10.287  19.931  0.00  0.00    +0.000 N 
ATOM     11  H   UNL     1       8.359   8.143  20.318  0.00  0.00    +0.000 HD
ATOM     12  H   UNL     1       9.247   9.980  20.871  0.00  0.00    +0.000 HD
BRANCH  10  13
ATOM     13  C   UNL     1       9.910  11.614  19.764  0.00  0.00    +0.000 A 
ATOM     14  C   UNL     1      11.254  11.968  19.882  0.00  0.00    +0.000 A 
ATOM     15  C   UNL     1      11.681  13.269  19.624  0.00  0.00    +0.000 A 
ATOM     16  C   UNL     1      10.766  14.257  19.261  0.00  0.00    +0.000 A 
ATOM     17 CL   UNL     1      11.422  15.816  18.924  0.00  0.00    +0.000 Cl
ATOM     18  C   UNL     1       9.403  13.950  19.179  0.00  0.00    +0.000 A 
ATOM     19  C   UNL     1       8.990  12.618  19.447  0.00  0.00    +0.000 A 
BRANCH  18  20
ATOM     20  C   UNL     1       8.336  14.947  18.807  0.00  0.00    +0.000 C 
ATOM     21  F   UNL     1       7.059  14.492  18.768  0.00  0.00    +0.000 F 
ATOM     22  F   UNL     1       8.320  16.008  19.664  0.00  0.00    +0.000 F 
ATOM     23  F   UNL     1       8.566  15.486  17.574  0.00  0.00    +0.000 F 
ENDBRANCH  18  20
ENDBRANCH  10  13
ENDBRANCH   1   9
BRANCH   4  24
ATOM     24  N   UNL     1       6.448   4.116  16.116  0.00  0.00    +0.000 N 
ATOM     25  H   UNL     1       6.745   3.169  16.331  0.00  0.00    +0.000 HD
BRANCH  24  26
ATOM     26  C   UNL     1       5.041   4.198  15.749  0.00  0.00    +0.000 C 
BRANCH  26  27
ATOM     27  C   UNL     1       4.157   3.969  16.953  0.00  0.00    +0.000 A 
ATOM     28  C   UNL     1       3.495   5.052  17.545  0.00  0.00    +0.000 A 
ATOM     29  C   UNL     1       2.668   4.858  18.656  0.00  0.00    +0.000 A 
ATOM     30  C   UNL     1       2.477   3.576  19.192  0.00  0.00    +0.000 A 
ATOM     31  C   UNL     1       3.113   2.488  18.585  0.00  0.00    +0.000 A 
ATOM     32  C   UNL     1       3.935   2.685  17.473  0.00  0.00    +0.000 A 
BRANCH  30  33
ATOM     33  C   UNL     1       1.612   3.447  20.400  0.00  0.00    +0.000 C 
ATOM     34  O   UNL     1       0.570   4.090  20.506  0.00  0.00    +0.000 OA
ATOM     35  N   UNL     1       2.018   2.586  21.391  0.00  0.00    +0.000 N 
ATOM     36  H   UNL     1       2.817   1.967  21.375  0.00  0.00    +0.000 HD
BRANCH  35  37
ATOM     37  O   UNL     1       1.164   2.483  22.512  0.00  0.00    +0.000 OA
ATOM     38  H   UNL     1       1.638   3.027  23.179  0.00  0.00    +0.000 HD
ENDBRANCH  35  37
ENDBRANCH  30  33
ENDBRANCH  26  27
ENDBRANCH  24  26
ENDBRANCH   4  24
TORSDOF 8
ENDMDL
MODEL 4
REMARK VINA RESULT:      -8.2      6.129     11.289
REMARK  Name = 
REMARK  8 active torsions:
REMARK  status: ('A' for Active; 'I' for Inactive)
REMARK    1  A    between atoms: N_3  and  C_4
REMARK    2  A    between atoms: C_7  and  N_8
REMARK    3  A    between atoms: N_8  and  C_9
REMARK    4  A    between atoms: C_9  and  C_10
REMARK    5  A    between atoms: C_13  and  C_14
REMARK    6  A    between atoms: N_16  and  O_17
REMARK    7  A    between atoms: N_22  and  C_23
REMARK    8  A    between atoms: C_28  and  C_29
REMARK                            x       y       z     vdW  Elec       q    Type
REMARK                         _______ _______ _______ _____ _____    ______ ____
ROOT
ATOM      1  C   UNL     1       1.017   9.239  19.336  0.00  0.00    +0.000 A 
ATOM      2  C   UNL     1       1.724   8.794  18.219  0.00  0.00    +0.000 A 
ATOM      3  C   UNL     1       2.465   7.610  18.261  0.00  0.00    +0.000 A 
ATOM      4  C   UNL     1       2.565   6.860  19.432  0.00  0.00    +0.000 A 
ATOM      5  C   UNL     1       1.856   7.311  20.551  0.00  0.00    +0.000 A 
ATOM      6  C   UNL     1       1.106   8.498  20.514  0.00  0.00    +0.000 A 
ENDROOT
BRANCH   1   9
ATOM      7  O   UNL     1      -1.756   9.395  18.621  0.00  0.00    +0.000 OA
ATOM      8  C   UNL     1      -1.137  10.401  18.948  0.00  0.00    +0.000 C 
ATOM      9  N   UNL     1       0.195  10.394  19.323  0.00  0.00    +0.000 N 
ATOM     10  N   UNL     1      -1.708  11.665  19.025  0.00  0.00    +0.000 N 
ATOM     11  H   UNL     1       0.548  11.202  19.813  0.00  0.00    +0.000 HD
ATOM     12  H   UNL     1      -1.162  12.394  19.459  0.00  0.00    +0.000 HD
BRANCH  10  13
ATOM     13  C   UNL     1      -3.068  11.948  18.750  0.00  0.00    +0.000 A 
ATOM     14  C   UNL     1      -3.672  11.666  17.526  0.00  0.00    +0.000 A 
ATOM     15  C   UNL     1      -5.036  11.881  17.328  0.00  0.00    +0.000 A 
ATOM     16  C   UNL     1      -5.826  12.406  18.351  0.00  0.00    +0.000 A 
ATOM     17 CL   UNL     1      -7.504  12.584  18.001  0.00  0.00    +0.000 Cl
ATOM     18  C   UNL     1      -5.245  12.745  19.578  0.00  0.00    +0.000 A 
ATOM     19  C   UNL     1      -3.854  12.519  19.757  0.00  0.00    +0.000 A 
BRANCH  18  20
ATOM     20  C   UNL     1      -6.008  13.327  20.739  0.00  0.00    +0.000 C 
ATOM     21  F   UNL     1      -6.619  14.521  20.535  0.00  0.00    +0.000 F 
ATOM     22  F   UNL     1      -6.991  12.483  21.168  0.00  0.00    +0.000 F 
ATOM     23  F   UNL     1      -5.200  13.515  21.823  0.00  0.00    +0.000 F 
ENDBRANCH  18  20
ENDBRANCH  10  13
ENDBRANCH   1   9
BRANCH   4  24
ATOM     24  N   UNL     1       3.260   5.658  19.392  0.00  0.00    +0.000 N 
ATOM     25  H   UNL     1       2.857   4.963  18.771  0.00  0.00    +0.000 HD
BRANCH  24  26
ATOM     26  C   UNL     1       4.715   5.621  19.412  0.00  0.00    +0.000 C 
BRANCH  26  27
ATOM     27  C   UNL     1       5.267   5.364  18.028  0.00  0.00    +0.000 A 
ATOM     28  C   UNL     1       4.575   4.522  17.149  0.00  0.00    +0.000 A 
ATOM     29  C   UNL     1       5.068   4.277  15.864  0.00  0.00    +0.000 A 
ATOM     30  C   UNL     1       6.258   4.879  15.427  0.00  0.00    +0.000 A 
ATOM     31  C   UNL     1       6.936   5.744  16.291  0.00  0.00    +0.000 A 
ATOM     32  C   UNL     1       6.438   5.988  17.573  0.00  0.00    +0.000 A 
BRANCH  30  33
ATOM     33  C   UNL     1       6.746   4.544  14.057  0.00  0.00    +0.000 C 
ATOM     34  O   UNL     1       7.566   5.258  13.484  0.00  0.00    +0.000 OA
ATOM     35  N   UNL     1       6.248   3.413  13.457  0.00  0.00    +0.000 N 
ATOM     36  H   UNL     1       5.625   2.729  13.863  0.00  0.00    +0.000 HD
BRANCH  35  37
ATOM     37  O   UNL     1       6.745   3.125  12.166  0.00  0.00    +0.000 OA
ATOM     38  H   UNL     1       5.967   2.703  11.738  0.00  0.00    +0.000 HD
ENDBRANCH  35  37
ENDBRANCH  30  33
ENDBRANCH  26  27
ENDBRANCH  24  26
ENDBRANCH   4  24
TORSDOF 8
ENDMDL
MODEL 5
REMARK VINA RESULT:      -8.2      9.395     12.088
REMARK  Name = 
REMARK  8 active torsions:
REMARK  status: ('A' for Active; 'I' for Inactive)
REMARK    1  A    between atoms: N_3  and  C_4
REMARK    2  A    between atoms: C_7  and  N_8
REMARK    3  A    between atoms: N_8  and  C_9
REMARK    4  A    between atoms: C_9  and  C_10
REMARK    5  A    between atoms: C_13  and  C_14
REMARK    6  A    between atoms: N_16  and  O_17
REMARK    7  A    between atoms: N_22  and  C_23
REMARK    8  A    between atoms: C_28  and  C_29
REMARK                            x       y       z     vdW  Elec       q    Type
REMARK                         _______ _______ _______ _____ _____    ______ ____
ROOT
ATOM      1  C   UNL     1       8.063   7.216  18.516  0.00  0.00    +0.000 A 
ATOM      2  C   UNL     1       8.133   5.886  18.931  0.00  0.00    +0.000 A 
ATOM      3  C   UNL     1       7.603   4.859  18.146  0.00  0.00    +0.000 A 
ATOM      4  C   UNL     1       6.943   5.130  16.948  0.00  0.00    +0.000 A 
ATOM      5  C   UNL     1       6.874   6.465  16.536  0.00  0.00    +0.000 A 
ATOM      6  C   UNL     1       7.407   7.502  17.318  0.00  0.00    +0.000 A 
ENDROOT
BRANCH   1   9
ATOM      7  O   UNL     1       8.796   9.803  17.515  0.00  0.00    +0.000 OA
ATOM      8  C   UNL     1       8.992   9.507  18.688  0.00  0.00    +0.000 C 
ATOM      9  N   UNL     1       8.646   8.286  19.241  0.00  0.00    +0.000 N 
ATOM     10  N   UNL     1       9.547  10.377  19.619  0.00  0.00    +0.000 N 
ATOM     11  H   UNL     1       8.608   8.221  20.246  0.00  0.00    +0.000 HD
ATOM     12  H   UNL     1       9.517  10.099  20.588  0.00  0.00    +0.000 HD
BRANCH  10  13
ATOM     13  C   UNL     1       9.940  11.708  19.337  0.00  0.00    +0.000 A 
ATOM     14  C   UNL     1      11.243  12.058  18.984  0.00  0.00    +0.000 A 
ATOM     15  C   UNL     1      11.566  13.367  18.629  0.00  0.00    +0.000 A 
ATOM     16  C   UNL     1      10.592  14.365  18.640  0.00  0.00    +0.000 A 
ATOM     17 CL   UNL     1      11.104  15.933  18.138  0.00  0.00    +0.000 Cl
ATOM     18  C   UNL     1       9.285  14.061  19.033  0.00  0.00    +0.000 A 
ATOM     19  C   UNL     1       8.977  12.721  19.392  0.00  0.00    +0.000 A 
BRANCH  18  20
ATOM     20  C   UNL     1       8.165  15.068  19.089  0.00  0.00    +0.000 C 
ATOM     21  F   UNL     1       7.799  15.643  17.915  0.00  0.00    +0.000 F 
ATOM     22  F   UNL     1       7.024  14.522  19.599  0.00  0.00    +0.000 F 
ATOM     23  F   UNL     1       8.470  16.106  19.921  0.00  0.00    +0.000 F 
ENDBRANCH  18  20
ENDBRANCH  10  13
ENDBRANCH   1   9
BRANCH   4  24
ATOM     24  N   UNL     1       6.499   4.060  16.180  0.00  0.00    +0.000 N 
ATOM     25  H   UNL     1       6.907   3.166  16.434  0.00  0.00    +0.000 HD
BRANCH  24  26
ATOM     26  C   UNL     1       5.108   3.950  15.766  0.00  0.00    +0.000 C 
BRANCH  26  27
ATOM     27  C   UNL     1       4.195   3.849  16.966  0.00  0.00    +0.000 A 
ATOM     28  C   UNL     1       4.071   2.631  17.645  0.00  0.00    +0.000 A 
ATOM     29  C   UNL     1       3.235   2.520  18.760  0.00  0.00    +0.000 A 
ATOM     30  C   UNL     1       2.513   3.629  19.226  0.00  0.00    +0.000 A 
ATOM     31  C   UNL     1       2.657   4.855  18.569  0.00  0.00    +0.000 A 
ATOM     32  C   UNL     1       3.496   4.962  17.458  0.00  0.00    +0.000 A 
BRANCH  30  33
ATOM     33  C   UNL     1       1.612   3.432  20.399  0.00  0.00    +0.000 C 
ATOM     34  O   UNL     1       0.491   3.935  20.429  0.00  0.00    +0.000 OA
ATOM     35  N   UNL     1       2.075   2.669  21.444  0.00  0.00    +0.000 N 
ATOM     36  H   UNL     1       2.948   2.162  21.491  0.00  0.00    +0.000 HD
BRANCH  35  37
ATOM     37  O   UNL     1       1.186   2.496  22.528  0.00  0.00    +0.000 OA
ATOM     38  H   UNL     1       0.347   2.272  22.068  0.00  0.00    +0.000 HD
ENDBRANCH  35  37
ENDBRANCH  30  33
ENDBRANCH  26  27
ENDBRANCH  24  26
ENDBRANCH   4  24
TORSDOF 8
ENDMDL
MODEL 6
REMARK VINA RESULT:      -8.2      3.373      4.328
REMARK  Name = 
REMARK  8 active torsions:
REMARK  status: ('A' for Active; 'I' for Inactive)
REMARK    1  A    between atoms: N_3  and  C_4
REMARK    2  A    between atoms: C_7  and  N_8
REMARK    3  A    between atoms: N_8  and  C_9
REMARK    4  A    between atoms: C_9  and  C_10
REMARK    5  A    between atoms: C_13  and  C_14
REMARK    6  A    between atoms: N_16  and  O_17
REMARK    7  A    between atoms: N_22  and  C_23
REMARK    8  A    between atoms: C_28  and  C_29
REMARK                            x       y       z     vdW  Elec       q    Type
REMARK                         _______ _______ _______ _____ _____    ______ ____
ROOT
ATOM      1  C   UNL     1       0.996   8.560  21.617  0.00  0.00    +0.000 A 
ATOM      2  C   UNL     1      -0.134   8.647  22.431  0.00  0.00    +0.000 A 
ATOM      3  C   UNL     1      -0.790   9.866  22.623  0.00  0.00    +0.000 A 
ATOM      4  C   UNL     1      -0.310  11.044  22.052  0.00  0.00    +0.000 A 
ATOM      5  C   UNL     1       0.825  10.952  21.237  0.00  0.00    +0.000 A 
ATOM      6  C   UNL     1       1.486   9.729  21.037  0.00  0.00    +0.000 A 
ENDROOT
BRANCH   1   9
ATOM      7  O   UNL     1       2.352   7.830  19.197  0.00  0.00    +0.000 OA
ATOM      8  C   UNL     1       2.276   7.043  20.133  0.00  0.00    +0.000 C 
ATOM      9  N   UNL     1       1.654   7.337  21.335  0.00  0.00    +0.000 N 
ATOM     10  N   UNL     1       2.843   5.775  20.120  0.00  0.00    +0.000 N 
ATOM     11  H   UNL     1       1.857   6.742  22.124  0.00  0.00    +0.000 HD
ATOM     12  H   UNL     1       2.866   5.269  20.993  0.00  0.00    +0.000 HD
BRANCH  10  13
ATOM     13  C   UNL     1       3.584   5.240  19.038  0.00  0.00    +0.000 A 
ATOM     14  C   UNL     1       2.997   4.542  17.984  0.00  0.00    +0.000 A 
ATOM     15  C   UNL     1       3.754   4.109  16.896  0.00  0.00    +0.000 A 
ATOM     16  C   UNL     1       5.127   4.347  16.849  0.00  0.00    +0.000 A 
ATOM     17 CL   UNL     1       5.945   3.803  15.432  0.00  0.00    +0.000 Cl
ATOM     18  C   UNL     1       5.759   5.003  17.911  0.00  0.00    +0.000 A 
ATOM     19  C   UNL     1       4.969   5.434  19.009  0.00  0.00    +0.000 A 
BRANCH  18  20
ATOM     20  C   UNL     1       7.236   5.297  17.960  0.00  0.00    +0.000 C 
ATOM     21  F   UNL     1       8.077   4.251  17.763  0.00  0.00    +0.000 F 
ATOM     22  F   UNL     1       7.592   6.232  17.032  0.00  0.00    +0.000 F 
ATOM     23  F   UNL     1       7.598   5.831  19.163  0.00  0.00    +0.000 F 
ENDBRANCH  18  20
ENDBRANCH  10  13
ENDBRANCH   1   9
BRANCH   4  24
ATOM     24  N   UNL     1      -1.045  12.210  22.224  0.00  0.00    +0.000 N 
ATOM     25  H   UNL     1      -0.991  12.603  23.158  0.00  0.00    +0.000 HD
BRANCH  24  26
ATOM     26  C   UNL     1      -1.108  13.227  21.184  0.00  0.00    +0.000 C 
BRANCH  26  27
ATOM     27  C   UNL     1      -1.672  12.655  19.904  0.00  0.00    +0.000 A 
ATOM     28  C   UNL     1      -3.024  12.300  19.838  0.00  0.00    +0.000 A 
ATOM     29  C   UNL     1      -3.564  11.774  18.660  0.00  0.00    +0.000 A 
ATOM     30  C   UNL     1      -2.765  11.602  17.520  0.00  0.00    +0.000 A 
ATOM     31  C   UNL     1      -1.420  11.983  17.573  0.00  0.00    +0.000 A 
ATOM     32  C   UNL     1      -0.886  12.512  18.750  0.00  0.00    +0.000 A 
BRANCH  30  33
ATOM     33  C   UNL     1      -3.396  11.001  16.309  0.00  0.00    +0.000 C 
ATOM     34  O   UNL     1      -4.614  10.850  16.237  0.00  0.00    +0.000 OA
ATOM     35  N   UNL     1      -2.573  10.621  15.277  0.00  0.00    +0.000 N 
ATOM     36  H   UNL     1      -1.574  10.759  15.209  0.00  0.00    +0.000 HD
BRANCH  35  37
ATOM     37  O   UNL     1      -3.212  10.069  14.144  0.00  0.00    +0.000 OA
ATOM     38  H   UNL     1      -3.526  10.874  13.677  0.00  0.00    +0.000 HD
ENDBRANCH  35  37
ENDBRANCH  30  33
ENDBRANCH  26  27
ENDBRANCH  24  26
ENDBRANCH   4  24
TORSDOF 8
ENDMDL
MODEL 7
REMARK VINA RESULT:      -8.2      6.103     11.315
REMARK  Name = 
REMARK  8 active torsions:
REMARK  status: ('A' for Active; 'I' for Inactive)
REMARK    1  A    between atoms: N_3  and  C_4
REMARK    2  A    between atoms: C_7  and  N_8
REMARK    3  A    between atoms: N_8  and  C_9
REMARK    4  A    between atoms: C_9  and  C_10
REMARK    5  A    between atoms: C_13  and  C_14
REMARK    6  A    between atoms: N_16  and  O_17
REMARK    7  A    between atoms: N_22  and  C_23
REMARK    8  A    between atoms: C_28  and  C_29
REMARK                            x       y       z     vdW  Elec       q    Type
REMARK                         _______ _______ _______ _____ _____    ______ ____
ROOT
ATOM      1  C   UNL     1       1.105   9.161  19.198  0.00  0.00    +0.000 A 
ATOM      2  C   UNL     1       1.785   8.631  18.101  0.00  0.00    +0.000 A 
ATOM      3  C   UNL     1       2.508   7.440  18.209  0.00  0.00    +0.000 A 
ATOM      4  C   UNL     1       2.618   6.768  19.426  0.00  0.00    +0.000 A 
ATOM      5  C   UNL     1       1.935   7.304  20.525  0.00  0.00    +0.000 A 
ATOM      6  C   UNL     1       1.204   8.498  20.422  0.00  0.00    +0.000 A 
ENDROOT
BRANCH   1   9
ATOM      7  O   UNL     1      -1.700   9.307  18.617  0.00  0.00    +0.000 OA
ATOM      8  C   UNL     1      -1.049  10.326  18.818  0.00  0.00    +0.000 C 
ATOM      9  N   UNL     1       0.302  10.327  19.122  0.00  0.00    +0.000 N 
ATOM     10  N   UNL     1      -1.595  11.603  18.809  0.00  0.00    +0.000 N 
ATOM     11  H   UNL     1       0.692  11.168  19.516  0.00  0.00    +0.000 HD
ATOM     12  H   UNL     1      -1.016  12.358  19.145  0.00  0.00    +0.000 HD
BRANCH  10  13
ATOM     13  C   UNL     1      -2.964  11.887  18.580  0.00  0.00    +0.000 A 
ATOM     14  C   UNL     1      -3.597  11.653  17.360  0.00  0.00    +0.000 A 
ATOM     15  C   UNL     1      -4.967  11.865  17.207  0.00  0.00    +0.000 A 
ATOM     16  C   UNL     1      -5.734  12.340  18.270  0.00  0.00    +0.000 A 
ATOM     17 CL   UNL     1      -7.422  12.520  17.970  0.00  0.00    +0.000 Cl
ATOM     18  C   UNL     1      -5.125  12.631  19.496  0.00  0.00    +0.000 A 
ATOM     19  C   UNL     1      -3.728  12.408  19.630  0.00  0.00    +0.000 A 
BRANCH  18  20
ATOM     20  C   UNL     1      -5.862  13.158  20.699  0.00  0.00    +0.000 C 
ATOM     21  F   UNL     1      -6.945  12.452  21.112  0.00  0.00    +0.000 F 
ATOM     22  F   UNL     1      -5.046  13.246  21.789  0.00  0.00    +0.000 F 
ATOM     23  F   UNL     1      -6.317  14.428  20.489  0.00  0.00    +0.000 F 
ENDBRANCH  18  20
ENDBRANCH  10  13
ENDBRANCH   1   9
BRANCH   4  24
ATOM     24  N   UNL     1       3.293   5.555  19.454  0.00  0.00    +0.000 N 
ATOM     25  H   UNL     1       2.872   4.830  18.881  0.00  0.00    +0.000 HD
BRANCH  24  26
ATOM     26  C   UNL     1       4.747   5.495  19.463  0.00  0.00    +0.000 C 
BRANCH  26  27
ATOM     27  C   UNL     1       5.285   5.260  18.070  0.00  0.00    +0.000 A 
ATOM     28  C   UNL     1       6.418   5.959  17.635  0.00  0.00    +0.000 A 
ATOM     29  C   UNL     1       6.933   5.750  16.352  0.00  0.00    +0.000 A 
ATOM     30  C   UNL     1       6.331   4.830  15.481  0.00  0.00    +0.000 A 
ATOM     31  C   UNL     1       5.218   4.108  15.921  0.00  0.00    +0.000 A 
ATOM     32  C   UNL     1       4.709   4.317  17.205  0.00  0.00    +0.000 A 
BRANCH  30  33
ATOM     33  C   UNL     1       6.910   4.684  14.113  0.00  0.00    +0.000 C 
ATOM     34  O   UNL     1       7.828   5.407  13.732  0.00  0.00    +0.000 OA
ATOM     35  N   UNL     1       6.383   3.715  13.293  0.00  0.00    +0.000 N 
ATOM     36  H   UNL     1       5.678   3.031  13.530  0.00  0.00    +0.000 HD
BRANCH  35  37
ATOM     37  O   UNL     1       6.968   3.601  12.012  0.00  0.00    +0.000 OA
ATOM     38  H   UNL     1       7.674   4.283  12.050  0.00  0.00    +0.000 HD
ENDBRANCH  35  37
ENDBRANCH  30  33
ENDBRANCH  26  27
ENDBRANCH  24  26
ENDBRANCH   4  24
TORSDOF 8
ENDMDL
MODEL 8
REMARK VINA RESULT:      -8.1      4.387      6.277
REMARK  Name = 
REMARK  8 active torsions:
REMARK  status: ('A' for Active; 'I' for Inactive)
REMARK    1  A    between atoms: N_3  and  C_4
REMARK    2  A    between atoms: C_7  and  N_8
REMARK    3  A    between atoms: N_8  and  C_9
REMARK    4  A    between atoms: C_9  and  C_10
REMARK    5  A    between atoms: C_13  and  C_14
REMARK    6  A    between atoms: N_16  and  O_17
REMARK    7  A    between atoms: N_22  and  C_23
REMARK    8  A    between atoms: C_28  and  C_29
REMARK                            x       y       z     vdW  Elec       q    Type
REMARK                         _______ _______ _______ _____ _____    ______ ____
ROOT
ATOM      1  C   UNL     1       0.786   8.784  21.259  0.00  0.00    +0.000 A 
ATOM      2  C   UNL     1       0.272   9.454  20.148  0.00  0.00    +0.000 A 
ATOM      3  C   UNL     1      -0.517  10.597  20.299  0.00  0.00    +0.000 A 
ATOM      4  C   UNL     1      -0.861  11.077  21.562  0.00  0.00    +0.000 A 
ATOM      5  C   UNL     1      -0.345  10.401  22.674  0.00  0.00    +0.000 A 
ATOM      6  C   UNL     1       0.453   9.254  22.529  0.00  0.00    +0.000 A 
ENDROOT
BRANCH   1   9
ATOM      7  O   UNL     1       2.011   7.740  18.884  0.00  0.00    +0.000 OA
ATOM      8  C   UNL     1       2.193   7.202  19.970  0.00  0.00    +0.000 C 
ATOM      9  N   UNL     1       1.649   7.664  21.156  0.00  0.00    +0.000 N 
ATOM     10  N   UNL     1       3.002   6.088  20.151  0.00  0.00    +0.000 N 
ATOM     11  H   UNL     1       2.047   7.323  22.018  0.00  0.00    +0.000 HD
ATOM     12  H   UNL     1       3.217   5.820  21.100  0.00  0.00    +0.000 HD
BRANCH  10  13
ATOM     13  C   UNL     1       3.724   5.445  19.115  0.00  0.00    +0.000 A 
ATOM     14  C   UNL     1       3.115   4.663  18.134  0.00  0.00    +0.000 A 
ATOM     15  C   UNL     1       3.854   4.122  17.083  0.00  0.00    +0.000 A 
ATOM     16  C   UNL     1       5.231   4.334  17.002  0.00  0.00    +0.000 A 
ATOM     17 CL   UNL     1       6.026   3.651  15.633  0.00  0.00    +0.000 Cl
ATOM     18  C   UNL     1       5.883   5.073  17.994  0.00  0.00    +0.000 A 
ATOM     19  C   UNL     1       5.112   5.615  19.056  0.00  0.00    +0.000 A 
BRANCH  18  20
ATOM     20  C   UNL     1       7.365   5.349  18.002  0.00  0.00    +0.000 C 
ATOM     21  F   UNL     1       8.187   4.287  17.806  0.00  0.00    +0.000 F 
ATOM     22  F   UNL     1       7.711   6.260  17.047  0.00  0.00    +0.000 F 
ATOM     23  F   UNL     1       7.762   5.901  19.185  0.00  0.00    +0.000 F 
ENDBRANCH  18  20
ENDBRANCH  10  13
ENDBRANCH   1   9
BRANCH   4  24
ATOM     24  N   UNL     1      -1.591  12.256  21.646  0.00  0.00    +0.000 N 
ATOM     25  H   UNL     1      -2.537  12.137  21.996  0.00  0.00    +0.000 HD
BRANCH  24  26
ATOM     26  C   UNL     1      -0.977  13.499  22.088  0.00  0.00    +0.000 C 
BRANCH  26  27
ATOM     27  C   UNL     1       0.086  13.951  21.113  0.00  0.00    +0.000 A 
ATOM     28  C   UNL     1       1.438  13.863  21.467  0.00  0.00    +0.000 A 
ATOM     29  C   UNL     1       2.434  14.271  20.575  0.00  0.00    +0.000 A 
ATOM     30  C   UNL     1       2.100  14.765  19.306  0.00  0.00    +0.000 A 
ATOM     31  C   UNL     1       0.753  14.827  18.936  0.00  0.00    +0.000 A 
ATOM     32  C   UNL     1      -0.239  14.415  19.829  0.00  0.00    +0.000 A 
BRANCH  30  33
ATOM     33  C   UNL     1       3.212  15.217  18.419  0.00  0.00    +0.000 C 
ATOM     34  O   UNL     1       3.257  16.370  17.995  0.00  0.00    +0.000 OA
ATOM     35  N   UNL     1       4.183  14.303  18.090  0.00  0.00    +0.000 N 
ATOM     36  H   UNL     1       4.274  13.357  18.434  0.00  0.00    +0.000 HD
BRANCH  35  37
ATOM     37  O   UNL     1       5.225  14.775  17.260  0.00  0.00    +0.000 OA
ATOM     38  H   UNL     1       6.013  14.654  17.834  0.00  0.00    +0.000 HD
ENDBRANCH  35  37
ENDBRANCH  30  33
ENDBRANCH  26  27
ENDBRANCH  24  26
ENDBRANCH   4  24
TORSDOF 8
ENDMDL
MODEL 9
REMARK VINA RESULT:      -8.0      3.478      4.207
REMARK  Name = 
REMARK  8 active torsions:
REMARK  status: ('A' for Active; 'I' for Inactive)
REMARK    1  A    between atoms: N_3  and  C_4
REMARK    2  A    between atoms: C_7  and  N_8
REMARK    3  A    between atoms: N_8  and  C_9
REMARK    4  A    between atoms: C_9  and  C_10
REMARK    5  A    between atoms: C_13  and  C_14
REMARK    6  A    between atoms: N_16  and  O_17
REMARK    7  A    between atoms: N_22  and  C_23
REMARK    8  A    between atoms: C_28  and  C_29
REMARK                            x       y       z     vdW  Elec       q    Type
REMARK                         _______ _______ _______ _____ _____    ______ ____
ROOT
ATOM      1  C   UNL     1       0.946   8.950  21.566  0.00  0.00    +0.000 A 
ATOM      2  C   UNL     1       1.415  10.160  21.053  0.00  0.00    +0.000 A 
ATOM      3  C   UNL     1       0.771  11.364  21.348  0.00  0.00    +0.000 A 
ATOM      4  C   UNL     1      -0.390  11.395  22.120  0.00  0.00    +0.000 A 
ATOM      5  C   UNL     1      -0.858  10.179  22.631  0.00  0.00    +0.000 A 
ATOM      6  C   UNL     1      -0.212   8.965  22.343  0.00  0.00    +0.000 A 
ENDROOT
BRANCH   1   9
ATOM      7  O   UNL     1       2.228   8.047  19.164  0.00  0.00    +0.000 OA
ATOM      8  C   UNL     1       2.188   7.332  20.159  0.00  0.00    +0.000 C 
ATOM      9  N   UNL     1       1.604   7.712  21.355  0.00  0.00    +0.000 N 
ATOM     10  N   UNL     1       2.763   6.069  20.222  0.00  0.00    +0.000 N 
ATOM     11  H   UNL     1       1.836   7.180  22.179  0.00  0.00    +0.000 HD
ATOM     12  H   UNL     1       2.818   5.630  21.129  0.00  0.00    +0.000 HD
BRANCH  10  13
ATOM     13  C   UNL     1       3.473   5.458  19.160  0.00  0.00    +0.000 A 
ATOM     14  C   UNL     1       2.850   4.725  18.150  0.00  0.00    +0.000 A 
ATOM     15  C   UNL     1       3.578   4.215  17.076  0.00  0.00    +0.000 A 
ATOM     16  C   UNL     1       4.957   4.409  16.999  0.00  0.00    +0.000 A 
ATOM     17 CL   UNL     1       5.739   3.769  15.602  0.00  0.00    +0.000 Cl
ATOM     18  C   UNL     1       5.624   5.099  18.018  0.00  0.00    +0.000 A 
ATOM     19  C   UNL     1       4.862   5.609  19.103  0.00  0.00    +0.000 A 
BRANCH  18  20
ATOM     20  C   UNL     1       7.109   5.351  18.033  0.00  0.00    +0.000 C 
ATOM     21  F   UNL     1       7.916   4.267  17.906  0.00  0.00    +0.000 F 
ATOM     22  F   UNL     1       7.483   6.204  17.037  0.00  0.00    +0.000 F 
ATOM     23  F   UNL     1       7.499   5.959  19.191  0.00  0.00    +0.000 F 
ENDBRANCH  18  20
ENDBRANCH  10  13
ENDBRANCH   1   9
BRANCH   4  24
ATOM     24  N   UNL     1      -0.944  12.629  22.434  0.00  0.00    +0.000 N 
ATOM     25  H   UNL     1      -0.540  13.072  23.253  0.00  0.00    +0.000 HD
BRANCH  24  26
ATOM     26  C   UNL     1      -1.309  13.583  21.397  0.00  0.00    +0.000 C 
BRANCH  26  27
ATOM     27  C   UNL     1      -1.603  12.875  20.094  0.00  0.00    +0.000 A 
ATOM     28  C   UNL     1      -2.785  12.138  19.954  0.00  0.00    +0.000 A 
ATOM     29  C   UNL     1      -3.076  11.482  18.755  0.00  0.00    +0.000 A 
ATOM     30  C   UNL     1      -2.195  11.558  17.665  0.00  0.00    +0.000 A 
ATOM     31  C   UNL     1      -1.028  12.317  17.790  0.00  0.00    +0.000 A 
ATOM     32  C   UNL     1      -0.743  12.974  18.990  0.00  0.00    +0.000 A 
BRANCH  30  33
ATOM     33  C   UNL     1      -2.550  10.803  16.428  0.00  0.00    +0.000 C 
ATOM     34  O   UNL     1      -2.189   9.639  16.270  0.00  0.00    +0.000 OA
ATOM     35  N   UNL     1      -3.293  11.451  15.471  0.00  0.00    +0.000 N 
ATOM     36  H   UNL     1      -3.692  12.378  15.531  0.00  0.00    +0.000 HD
BRANCH  35  37
ATOM     37  O   UNL     1      -3.618  10.697  14.321  0.00  0.00    +0.000 OA
ATOM     38  H   UNL     1      -2.855  10.081  14.261  0.00  0.00    +0.000 HD
ENDBRANCH  35  37
ENDBRANCH  30  33
ENDBRANCH  26  27
ENDBRANCH  24  26
ENDBRANCH   4  24
TORSDOF 8
ENDMDL
