MODEL 1
REMARK VINA RESULT:      -6.7      0.000      0.000
REMARK  Name = 
REMARK  8 active torsions:
REMARK  status: ('A' for Active; 'I' for Inactive)
REMARK    1  A    between atoms: C_1  and  C_2
REMARK    2  A    between atoms: C_2  and  C_3
REMARK    3  A    between atoms: C_3  and  N_4
REMARK    4  A    between atoms: C_11  and  C_12
REMARK    5  A    between atoms: C_12  and  C_13
REMARK    6  A    between atoms: C_13  and  N_14
REMARK    7  A    between atoms: N_14  and  C_15
REMARK    8  A    between atoms: C_16  and  C_18
REMARK                            x       y       z     vdW  Elec       q    Type
REMARK                         _______ _______ _______ _____ _____    ______ ____
ROOT
ATOM      1  N   UNL     1       4.622   3.741  18.329  0.00  0.00    +0.000 NA
ATOM      2  C   UNL     1       3.786   4.287  17.235  0.00  0.00    +0.000 C 
ATOM      3  C   UNL     1       2.494   5.012  17.670  0.00  0.00    +0.000 C 
ATOM      4  N   UNL     1       2.716   5.954  18.769  0.00  0.00    +0.000 N 
ATOM      5  C   UNL     1       2.268   7.231  18.661  0.00  0.00    +0.000 A 
ATOM      6  N   UNL     1       2.140   7.867  17.517  0.00  0.00    +0.000 NA
ATOM      7  C   UNL     1       1.747   9.170  17.725  0.00  0.00    +0.000 A 
ATOM      8  C   UNL     1       1.484   9.523  19.032  0.00  0.00    +0.000 A 
ATOM      9  S   UNL     1       1.782   8.170  20.038  0.00  0.00    +0.000 S 
ATOM     10  C   UNL     1       3.644   5.571  19.833  0.00  0.00    +0.000 C 
ATOM     11  C   UNL     1       4.892   4.850  19.272  0.00  0.00    +0.000 C 
ENDROOT
BRANCH   1  12
ATOM     12  C   UNL     1       4.019   2.596  19.027  0.00  0.00    +0.000 C 
BRANCH  12  14
ATOM     13  C   UNL     1       1.579   1.818  19.062  0.00  0.00    +0.000 C 
ATOM     14  C   UNL     1       2.876   1.900  18.272  0.00  0.00    +0.000 C 
ENDBRANCH  12  14
ENDBRANCH   1  12
BRANCH   8  15
ATOM     15  C   UNL     1       1.053  10.828  19.623  0.00  0.00    +0.000 C 
BRANCH  15  16
ATOM     16  C   UNL     1       0.592  10.703  21.083  0.00  0.00    +0.000 C 
BRANCH  16  17
ATOM     17  N   UNL     1      -0.448  11.680  21.416  0.00  0.00    +0.000 N 
ATOM     18  C   UNL     1      -0.716  12.708  20.415  0.00  0.00    +0.000 C 
ATOM     19  C   UNL     1      -0.972  11.646  22.717  0.00  0.00    +0.000 C 
ATOM     20  O   UNL     1      -0.570  10.861  23.572  0.00  0.00    +0.000 OA
BRANCH  19  21
ATOM     21  C   UNL     1      -2.023  12.623  23.129  0.00  0.00    +0.000 A 
ATOM     22  C   UNL     1      -3.392  12.357  23.013  0.00  0.00    +0.000 A 
ATOM     23  C   UNL     1      -4.330  13.356  23.279  0.00  0.00    +0.000 A 
ATOM     24  C   UNL     1      -3.905  14.598  23.746  0.00  0.00    +0.000 A 
ATOM     25 CL   UNL     1      -5.059  15.841  24.031  0.00  0.00    +0.000 Cl
ATOM     26  C   UNL     1      -2.552  14.837  23.977  0.00  0.00    +0.000 A 
ATOM     27  C   UNL     1      -1.612  13.852  23.666  0.00  0.00    +0.000 A 
ENDBRANCH  19  21
ENDBRANCH  16  17
ENDBRANCH  15  16
ENDBRANCH   8  15
TORSDOF 6
ENDMDL
MODEL 2
REMARK VINA RESULT:      -6.4      5.028     11.082
REMARK  Name = 
REMARK  8 active torsions:
REMARK  status: ('A' for Active; 'I' for Inactive)
REMARK    1  A    between atoms: C_1  and  C_2
REMARK    2  A    between atoms: C_2  and  C_3
REMARK    3  A    between atoms: C_3  and  N_4
REMARK    4  A    between atoms: C_11  and  C_12
REMARK    5  A    between atoms: C_12  and  C_13
REMARK    6  A    between atoms: C_13  and  N_14
REMARK    7  A    between atoms: N_14  and  C_15
REMARK    8  A    between atoms: C_16  and  C_18
REMARK                            x       y       z     vdW  Elec       q    Type
REMARK                         _______ _______ _______ _____ _____    ______ ____
ROOT
ATOM      1  N   UNL     1      -1.243  12.771  19.352  0.00  0.00    +0.000 NA
ATOM      2  C   UNL     1      -0.056  12.672  18.472  0.00  0.00    +0.000 C 
ATOM      3  C   UNL     1       1.136  11.868  19.036  0.00  0.00    +0.000 C 
ATOM      4  N   UNL     1       0.730  10.590  19.625  0.00  0.00    +0.000 N 
ATOM      5  C   UNL     1       1.359   9.446  19.251  0.00  0.00    +0.000 A 
ATOM      6  N   UNL     1       1.903   9.265  18.067  0.00  0.00    +0.000 NA
ATOM      7  C   UNL     1       2.390   7.983  17.946  0.00  0.00    +0.000 A 
ATOM      8  C   UNL     1       2.302   7.192  19.072  0.00  0.00    +0.000 A 
ATOM      9  S   UNL     1       1.539   8.088  20.316  0.00  0.00    +0.000 S 
ATOM     10  C   UNL     1      -0.513  10.546  20.394  0.00  0.00    +0.000 C 
ATOM     11  C   UNL     1      -1.627  11.393  19.732  0.00  0.00    +0.000 C 
ENDROOT
BRANCH   1  12
ATOM     12  C   UNL     1      -1.034  13.604  20.546  0.00  0.00    +0.000 C 
BRANCH  12  14
ATOM     13  C   UNL     1      -1.474  13.226  23.040  0.00  0.00    +0.000 C 
ATOM     14  C   UNL     1      -2.077  13.425  21.658  0.00  0.00    +0.000 C 
ENDBRANCH  12  14
ENDBRANCH   1  12
BRANCH   8  15
ATOM     15  C   UNL     1       2.712   5.771  19.302  0.00  0.00    +0.000 C 
BRANCH  15  16
ATOM     16  C   UNL     1       4.227   5.555  19.168  0.00  0.00    +0.000 C 
BRANCH  16  17
ATOM     17  N   UNL     1       4.585   4.954  17.882  0.00  0.00    +0.000 N 
ATOM     18  C   UNL     1       4.352   3.519  17.750  0.00  0.00    +0.000 C 
ATOM     19  C   UNL     1       5.265   5.763  16.958  0.00  0.00    +0.000 C 
ATOM     20  O   UNL     1       5.589   6.922  17.206  0.00  0.00    +0.000 OA
BRANCH  19  21
ATOM     21  C   UNL     1       5.674   5.209  15.634  0.00  0.00    +0.000 A 
ATOM     22  C   UNL     1       4.769   4.603  14.754  0.00  0.00    +0.000 A 
ATOM     23  C   UNL     1       5.227   3.977  13.593  0.00  0.00    +0.000 A 
ATOM     24  C   UNL     1       6.580   4.029  13.265  0.00  0.00    +0.000 A 
ATOM     25 CL   UNL     1       7.146   3.219  11.858  0.00  0.00    +0.000 Cl
ATOM     26  C   UNL     1       7.473   4.729  14.073  0.00  0.00    +0.000 A 
ATOM     27  C   UNL     1       7.021   5.316  15.257  0.00  0.00    +0.000 A 
ENDBRANCH  19  21
ENDBRANCH  16  17
ENDBRANCH  15  16
ENDBRANCH   8  15
TORSDOF 6
ENDMDL
MODEL 3
REMARK VINA RESULT:      -6.1      5.006     10.682
REMARK  Name = 
REMARK  8 active torsions:
REMARK  status: ('A' for Active; 'I' for Inactive)
REMARK    1  A    between atoms: C_1  and  C_2
REMARK    2  A    between atoms: C_2  and  C_3
REMARK    3  A    between atoms: C_3  and  N_4
REMARK    4  A    between atoms: C_11  and  C_12
REMARK    5  A    between atoms: C_12  and  C_13
REMARK    6  A    between atoms: C_13  and  N_14
REMARK    7  A    between atoms: N_14  and  C_15
REMARK    8  A    between atoms: C_16  and  C_18
REMARK                            x       y       z     vdW  Elec       q    Type
REMARK                         _______ _______ _______ _____ _____    ______ ____
ROOT
ATOM      1  N   UNL     1       2.028  14.406  19.641  0.00  0.00    +0.000 NA
ATOM      2  C   UNL     1       1.551  13.922  20.957  0.00  0.00    +0.000 C 
ATOM      3  C   UNL     1       0.601  12.706  20.925  0.00  0.00    +0.000 C 
ATOM      4  N   UNL     1       1.076  11.639  20.042  0.00  0.00    +0.000 N 
ATOM      5  C   UNL     1       1.156  10.365  20.507  0.00  0.00    +0.000 A 
ATOM      6  N   UNL     1       1.370  10.060  21.768  0.00  0.00    +0.000 NA
ATOM      7  C   UNL     1       1.485   8.697  21.927  0.00  0.00    +0.000 A 
ATOM      8  C   UNL     1       1.273   7.935  20.797  0.00  0.00    +0.000 A 
ATOM      9  S   UNL     1       0.955   8.981  19.479  0.00  0.00    +0.000 S 
ATOM     10  C   UNL     1       1.702  12.016  18.775  0.00  0.00    +0.000 C 
ATOM     11  C   UNL     1       2.623  13.248  18.936  0.00  0.00    +0.000 C 
ENDROOT
BRANCH   1  12
ATOM     12  C   UNL     1       0.982  15.036  18.822  0.00  0.00    +0.000 C 
BRANCH  12  14
ATOM     13  C   UNL     1       0.024  17.271  19.623  0.00  0.00    +0.000 C 
ATOM     14  C   UNL     1      -0.120  15.757  19.612  0.00  0.00    +0.000 C 
ENDBRANCH  12  14
ENDBRANCH   1  12
BRANCH   8  15
ATOM     15  C   UNL     1       1.325   6.453  20.595  0.00  0.00    +0.000 C 
BRANCH  15  16
ATOM     16  C   UNL     1       2.758   5.916  20.463  0.00  0.00    +0.000 C 
BRANCH  16  17
ATOM     17  N   UNL     1       3.090   5.568  19.080  0.00  0.00    +0.000 N 
ATOM     18  C   UNL     1       1.974   5.168  18.228  0.00  0.00    +0.000 C 
ATOM     19  C   UNL     1       4.449   5.490  18.742  0.00  0.00    +0.000 C 
ATOM     20  O   UNL     1       5.346   5.667  19.562  0.00  0.00    +0.000 OA
BRANCH  19  21
ATOM     21  C   UNL     1       4.857   5.125  17.353  0.00  0.00    +0.000 A 
ATOM     22  C   UNL     1       5.094   3.803  16.956  0.00  0.00    +0.000 A 
ATOM     23  C   UNL     1       5.608   3.530  15.688  0.00  0.00    +0.000 A 
ATOM     24  C   UNL     1       5.807   4.569  14.781  0.00  0.00    +0.000 A 
ATOM     25 CL   UNL     1       6.482   4.235  13.236  0.00  0.00    +0.000 Cl
ATOM     26  C   UNL     1       5.464   5.876  15.124  0.00  0.00    +0.000 A 
ATOM     27  C   UNL     1       4.994   6.153  16.409  0.00  0.00    +0.000 A 
ENDBRANCH  19  21
ENDBRANCH  16  17
ENDBRANCH  15  16
ENDBRANCH   8  15
TORSDOF 6
ENDMDL
MODEL 4
REMARK VINA RESULT:      -6.1      7.106     10.016
REMARK  Name = 
REMARK  8 active torsions:
REMARK  status: ('A' for Active; 'I' for Inactive)
REMARK    1  A    between atoms: C_1  and  C_2
REMARK    2  A    between atoms: C_2  and  C_3
REMARK    3  A    between atoms: C_3  and  N_4
REMARK    4  A    between atoms: C_11  and  C_12
REMARK    5  A    between atoms: C_12  and  C_13
REMARK    6  A    between atoms: C_13  and  N_14
REMARK    7  A    between atoms: N_14  and  C_15
REMARK    8  A    between atoms: C_16  and  C_18
REMARK                            x       y       z     vdW  Elec       q    Type
REMARK                         _______ _______ _______ _____ _____    ______ ____
ROOT
ATOM      1  N   UNL     1      -1.759  10.685  18.696  0.00  0.00    +0.000 NA
ATOM      2  C   UNL     1      -0.626  10.250  19.545  0.00  0.00    +0.000 C 
ATOM      3  C   UNL     1       0.757  10.823  19.171  0.00  0.00    +0.000 C 
ATOM      4  N   UNL     1       0.725  12.267  18.926  0.00  0.00    +0.000 N 
ATOM      5  C   UNL     1       1.614  13.077  19.556  0.00  0.00    +0.000 A 
ATOM      6  N   UNL     1       2.134  12.813  20.735  0.00  0.00    +0.000 NA
ATOM      7  C   UNL     1       2.934  13.851  21.158  0.00  0.00    +0.000 A 
ATOM      8  C   UNL     1       3.104  14.888  20.265  0.00  0.00    +0.000 A 
ATOM      9  S   UNL     1       2.189  14.557  18.856  0.00  0.00    +0.000 S 
ATOM     10  C   UNL     1      -0.429  12.824  18.220  0.00  0.00    +0.000 C 
ATOM     11  C   UNL     1      -1.752  12.166  18.678  0.00  0.00    +0.000 C 
ENDROOT
BRANCH   1  12
ATOM     12  C   UNL     1      -1.722  10.145  17.329  0.00  0.00    +0.000 C 
BRANCH  12  14
ATOM     13  C   UNL     1      -2.861   9.993  15.041  0.00  0.00    +0.000 C 
ATOM     14  C   UNL     1      -2.764  10.733  16.366  0.00  0.00    +0.000 C 
ENDBRANCH  12  14
ENDBRANCH   1  12
BRANCH   8  15
ATOM     15  C   UNL     1       3.881  16.162  20.385  0.00  0.00    +0.000 C 
BRANCH  15  16
ATOM     16  C   UNL     1       5.272  15.960  21.004  0.00  0.00    +0.000 C 
BRANCH  16  17
ATOM     17  N   UNL     1       6.294  15.704  19.988  0.00  0.00    +0.000 N 
ATOM     18  C   UNL     1       6.075  16.316  18.680  0.00  0.00    +0.000 C 
ATOM     19  C   UNL     1       7.296  14.771  20.299  0.00  0.00    +0.000 C 
ATOM     20  O   UNL     1       7.318  14.155  21.362  0.00  0.00    +0.000 OA
BRANCH  19  21
ATOM     21  C   UNL     1       8.359  14.451  19.302  0.00  0.00    +0.000 A 
ATOM     22  C   UNL     1       8.241  13.406  18.378  0.00  0.00    +0.000 A 
ATOM     23  C   UNL     1       9.320  13.060  17.563  0.00  0.00    +0.000 A 
ATOM     24  C   UNL     1      10.492  13.812  17.609  0.00  0.00    +0.000 A 
ATOM     25 CL   UNL     1      11.835  13.357  16.637  0.00  0.00    +0.000 Cl
ATOM     26  C   UNL     1      10.580  14.927  18.440  0.00  0.00    +0.000 A 
ATOM     27  C   UNL     1       9.516  15.244  19.288  0.00  0.00    +0.000 A 
ENDBRANCH  19  21
ENDBRANCH  16  17
ENDBRANCH  15  16
ENDBRANCH   8  15
TORSDOF 6
ENDMDL
MODEL 5
REMARK VINA RESULT:      -6.1      4.868     10.805
REMARK  Name = 
REMARK  8 active torsions:
REMARK  status: ('A' for Active; 'I' for Inactive)
REMARK    1  A    between atoms: C_1  and  C_2
REMARK    2  A    between atoms: C_2  and  C_3
REMARK    3  A    between atoms: C_3  and  N_4
REMARK    4  A    between atoms: C_11  and  C_12
REMARK    5  A    between atoms: C_12  and  C_13
REMARK    6  A    between atoms: C_13  and  N_14
REMARK    7  A    between atoms: N_14  and  C_15
REMARK    8  A    between atoms: C_16  and  C_18
REMARK                            x       y       z     vdW  Elec       q    Type
REMARK                         _______ _______ _______ _____ _____    ______ ____
ROOT
ATOM      1  N   UNL     1      -0.833  13.156  19.139  0.00  0.00    +0.000 NA
ATOM      2  C   UNL     1       0.488  12.813  18.566  0.00  0.00    +0.000 C 
ATOM      3  C   UNL     1       1.385  11.903  19.434  0.00  0.00    +0.000 C 
ATOM      4  N   UNL     1       0.663  10.752  19.981  0.00  0.00    +0.000 N 
ATOM      5  C   UNL     1       1.171   9.503  19.826  0.00  0.00    +0.000 A 
ATOM      6  N   UNL     1       1.928   9.142  18.813  0.00  0.00    +0.000 NA
ATOM      7  C   UNL     1       2.222   7.799  18.879  0.00  0.00    +0.000 A 
ATOM      8  C   UNL     1       1.764   7.131  19.995  0.00  0.00    +0.000 A 
ATOM      9  S   UNL     1       0.896   8.233  20.977  0.00  0.00    +0.000 S 
ATOM     10  C   UNL     1      -0.711  10.952  20.442  0.00  0.00    +0.000 C 
ATOM     11  C   UNL     1      -1.503  11.884  19.495  0.00  0.00    +0.000 C 
ENDROOT
BRANCH   1  12
ATOM     12  C   UNL     1      -0.764  14.054  20.302  0.00  0.00    +0.000 C 
BRANCH  12  14
ATOM     13  C   UNL     1      -0.448  16.503  20.979  0.00  0.00    +0.000 C 
ATOM     14  C   UNL     1      -0.006  15.368  20.068  0.00  0.00    +0.000 C 
ENDBRANCH  12  14
ENDBRANCH   1  12
BRANCH   8  15
ATOM     15  C   UNL     1       1.884   5.693  20.391  0.00  0.00    +0.000 C 
BRANCH  15  16
ATOM     16  C   UNL     1       3.308   5.141  20.220  0.00  0.00    +0.000 C 
BRANCH  16  17
ATOM     17  N   UNL     1       3.650   4.928  18.812  0.00  0.00    +0.000 N 
ATOM     18  C   UNL     1       2.623   4.301  17.985  0.00  0.00    +0.000 C 
ATOM     19  C   UNL     1       4.972   5.188  18.422  0.00  0.00    +0.000 C 
ATOM     20  O   UNL     1       5.837   5.548  19.216  0.00  0.00    +0.000 OA
BRANCH  19  21
ATOM     21  C   UNL     1       5.392   4.976  17.005  0.00  0.00    +0.000 A 
ATOM     22  C   UNL     1       5.174   5.927  16.000  0.00  0.00    +0.000 A 
ATOM     23  C   UNL     1       5.458   5.622  14.668  0.00  0.00    +0.000 A 
ATOM     24  C   UNL     1       6.041   4.398  14.346  0.00  0.00    +0.000 A 
ATOM     25 CL   UNL     1       6.349   4.008  12.700  0.00  0.00    +0.000 Cl
ATOM     26  C   UNL     1       6.371   3.491  15.351  0.00  0.00    +0.000 A 
ATOM     27  C   UNL     1       6.044   3.778  16.678  0.00  0.00    +0.000 A 
ENDBRANCH  19  21
ENDBRANCH  16  17
ENDBRANCH  15  16
ENDBRANCH   8  15
TORSDOF 6
ENDMDL
MODEL 6
REMARK VINA RESULT:      -6.1      4.823     11.010
REMARK  Name = 
REMARK  8 active torsions:
REMARK  status: ('A' for Active; 'I' for Inactive)
REMARK    1  A    between atoms: C_1  and  C_2
REMARK    2  A    between atoms: C_2  and  C_3
REMARK    3  A    between atoms: C_3  and  N_4
REMARK    4  A    between atoms: C_11  and  C_12
REMARK    5  A    between atoms: C_12  and  C_13
REMARK    6  A    between atoms: C_13  and  N_14
REMARK    7  A    between atoms: N_14  and  C_15
REMARK    8  A    between atoms: C_16  and  C_18
REMARK                            x       y       z     vdW  Elec       q    Type
REMARK                         _______ _______ _______ _____ _____    ______ ____
ROOT
ATOM      1  N   UNL     1      -0.389  17.085  19.908  0.00  0.00    +0.000 NA
ATOM      2  C   UNL     1      -1.441  16.330  20.628  0.00  0.00    +0.000 C 
ATOM      3  C   UNL     1      -1.692  14.888  20.137  0.00  0.00    +0.000 C 
ATOM      4  N   UNL     1      -0.453  14.132  19.941  0.00  0.00    +0.000 N 
ATOM      5  C   UNL     1      -0.316  12.905  20.506  0.00  0.00    +0.000 A 
ATOM      6  N   UNL     1      -0.916  12.542  21.619  0.00  0.00    +0.000 NA
ATOM      7  C   UNL     1      -0.524  11.277  21.994  0.00  0.00    +0.000 A 
ATOM      8  C   UNL     1       0.318  10.620  21.121  0.00  0.00    +0.000 A 
ATOM      9  S   UNL     1       0.658  11.654  19.799  0.00  0.00    +0.000 S 
ATOM     10  C   UNL     1       0.700  14.829  19.371  0.00  0.00    +0.000 C 
ATOM     11  C   UNL     1       0.841  16.262  19.936  0.00  0.00    +0.000 C 
ENDROOT
BRANCH   1  12
ATOM     12  C   UNL     1      -0.749  17.442  18.528  0.00  0.00    +0.000 C 
BRANCH  12  14
ATOM     13  C   UNL     1       0.134  18.539  16.389  0.00  0.00    +0.000 C 
ATOM     14  C   UNL     1       0.081  18.576  17.909  0.00  0.00    +0.000 C 
ENDBRANCH  12  14
ENDBRANCH   1  12
BRANCH   8  15
ATOM     15  C   UNL     1       0.943   9.263  21.203  0.00  0.00    +0.000 C 
BRANCH  15  16
ATOM     16  C   UNL     1       1.589   8.818  19.882  0.00  0.00    +0.000 C 
BRANCH  16  17
ATOM     17  N   UNL     1       1.846   7.377  19.853  0.00  0.00    +0.000 N 
ATOM     18  C   UNL     1       1.462   6.627  21.046  0.00  0.00    +0.000 C 
ATOM     19  C   UNL     1       2.579   6.873  18.768  0.00  0.00    +0.000 C 
ATOM     20  O   UNL     1       3.029   7.594  17.882  0.00  0.00    +0.000 OA
BRANCH  19  21
ATOM     21  C   UNL     1       2.891   5.415  18.686  0.00  0.00    +0.000 A 
ATOM     22  C   UNL     1       4.009   4.843  19.304  0.00  0.00    +0.000 A 
ATOM     23  C   UNL     1       4.331   3.504  19.079  0.00  0.00    +0.000 A 
ATOM     24  C   UNL     1       3.489   2.709  18.305  0.00  0.00    +0.000 A 
ATOM     25 CL   UNL     1       3.911   1.072  17.993  0.00  0.00    +0.000 Cl
ATOM     26  C   UNL     1       2.310   3.237  17.781  0.00  0.00    +0.000 A 
ATOM     27  C   UNL     1       2.014   4.589  17.968  0.00  0.00    +0.000 A 
ENDBRANCH  19  21
ENDBRANCH  16  17
ENDBRANCH  15  16
ENDBRANCH   8  15
TORSDOF 6
ENDMDL
MODEL 7
REMARK VINA RESULT:      -6.0      1.522      2.535
REMARK  Name = 
REMARK  8 active torsions:
REMARK  status: ('A' for Active; 'I' for Inactive)
REMARK    1  A    between atoms: C_1  and  C_2
REMARK    2  A    between atoms: C_2  and  C_3
REMARK    3  A    between atoms: C_3  and  N_4
REMARK    4  A    between atoms: C_11  and  C_12
REMARK    5  A    between atoms: C_12  and  C_13
REMARK    6  A    between atoms: C_13  and  N_14
REMARK    7  A    between atoms: N_14  and  C_15
REMARK    8  A    between atoms: C_16  and  C_18
REMARK                            x       y       z     vdW  Elec       q    Type
REMARK                         _______ _______ _______ _____ _____    ______ ____
ROOT
ATOM      1  N   UNL     1       4.586   3.665  17.794  0.00  0.00    +0.000 NA
ATOM      2  C   UNL     1       4.554   4.067  19.219  0.00  0.00    +0.000 C 
ATOM      3  C   UNL     1       4.567   5.587  19.491  0.00  0.00    +0.000 C 
ATOM      4  N   UNL     1       3.621   6.322  18.650  0.00  0.00    +0.000 N 
ATOM      5  C   UNL     1       2.743   7.187  19.220  0.00  0.00    +0.000 A 
ATOM      6  N   UNL     1       2.279   7.056  20.443  0.00  0.00    +0.000 NA
ATOM      7  C   UNL     1       1.346   8.031  20.718  0.00  0.00    +0.000 A 
ATOM      8  C   UNL     1       1.149   8.976  19.732  0.00  0.00    +0.000 A 
ATOM      9  S   UNL     1       2.150   8.595  18.396  0.00  0.00    +0.000 S 
ATOM     10  C   UNL     1       3.467   5.907  17.256  0.00  0.00    +0.000 C 
ATOM     11  C   UNL     1       3.474   4.366  17.114  0.00  0.00    +0.000 C 
ENDROOT
BRANCH   1  12
ATOM     12  C   UNL     1       5.866   3.940  17.125  0.00  0.00    +0.000 C 
BRANCH  12  14
ATOM     13  C   UNL     1       6.299   4.872  14.780  0.00  0.00    +0.000 C 
ATOM     14  C   UNL     1       5.884   3.670  15.614  0.00  0.00    +0.000 C 
ENDBRANCH  12  14
ENDBRANCH   1  12
BRANCH   8  15
ATOM     15  C   UNL     1       0.225  10.152  19.678  0.00  0.00    +0.000 C 
BRANCH  15  16
ATOM     16  C   UNL     1      -0.965  10.024  20.641  0.00  0.00    +0.000 C 
BRANCH  16  17
ATOM     17  N   UNL     1      -1.400  11.326  21.153  0.00  0.00    +0.000 N 
ATOM     18  C   UNL     1      -1.814  12.308  20.156  0.00  0.00    +0.000 C 
ATOM     19  C   UNL     1      -1.227  11.571  22.524  0.00  0.00    +0.000 C 
ATOM     20  O   UNL     1      -0.703  10.757  23.280  0.00  0.00    +0.000 OA
BRANCH  19  21
ATOM     21  C   UNL     1      -1.633  12.883  23.109  0.00  0.00    +0.000 A 
ATOM     22  C   UNL     1      -0.785  13.996  23.133  0.00  0.00    +0.000 A 
ATOM     23  C   UNL     1      -1.162  15.154  23.816  0.00  0.00    +0.000 A 
ATOM     24  C   UNL     1      -2.422  15.234  24.403  0.00  0.00    +0.000 A 
ATOM     25 CL   UNL     1      -2.866  16.644  25.281  0.00  0.00    +0.000 Cl
ATOM     26  C   UNL     1      -3.321  14.175  24.285  0.00  0.00    +0.000 A 
ATOM     27  C   UNL     1      -2.925  13.000  23.642  0.00  0.00    +0.000 A 
ENDBRANCH  19  21
ENDBRANCH  16  17
ENDBRANCH  15  16
ENDBRANCH   8  15
TORSDOF 6
ENDMDL
MODEL 8
REMARK VINA RESULT:      -6.0      4.175     10.599
REMARK  Name = 
REMARK  8 active torsions:
REMARK  status: ('A' for Active; 'I' for Inactive)
REMARK    1  A    between atoms: C_1  and  C_2
REMARK    2  A    between atoms: C_2  and  C_3
REMARK    3  A    between atoms: C_3  and  N_4
REMARK    4  A    between atoms: C_11  and  C_12
REMARK    5  A    between atoms: C_12  and  C_13
REMARK    6  A    between atoms: C_13  and  N_14
REMARK    7  A    between atoms: N_14  and  C_15
REMARK    8  A    between atoms: C_16  and  C_18
REMARK                            x       y       z     vdW  Elec       q    Type
REMARK                         _______ _______ _______ _____ _____    ______ ____
ROOT
ATOM      1  N   UNL     1      -2.815  15.001  22.581  0.00  0.00    +0.000 NA
ATOM      2  C   UNL     1      -1.349  15.134  22.414  0.00  0.00    +0.000 C 
ATOM      3  C   UNL     1      -0.552  13.813  22.377  0.00  0.00    +0.000 C 
ATOM      4  N   UNL     1      -1.156  12.810  21.498  0.00  0.00    +0.000 N 
ATOM      5  C   UNL     1      -0.396  12.192  20.558  0.00  0.00    +0.000 A 
ATOM      6  N   UNL     1       0.652  12.744  19.987  0.00  0.00    +0.000 NA
ATOM      7  C   UNL     1       1.171  11.917  19.017  0.00  0.00    +0.000 A 
ATOM      8  C   UNL     1       0.575  10.679  18.894  0.00  0.00    +0.000 A 
ATOM      9  S   UNL     1      -0.712  10.573  20.017  0.00  0.00    +0.000 S 
ATOM     10  C   UNL     1      -2.615  12.696  21.477  0.00  0.00    +0.000 C 
ATOM     11  C   UNL     1      -3.297  14.084  21.524  0.00  0.00    +0.000 C 
ENDROOT
BRANCH   1  12
ATOM     12  C   UNL     1      -3.223  14.525  23.912  0.00  0.00    +0.000 C 
BRANCH  12  14
ATOM     13  C   UNL     1      -4.289  12.348  24.736  0.00  0.00    +0.000 C 
ATOM     14  C   UNL     1      -4.467  13.625  23.931  0.00  0.00    +0.000 C 
ENDBRANCH  12  14
ENDBRANCH   1  12
BRANCH   8  15
ATOM     15  C   UNL     1       0.863   9.547  17.958  0.00  0.00    +0.000 C 
BRANCH  15  16
ATOM     16  C   UNL     1       2.352   9.174  17.907  0.00  0.00    +0.000 C 
BRANCH  16  17
ATOM     17  N   UNL     1       2.597   7.818  18.402  0.00  0.00    +0.000 N 
ATOM     18  C   UNL     1       2.003   7.484  19.693  0.00  0.00    +0.000 C 
ATOM     19  C   UNL     1       3.504   7.022  17.686  0.00  0.00    +0.000 C 
ATOM     20  O   UNL     1       4.108   7.434  16.698  0.00  0.00    +0.000 OA
BRANCH  19  21
ATOM     21  C   UNL     1       3.812   5.636  18.145  0.00  0.00    +0.000 A 
ATOM     22  C   UNL     1       2.972   4.547  17.882  0.00  0.00    +0.000 A 
ATOM     23  C   UNL     1       3.234   3.300  18.453  0.00  0.00    +0.000 A 
ATOM     24  C   UNL     1       4.384   3.117  19.219  0.00  0.00    +0.000 A 
ATOM     25 CL   UNL     1       4.681   1.593  19.958  0.00  0.00    +0.000 Cl
ATOM     26  C   UNL     1       5.288   4.163  19.391  0.00  0.00    +0.000 A 
ATOM     27  C   UNL     1       5.001   5.421  18.858  0.00  0.00    +0.000 A 
ENDBRANCH  19  21
ENDBRANCH  16  17
ENDBRANCH  15  16
ENDBRANCH   8  15
TORSDOF 6
ENDMDL
MODEL 9
REMARK VINA RESULT:      -6.0      4.314     11.063
REMARK  Name = 
REMARK  8 active torsions:
REMARK  status: ('A' for Active; 'I' for Inactive)
REMARK    1  A    between atoms: C_1  and  C_2
REMARK    2  A    between atoms: C_2  and  C_3
REMARK    3  A    between atoms: C_3  and  N_4
REMARK    4  A    between atoms: C_11  and  C_12
REMARK    5  A    between atoms: C_12  and  C_13
REMARK    6  A    between atoms: C_13  and  N_14
REMARK    7  A    between atoms: N_14  and  C_15
REMARK    8  A    between atoms: C_16  and  C_18
REMARK                            x       y       z     vdW  Elec       q    Type
REMARK                         _______ _______ _______ _____ _____    ______ ____
ROOT
ATOM      1  N   UNL     1      -2.760  14.842  23.386  0.00  0.00    +0.000 NA
ATOM      2  C   UNL     1      -2.996  13.575  24.115  0.00  0.00    +0.000 C 
ATOM      3  C   UNL     1      -2.926  12.286  23.267  0.00  0.00    +0.000 C 
ATOM      4  N   UNL     1      -1.758  12.250  22.385  0.00  0.00    +0.000 N 
ATOM      5  C   UNL     1      -0.946  11.162  22.386  0.00  0.00    +0.000 A 
ATOM      6  N   UNL     1      -0.767  10.385  23.432  0.00  0.00    +0.000 NA
ATOM      7  C   UNL     1       0.172   9.415  23.164  0.00  0.00    +0.000 A 
ATOM      8  C   UNL     1       0.662   9.385  21.875  0.00  0.00    +0.000 A 
ATOM      9  S   UNL     1      -0.062  10.653  20.981  0.00  0.00    +0.000 S 
ATOM     10  C   UNL     1      -1.349  13.491  21.727  0.00  0.00    +0.000 C 
ATOM     11  C   UNL     1      -1.468  14.708  22.675  0.00  0.00    +0.000 C 
ENDROOT
BRANCH   1  12
ATOM     12  C   UNL     1      -3.837  15.202  22.451  0.00  0.00    +0.000 C 
BRANCH  12  14
ATOM     13  C   UNL     1      -3.682  17.751  22.266  0.00  0.00    +0.000 C 
ATOM     14  C   UNL     1      -4.508  16.557  22.719  0.00  0.00    +0.000 C 
ENDBRANCH  12  14
ENDBRANCH   1  12
BRANCH   8  15
ATOM     15  C   UNL     1       1.681   8.493  21.238  0.00  0.00    +0.000 C 
BRANCH  15  16
ATOM     16  C   UNL     1       1.120   7.114  20.862  0.00  0.00    +0.000 C 
BRANCH  16  17
ATOM     17  N   UNL     1       2.050   6.351  20.027  0.00  0.00    +0.000 N 
ATOM     18  C   UNL     1       2.662   5.178  20.645  0.00  0.00    +0.000 C 
ATOM     19  C   UNL     1       2.395   6.896  18.781  0.00  0.00    +0.000 C 
ATOM     20  O   UNL     1       1.976   7.985  18.396  0.00  0.00    +0.000 OA
BRANCH  19  21
ATOM     21  C   UNL     1       3.351   6.178  17.887  0.00  0.00    +0.000 A 
ATOM     22  C   UNL     1       3.186   4.836  17.524  0.00  0.00    +0.000 A 
ATOM     23  C   UNL     1       4.180   4.174  16.802  0.00  0.00    +0.000 A 
ATOM     24  C   UNL     1       5.303   4.874  16.365  0.00  0.00    +0.000 A 
ATOM     25 CL   UNL     1       6.546   4.046  15.514  0.00  0.00    +0.000 Cl
ATOM     26  C   UNL     1       5.423   6.239  16.619  0.00  0.00    +0.000 A 
ATOM     27  C   UNL     1       4.450   6.889  17.382  0.00  0.00    +0.000 A 
ENDBRANCH  19  21
ENDBRANCH  16  17
ENDBRANCH  15  16
ENDBRANCH   8  15
TORSDOF 6
ENDMDL
