MODEL 1
REMARK VINA RESULT:      -7.7      0.000      0.000
REMARK  Name = 
REMARK  14 active torsions:
REMARK  status: ('A' for Active; 'I' for Inactive)
REMARK    1  A    between atoms: C_1  and  C_2
REMARK    2  A    between atoms: C_2  and  C_3
REMARK    3  A    between atoms: C_3  and  C_4
REMARK    4  A    between atoms: C_7  and  C_8
REMARK    5  A    between atoms: C_15  and  C_16
REMARK    6  A    between atoms: C_16  and  C_17
REMARK    7  A    between atoms: C_17  and  C_18
REMARK    8  A    between atoms: C_19  and  O_20
REMARK    9  A    between atoms: O_20  and  C_21
REMARK   10  A    between atoms: C_21  and  C_22
REMARK   11  A    between atoms: C_22  and  C_23
REMARK   12  A    between atoms: C_22  and  C_24
REMARK   13  A    between atoms: C_22  and  C_25
REMARK   14  A    between atoms: C_25  and  O_27
REMARK                            x       y       z     vdW  Elec       q    Type
REMARK                         _______ _______ _______ _____ _____    ______ ____
ROOT
ATOM      1  C   UNL     1       4.245   3.949  16.715  0.00  0.00    +0.000 A 
ATOM      2  C   UNL     1       4.712   3.810  15.382  0.00  0.00    +0.000 A 
ATOM      3  C   UNL     1       5.902   4.411  14.960  0.00  0.00    +0.000 A 
ATOM      4  C   UNL     1       6.682   4.441  13.773  0.00  0.00    +0.000 A 
ATOM      5  N   UNL     1       7.757   5.233  13.933  0.00  0.00    +0.000 NA
ATOM      6  O   UNL     1       7.681   5.711  15.233  0.00  0.00    +0.000 OA
ATOM      7  C   UNL     1       6.577   5.207  15.853  0.00  0.00    +0.000 A 
ATOM      8  C   UNL     1       6.175   5.446  17.175  0.00  0.00    +0.000 A 
ATOM      9  C   UNL     1       4.978   4.780  17.613  0.00  0.00    +0.000 A 
ENDROOT
BRANCH   4  10
ATOM     10  C   UNL     1       6.428   3.709  12.501  0.00  0.00    +0.000 C 
ATOM     11  F   UNL     1       7.133   4.226  11.453  0.00  0.00    +0.000 F 
ATOM     12  F   UNL     1       6.781   2.397  12.572  0.00  0.00    +0.000 F 
ATOM     13  F   UNL     1       5.123   3.747  12.123  0.00  0.00    +0.000 F 
ENDBRANCH   4  10
BRANCH   1  14
ATOM     14  C   UNL     1       2.925   3.237  16.988  0.00  0.00    +0.000 C 
BRANCH  14  16
ATOM     15  C   UNL     1       3.881   1.272  18.309  0.00  0.00    +0.000 C 
ATOM     16  C   UNL     1       2.816   2.363  18.254  0.00  0.00    +0.000 C 
ENDBRANCH  14  16
ENDBRANCH   1  14
BRANCH   8  17
ATOM     17  C   UNL     1       6.983   6.372  18.054  0.00  0.00    +0.000 C 
BRANCH  17  18
ATOM     18  C   UNL     1       7.294   7.727  17.408  0.00  0.00    +0.000 C 
ATOM     19  C   UNL     1       8.291   8.565  18.190  0.00  0.00    +0.000 C 
ENDBRANCH  17  18
ENDBRANCH   8  17
BRANCH   9  20
ATOM     20  O   UNL     1       4.694   5.084  18.935  0.00  0.00    +0.000 OA
BRANCH  20  21
ATOM     21  C   UNL     1       4.041   6.299  19.287  0.00  0.00    +0.000 C 
BRANCH  21  22
ATOM     22  C   UNL     1       2.512   6.158  19.516  0.00  0.00    +0.000 C 
ATOM     23  C   UNL     1       1.816   5.862  18.179  0.00  0.00    +0.000 C 
ATOM     24  C   UNL     1       2.213   5.056  20.535  0.00  0.00    +0.000 C 
BRANCH  22  25
ATOM     25  C   UNL     1       2.028   7.500  20.074  0.00  0.00    +0.000 C 
ATOM     26  O   UNL     1       1.808   8.491  19.392  0.00  0.00    +0.000 OA
BRANCH  25  27
ATOM     27  O   UNL     1       1.838   7.525  21.413  0.00  0.00    +0.000 OA
ATOM     28  H   UNL     1       2.273   6.810  21.915  0.00  0.00    +0.000 HD
ENDBRANCH  25  27
ENDBRANCH  22  25
ENDBRANCH  21  22
ENDBRANCH  20  21
ENDBRANCH   9  20
TORSDOF 10
ENDMDL
MODEL 2
REMARK VINA RESULT:      -7.6      0.633      1.178
REMARK  Name = 
REMARK  14 active torsions:
REMARK  status: ('A' for Active; 'I' for Inactive)
REMARK    1  A    between atoms: C_1  and  C_2
REMARK    2  A    between atoms: C_2  and  C_3
REMARK    3  A    between atoms: C_3  and  C_4
REMARK    4  A    between atoms: C_7  and  C_8
REMARK    5  A    between atoms: C_15  and  C_16
REMARK    6  A    between atoms: C_16  and  C_17
REMARK    7  A    between atoms: C_17  and  C_18
REMARK    8  A    between atoms: C_19  and  O_20
REMARK    9  A    between atoms: O_20  and  C_21
REMARK   10  A    between atoms: C_21  and  C_22
REMARK   11  A    between atoms: C_22  and  C_23
REMARK   12  A    between atoms: C_22  and  C_24
REMARK   13  A    between atoms: C_22  and  C_25
REMARK   14  A    between atoms: C_25  and  O_27
REMARK                            x       y       z     vdW  Elec       q    Type
REMARK                         _______ _______ _______ _____ _____    ______ ____
ROOT
ATOM      1  C   UNL     1       4.489   3.957  16.779  0.00  0.00    +0.000 A 
ATOM      2  C   UNL     1       4.887   3.786  15.429  0.00  0.00    +0.000 A 
ATOM      3  C   UNL     1       6.034   4.407  14.923  0.00  0.00    +0.000 A 
ATOM      4  C   UNL     1       6.748   4.419  13.694  0.00  0.00    +0.000 A 
ATOM      5  N   UNL     1       7.804   5.247  13.769  0.00  0.00    +0.000 NA
ATOM      6  O   UNL     1       7.783   5.768  15.055  0.00  0.00    +0.000 OA
ATOM      7  C   UNL     1       6.730   5.254  15.751  0.00  0.00    +0.000 A 
ATOM      8  C   UNL     1       6.392   5.527  17.084  0.00  0.00    +0.000 A 
ATOM      9  C   UNL     1       5.242   4.840  17.608  0.00  0.00    +0.000 A 
ENDROOT
BRANCH   4  10
ATOM     10  C   UNL     1       6.449   3.635  12.463  0.00  0.00    +0.000 C 
ATOM     11  F   UNL     1       6.527   2.289  12.671  0.00  0.00    +0.000 F 
ATOM     12  F   UNL     1       5.195   3.864  11.988  0.00  0.00    +0.000 F 
ATOM     13  F   UNL     1       7.312   3.902  11.447  0.00  0.00    +0.000 F 
ENDBRANCH   4  10
BRANCH   1  14
ATOM     14  C   UNL     1       3.208   3.216  17.149  0.00  0.00    +0.000 C 
BRANCH  14  16
ATOM     15  C   UNL     1       2.170   1.872  19.054  0.00  0.00    +0.000 C 
ATOM     16  C   UNL     1       3.320   1.976  18.059  0.00  0.00    +0.000 C 
ENDBRANCH  14  16
ENDBRANCH   1  14
BRANCH   8  17
ATOM     17  C   UNL     1       7.216   6.506  17.886  0.00  0.00    +0.000 C 
BRANCH  17  18
ATOM     18  C   UNL     1       7.114   7.954  17.393  0.00  0.00    +0.000 C 
ATOM     19  C   UNL     1       8.186   8.871  17.955  0.00  0.00    +0.000 C 
ENDBRANCH  17  18
ENDBRANCH   8  17
BRANCH   9  20
ATOM     20  O   UNL     1       5.019   5.182  18.933  0.00  0.00    +0.000 OA
BRANCH  20  21
ATOM     21  C   UNL     1       3.713   5.136  19.496  0.00  0.00    +0.000 C 
BRANCH  21  22
ATOM     22  C   UNL     1       2.747   6.223  18.952  0.00  0.00    +0.000 C 
ATOM     23  C   UNL     1       3.531   7.229  18.097  0.00  0.00    +0.000 C 
ATOM     24  C   UNL     1       1.617   5.589  18.137  0.00  0.00    +0.000 C 
BRANCH  22  25
ATOM     25  C   UNL     1       2.148   6.927  20.174  0.00  0.00    +0.000 C 
ATOM     26  O   UNL     1       1.945   8.130  20.245  0.00  0.00    +0.000 OA
BRANCH  25  27
ATOM     27  O   UNL     1       1.830   6.109  21.204  0.00  0.00    +0.000 OA
ATOM     28  H   UNL     1       1.673   6.550  22.060  0.00  0.00    +0.000 HD
ENDBRANCH  25  27
ENDBRANCH  22  25
ENDBRANCH  21  22
ENDBRANCH  20  21
ENDBRANCH   9  20
TORSDOF 10
ENDMDL
MODEL 3
REMARK VINA RESULT:      -7.4      3.030      5.681
REMARK  Name = 
REMARK  14 active torsions:
REMARK  status: ('A' for Active; 'I' for Inactive)
REMARK    1  A    between atoms: C_1  and  C_2
REMARK    2  A    between atoms: C_2  and  C_3
REMARK    3  A    between atoms: C_3  and  C_4
REMARK    4  A    between atoms: C_7  and  C_8
REMARK    5  A    between atoms: C_15  and  C_16
REMARK    6  A    between atoms: C_16  and  C_17
REMARK    7  A    between atoms: C_17  and  C_18
REMARK    8  A    between atoms: C_19  and  O_20
REMARK    9  A    between atoms: O_20  and  C_21
REMARK   10  A    between atoms: C_21  and  C_22
REMARK   11  A    between atoms: C_22  and  C_23
REMARK   12  A    between atoms: C_22  and  C_24
REMARK   13  A    between atoms: C_22  and  C_25
REMARK   14  A    between atoms: C_25  and  O_27
REMARK                            x       y       z     vdW  Elec       q    Type
REMARK                         _______ _______ _______ _____ _____    ______ ____
ROOT
ATOM      1  C   UNL     1       2.264   8.229  18.388  0.00  0.00    +0.000 A 
ATOM      2  C   UNL     1       3.228   7.718  17.482  0.00  0.00    +0.000 A 
ATOM      3  C   UNL     1       3.797   6.452  17.660  0.00  0.00    +0.000 A 
ATOM      4  C   UNL     1       4.708   5.619  16.957  0.00  0.00    +0.000 A 
ATOM      5  N   UNL     1       4.921   4.475  17.631  0.00  0.00    +0.000 NA
ATOM      6  O   UNL     1       4.137   4.561  18.773  0.00  0.00    +0.000 OA
ATOM      7  C   UNL     1       3.452   5.740  18.783  0.00  0.00    +0.000 A 
ATOM      8  C   UNL     1       2.547   6.176  19.760  0.00  0.00    +0.000 A 
ATOM      9  C   UNL     1       1.929   7.456  19.538  0.00  0.00    +0.000 A 
ENDROOT
BRANCH   4  10
ATOM     10  C   UNL     1       5.358   5.889  15.644  0.00  0.00    +0.000 C 
ATOM     11  F   UNL     1       6.693   6.143  15.765  0.00  0.00    +0.000 F 
ATOM     12  F   UNL     1       5.258   4.839  14.784  0.00  0.00    +0.000 F 
ATOM     13  F   UNL     1       4.832   6.970  15.009  0.00  0.00    +0.000 F 
ENDBRANCH   4  10
BRANCH   1  14
ATOM     14  C   UNL     1       1.766   9.628  18.041  0.00  0.00    +0.000 C 
BRANCH  14  16
ATOM     15  C   UNL     1       2.257  12.131  18.145  0.00  0.00    +0.000 C 
ATOM     16  C   UNL     1       2.810  10.744  17.834  0.00  0.00    +0.000 C 
ENDBRANCH  14  16
ENDBRANCH   1  14
BRANCH   8  17
ATOM     17  C   UNL     1       2.274   5.317  20.973  0.00  0.00    +0.000 C 
BRANCH  17  18
ATOM     18  C   UNL     1       1.240   4.211  20.729  0.00  0.00    +0.000 C 
ATOM     19  C   UNL     1       1.567   2.901  21.425  0.00  0.00    +0.000 C 
ENDBRANCH  17  18
ENDBRANCH   8  17
BRANCH   9  20
ATOM     20  O   UNL     1       1.048   7.768  20.563  0.00  0.00    +0.000 OA
BRANCH  20  21
ATOM     21  C   UNL     1       1.352   8.785  21.510  0.00  0.00    +0.000 C 
BRANCH  21  22
ATOM     22  C   UNL     1       0.299   9.924  21.583  0.00  0.00    +0.000 C 
ATOM     23  C   UNL     1       0.957  11.260  21.208  0.00  0.00    +0.000 C 
ATOM     24  C   UNL     1      -0.885   9.630  20.659  0.00  0.00    +0.000 C 
BRANCH  22  25
ATOM     25  C   UNL     1      -0.196   9.970  23.031  0.00  0.00    +0.000 C 
ATOM     26  O   UNL     1       0.438   9.553  23.990  0.00  0.00    +0.000 OA
BRANCH  25  27
ATOM     27  O   UNL     1      -1.416  10.531  23.199  0.00  0.00    +0.000 OA
ATOM     28  H   UNL     1      -1.450  11.290  23.813  0.00  0.00    +0.000 HD
ENDBRANCH  25  27
ENDBRANCH  22  25
ENDBRANCH  21  22
ENDBRANCH  20  21
ENDBRANCH   9  20
TORSDOF 10
ENDMDL
MODEL 4
REMARK VINA RESULT:      -7.4      2.930      5.496
REMARK  Name = 
REMARK  14 active torsions:
REMARK  status: ('A' for Active; 'I' for Inactive)
REMARK    1  A    between atoms: C_1  and  C_2
REMARK    2  A    between atoms: C_2  and  C_3
REMARK    3  A    between atoms: C_3  and  C_4
REMARK    4  A    between atoms: C_7  and  C_8
REMARK    5  A    between atoms: C_15  and  C_16
REMARK    6  A    between atoms: C_16  and  C_17
REMARK    7  A    between atoms: C_17  and  C_18
REMARK    8  A    between atoms: C_19  and  O_20
REMARK    9  A    between atoms: O_20  and  C_21
REMARK   10  A    between atoms: C_21  and  C_22
REMARK   11  A    between atoms: C_22  and  C_23
REMARK   12  A    between atoms: C_22  and  C_24
REMARK   13  A    between atoms: C_22  and  C_25
REMARK   14  A    between atoms: C_25  and  O_27
REMARK                            x       y       z     vdW  Elec       q    Type
REMARK                         _______ _______ _______ _____ _____    ______ ____
ROOT
ATOM      1  C   UNL     1       2.402   8.051  18.500  0.00  0.00    +0.000 A 
ATOM      2  C   UNL     1       3.331   7.524  17.566  0.00  0.00    +0.000 A 
ATOM      3  C   UNL     1       3.856   6.235  17.709  0.00  0.00    +0.000 A 
ATOM      4  C   UNL     1       4.723   5.384  16.972  0.00  0.00    +0.000 A 
ATOM      5  N   UNL     1       4.906   4.220  17.620  0.00  0.00    +0.000 NA
ATOM      6  O   UNL     1       4.147   4.312  18.778  0.00  0.00    +0.000 OA
ATOM      7  C   UNL     1       3.507   5.514  18.824  0.00  0.00    +0.000 A 
ATOM      8  C   UNL     1       2.636   5.962  19.827  0.00  0.00    +0.000 A 
ATOM      9  C   UNL     1       2.061   7.268  19.642  0.00  0.00    +0.000 A 
ENDROOT
BRANCH   4  10
ATOM     10  C   UNL     1       5.358   5.656  15.652  0.00  0.00    +0.000 C 
ATOM     11  F   UNL     1       6.716   5.756  15.738  0.00  0.00    +0.000 F 
ATOM     12  F   UNL     1       5.116   4.674  14.742  0.00  0.00    +0.000 F 
ATOM     13  F   UNL     1       4.936   6.823  15.096  0.00  0.00    +0.000 F 
ENDBRANCH   4  10
BRANCH   1  14
ATOM     14  C   UNL     1       1.949   9.474  18.190  0.00  0.00    +0.000 C 
BRANCH  14  16
ATOM     15  C   UNL     1      -0.005  11.113  18.296  0.00  0.00    +0.000 C 
ATOM     16  C   UNL     1       0.455   9.716  17.895  0.00  0.00    +0.000 C 
ENDBRANCH  14  16
ENDBRANCH   1  14
BRANCH   8  17
ATOM     17  C   UNL     1       2.354   5.090  21.028  0.00  0.00    +0.000 C 
BRANCH  17  18
ATOM     18  C   UNL     1       1.301   4.005  20.773  0.00  0.00    +0.000 C 
ATOM     19  C   UNL     1       1.559   2.710  21.524  0.00  0.00    +0.000 C 
ENDBRANCH  17  18
ENDBRANCH   8  17
BRANCH   9  20
ATOM     20  O   UNL     1       1.211   7.591  20.689  0.00  0.00    +0.000 OA
BRANCH  20  21
ATOM     21  C   UNL     1       1.524   8.645  21.592  0.00  0.00    +0.000 C 
BRANCH  21  22
ATOM     22  C   UNL     1       0.299   9.487  22.038  0.00  0.00    +0.000 C 
ATOM     23  C   UNL     1      -0.933   9.083  21.215  0.00  0.00    +0.000 C 
ATOM     24  C   UNL     1       0.030   9.307  23.534  0.00  0.00    +0.000 C 
BRANCH  22  25
ATOM     25  C   UNL     1       0.654  10.953  21.768  0.00  0.00    +0.000 C 
ATOM     26  O   UNL     1       1.649  11.320  21.160  0.00  0.00    +0.000 OA
BRANCH  25  27
ATOM     27  O   UNL     1      -0.238  11.852  22.244  0.00  0.00    +0.000 OA
ATOM     28  H   UNL     1       0.145  12.673  22.610  0.00  0.00    +0.000 HD
ENDBRANCH  25  27
ENDBRANCH  22  25
ENDBRANCH  21  22
ENDBRANCH  20  21
ENDBRANCH   9  20
TORSDOF 10
ENDMDL
MODEL 5
REMARK VINA RESULT:      -7.4      4.791      6.501
REMARK  Name = 
REMARK  14 active torsions:
REMARK  status: ('A' for Active; 'I' for Inactive)
REMARK    1  A    between atoms: C_1  and  C_2
REMARK    2  A    between atoms: C_2  and  C_3
REMARK    3  A    between atoms: C_3  and  C_4
REMARK    4  A    between atoms: C_7  and  C_8
REMARK    5  A    between atoms: C_15  and  C_16
REMARK    6  A    between atoms: C_16  and  C_17
REMARK    7  A    between atoms: C_17  and  C_18
REMARK    8  A    between atoms: C_19  and  O_20
REMARK    9  A    between atoms: O_20  and  C_21
REMARK   10  A    between atoms: C_21  and  C_22
REMARK   11  A    between atoms: C_22  and  C_23
REMARK   12  A    between atoms: C_22  and  C_24
REMARK   13  A    between atoms: C_22  and  C_25
REMARK   14  A    between atoms: C_25  and  O_27
REMARK                            x       y       z     vdW  Elec       q    Type
REMARK                         _______ _______ _______ _____ _____    ______ ____
ROOT
ATOM      1  C   UNL     1       2.610   5.953  20.001  0.00  0.00    +0.000 A 
ATOM      2  C   UNL     1       1.823   7.132  20.026  0.00  0.00    +0.000 A 
ATOM      3  C   UNL     1       1.928   8.101  19.022  0.00  0.00    +0.000 A 
ATOM      4  C   UNL     1       1.287   9.326  18.695  0.00  0.00    +0.000 A 
ATOM      5  N   UNL     1       1.833   9.865  17.591  0.00  0.00    +0.000 NA
ATOM      6  O   UNL     1       2.827   8.982  17.193  0.00  0.00    +0.000 OA
ATOM      7  C   UNL     1       2.874   7.918  18.043  0.00  0.00    +0.000 A 
ATOM      8  C   UNL     1       3.732   6.813  17.956  0.00  0.00    +0.000 A 
ATOM      9  C   UNL     1       3.577   5.798  18.964  0.00  0.00    +0.000 A 
ENDROOT
BRANCH   4  10
ATOM     10  C   UNL     1       0.150   9.974  19.405  0.00  0.00    +0.000 C 
ATOM     11  F   UNL     1      -1.004   9.945  18.677  0.00  0.00    +0.000 F 
ATOM     12  F   UNL     1      -0.144   9.366  20.587  0.00  0.00    +0.000 F 
ATOM     13  F   UNL     1       0.379  11.285  19.681  0.00  0.00    +0.000 F 
ENDBRANCH   4  10
BRANCH   1  14
ATOM     14  C   UNL     1       2.370   5.019  21.182  0.00  0.00    +0.000 C 
BRANCH  14  16
ATOM     15  C   UNL     1       1.637   2.634  21.722  0.00  0.00    +0.000 C 
ATOM     16  C   UNL     1       1.262   3.954  21.056  0.00  0.00    +0.000 C 
ENDBRANCH  14  16
ENDBRANCH   1  14
BRANCH   8  17
ATOM     17  C   UNL     1       4.759   6.739  16.850  0.00  0.00    +0.000 C 
BRANCH  17  18
ATOM     18  C   UNL     1       6.151   7.234  17.261  0.00  0.00    +0.000 C 
ATOM     19  C   UNL     1       7.219   6.154  17.231  0.00  0.00    +0.000 C 
ENDBRANCH  17  18
ENDBRANCH   8  17
BRANCH   9  20
ATOM     20  O   UNL     1       4.469   4.755  18.763  0.00  0.00    +0.000 OA
BRANCH  20  21
ATOM     21  C   UNL     1       4.128   3.418  19.109  0.00  0.00    +0.000 C 
BRANCH  21  22
ATOM     22  C   UNL     1       3.630   2.558  17.916  0.00  0.00    +0.000 C 
ATOM     23  C   UNL     1       4.258   3.072  16.612  0.00  0.00    +0.000 C 
ATOM     24  C   UNL     1       3.968   1.081  18.131  0.00  0.00    +0.000 C 
BRANCH  22  25
ATOM     25  C   UNL     1       2.108   2.720  17.865  0.00  0.00    +0.000 C 
ATOM     26  O   UNL     1       1.314   1.932  18.359  0.00  0.00    +0.000 OA
BRANCH  25  27
ATOM     27  O   UNL     1       1.674   3.834  17.231  0.00  0.00    +0.000 OA
ATOM     28  H   UNL     1       1.179   3.683  16.404  0.00  0.00    +0.000 HD
ENDBRANCH  25  27
ENDBRANCH  22  25
ENDBRANCH  21  22
ENDBRANCH  20  21
ENDBRANCH   9  20
TORSDOF 10
ENDMDL
MODEL 6
REMARK VINA RESULT:      -7.3      0.513      1.083
REMARK  Name = 
REMARK  14 active torsions:
REMARK  status: ('A' for Active; 'I' for Inactive)
REMARK    1  A    between atoms: C_1  and  C_2
REMARK    2  A    between atoms: C_2  and  C_3
REMARK    3  A    between atoms: C_3  and  C_4
REMARK    4  A    between atoms: C_7  and  C_8
REMARK    5  A    between atoms: C_15  and  C_16
REMARK    6  A    between atoms: C_16  and  C_17
REMARK    7  A    between atoms: C_17  and  C_18
REMARK    8  A    between atoms: C_19  and  O_20
REMARK    9  A    between atoms: O_20  and  C_21
REMARK   10  A    between atoms: C_21  and  C_22
REMARK   11  A    between atoms: C_22  and  C_23
REMARK   12  A    between atoms: C_22  and  C_24
REMARK   13  A    between atoms: C_22  and  C_25
REMARK   14  A    between atoms: C_25  and  O_27
REMARK                            x       y       z     vdW  Elec       q    Type
REMARK                         _______ _______ _______ _____ _____    ______ ____
ROOT
ATOM      1  C   UNL     1       4.347   3.914  16.774  0.00  0.00    +0.000 A 
ATOM      2  C   UNL     1       4.811   3.793  15.439  0.00  0.00    +0.000 A 
ATOM      3  C   UNL     1       5.967   4.451  15.006  0.00  0.00    +0.000 A 
ATOM      4  C   UNL     1       6.736   4.515  13.813  0.00  0.00    +0.000 A 
ATOM      5  N   UNL     1       7.771   5.361  13.962  0.00  0.00    +0.000 NA
ATOM      6  O   UNL     1       7.679   5.841  15.261  0.00  0.00    +0.000 OA
ATOM      7  C   UNL     1       6.606   5.285  15.891  0.00  0.00    +0.000 A 
ATOM      8  C   UNL     1       6.202   5.510  17.214  0.00  0.00    +0.000 A 
ATOM      9  C   UNL     1       5.043   4.785  17.664  0.00  0.00    +0.000 A 
ENDROOT
BRANCH   4  10
ATOM     10  C   UNL     1       6.511   3.765  12.546  0.00  0.00    +0.000 C 
ATOM     11  F   UNL     1       6.705   2.422  12.695  0.00  0.00    +0.000 F 
ATOM     12  F   UNL     1       5.243   3.904  12.073  0.00  0.00    +0.000 F 
ATOM     13  F   UNL     1       7.349   4.152  11.549  0.00  0.00    +0.000 F 
ENDBRANCH   4  10
BRANCH   1  14
ATOM     14  C   UNL     1       3.067   3.137  17.061  0.00  0.00    +0.000 C 
BRANCH  14  16
ATOM     15  C   UNL     1       1.847   1.672  18.759  0.00  0.00    +0.000 C 
ATOM     16  C   UNL     1       3.149   1.918  18.003  0.00  0.00    +0.000 C 
ENDBRANCH  14  16
ENDBRANCH   1  14
BRANCH   8  17
ATOM     17  C   UNL     1       6.968   6.479  18.084  0.00  0.00    +0.000 C 
BRANCH  17  18
ATOM     18  C   UNL     1       7.352   7.782  17.372  0.00  0.00    +0.000 C 
ATOM     19  C   UNL     1       8.319   8.650  18.158  0.00  0.00    +0.000 C 
ENDBRANCH  17  18
ENDBRANCH   8  17
BRANCH   9  20
ATOM     20  O   UNL     1       4.753   5.081  18.987  0.00  0.00    +0.000 OA
BRANCH  20  21
ATOM     21  C   UNL     1       3.865   6.140  19.327  0.00  0.00    +0.000 C 
BRANCH  21  22
ATOM     22  C   UNL     1       2.442   5.672  19.734  0.00  0.00    +0.000 C 
ATOM     23  C   UNL     1       1.624   5.349  18.475  0.00  0.00    +0.000 C 
ATOM     24  C   UNL     1       2.512   4.453  20.657  0.00  0.00    +0.000 C 
BRANCH  22  25
ATOM     25  C   UNL     1       1.799   6.837  20.493  0.00  0.00    +0.000 C 
ATOM     26  O   UNL     1       0.862   6.720  21.270  0.00  0.00    +0.000 OA
BRANCH  25  27
ATOM     27  O   UNL     1       2.357   8.047  20.259  0.00  0.00    +0.000 OA
ATOM     28  H   UNL     1       1.729   8.775  20.088  0.00  0.00    +0.000 HD
ENDBRANCH  25  27
ENDBRANCH  22  25
ENDBRANCH  21  22
ENDBRANCH  20  21
ENDBRANCH   9  20
TORSDOF 10
ENDMDL
MODEL 7
REMARK VINA RESULT:      -7.2      4.833      6.519
REMARK  Name = 
REMARK  14 active torsions:
REMARK  status: ('A' for Active; 'I' for Inactive)
REMARK    1  A    between atoms: C_1  and  C_2
REMARK    2  A    between atoms: C_2  and  C_3
REMARK    3  A    between atoms: C_3  and  C_4
REMARK    4  A    between atoms: C_7  and  C_8
REMARK    5  A    between atoms: C_15  and  C_16
REMARK    6  A    between atoms: C_16  and  C_17
REMARK    7  A    between atoms: C_17  and  C_18
REMARK    8  A    between atoms: C_19  and  O_20
REMARK    9  A    between atoms: O_20  and  C_21
REMARK   10  A    between atoms: C_21  and  C_22
REMARK   11  A    between atoms: C_22  and  C_23
REMARK   12  A    between atoms: C_22  and  C_24
REMARK   13  A    between atoms: C_22  and  C_25
REMARK   14  A    between atoms: C_25  and  O_27
REMARK                            x       y       z     vdW  Elec       q    Type
REMARK                         _______ _______ _______ _____ _____    ______ ____
ROOT
ATOM      1  C   UNL     1       2.626   5.909  19.898  0.00  0.00    +0.000 A 
ATOM      2  C   UNL     1       1.858   7.100  19.971  0.00  0.00    +0.000 A 
ATOM      3  C   UNL     1       1.966   8.098  18.997  0.00  0.00    +0.000 A 
ATOM      4  C   UNL     1       1.341   9.343  18.718  0.00  0.00    +0.000 A 
ATOM      5  N   UNL     1       1.881   9.908  17.624  0.00  0.00    +0.000 NA
ATOM      6  O   UNL     1       2.854   9.022  17.185  0.00  0.00    +0.000 OA
ATOM      7  C   UNL     1       2.895   7.930  18.000  0.00  0.00    +0.000 A 
ATOM      8  C   UNL     1       3.734   6.815  17.865  0.00  0.00    +0.000 A 
ATOM      9  C   UNL     1       3.576   5.771  18.843  0.00  0.00    +0.000 A 
ENDROOT
BRANCH   4  10
ATOM     10  C   UNL     1       0.224   9.986  19.465  0.00  0.00    +0.000 C 
ATOM     11  F   UNL     1      -0.248   9.199  20.475  0.00  0.00    +0.000 F 
ATOM     12  F   UNL     1       0.591  11.158  20.050  0.00  0.00    +0.000 F 
ATOM     13  F   UNL     1      -0.849  10.257  18.676  0.00  0.00    +0.000 F 
ENDBRANCH   4  10
BRANCH   1  14
ATOM     14  C   UNL     1       2.386   4.943  21.053  0.00  0.00    +0.000 C 
BRANCH  14  16
ATOM     15  C   UNL     1       1.340   2.749  21.835  0.00  0.00    +0.000 C 
ATOM     16  C   UNL     1       1.173   3.994  20.971  0.00  0.00    +0.000 C 
ENDBRANCH  14  16
ENDBRANCH   1  14
BRANCH   8  17
ATOM     17  C   UNL     1       4.744   6.760  16.743  0.00  0.00    +0.000 C 
BRANCH  17  18
ATOM     18  C   UNL     1       6.155   7.194  17.156  0.00  0.00    +0.000 C 
ATOM     19  C   UNL     1       7.202   6.105  17.001  0.00  0.00    +0.000 C 
ENDBRANCH  17  18
ENDBRANCH   8  17
BRANCH   9  20
ATOM     20  O   UNL     1       4.448   4.722  18.596  0.00  0.00    +0.000 OA
BRANCH  20  21
ATOM     21  C   UNL     1       4.149   3.731  17.619  0.00  0.00    +0.000 C 
BRANCH  21  22
ATOM     22  C   UNL     1       3.651   2.384  18.209  0.00  0.00    +0.000 C 
ATOM     23  C   UNL     1       4.194   1.220  17.367  0.00  0.00    +0.000 C 
ATOM     24  C   UNL     1       4.081   2.237  19.670  0.00  0.00    +0.000 C 
BRANCH  22  25
ATOM     25  C   UNL     1       2.121   2.415  18.138  0.00  0.00    +0.000 C 
ATOM     26  O   UNL     1       1.474   3.298  17.594  0.00  0.00    +0.000 OA
BRANCH  25  27
ATOM     27  O   UNL     1       1.502   1.362  18.722  0.00  0.00    +0.000 OA
ATOM     28  H   UNL     1       1.696   0.489  18.331  0.00  0.00    +0.000 HD
ENDBRANCH  25  27
ENDBRANCH  22  25
ENDBRANCH  21  22
ENDBRANCH  20  21
ENDBRANCH   9  20
TORSDOF 10
ENDMDL
MODEL 8
REMARK VINA RESULT:      -7.2      2.885      5.432
REMARK  Name = 
REMARK  14 active torsions:
REMARK  status: ('A' for Active; 'I' for Inactive)
REMARK    1  A    between atoms: C_1  and  C_2
REMARK    2  A    between atoms: C_2  and  C_3
REMARK    3  A    between atoms: C_3  and  C_4
REMARK    4  A    between atoms: C_7  and  C_8
REMARK    5  A    between atoms: C_15  and  C_16
REMARK    6  A    between atoms: C_16  and  C_17
REMARK    7  A    between atoms: C_17  and  C_18
REMARK    8  A    between atoms: C_19  and  O_20
REMARK    9  A    between atoms: O_20  and  C_21
REMARK   10  A    between atoms: C_21  and  C_22
REMARK   11  A    between atoms: C_22  and  C_23
REMARK   12  A    between atoms: C_22  and  C_24
REMARK   13  A    between atoms: C_22  and  C_25
REMARK   14  A    between atoms: C_25  and  O_27
REMARK                            x       y       z     vdW  Elec       q    Type
REMARK                         _______ _______ _______ _____ _____    ______ ____
ROOT
ATOM      1  C   UNL     1       2.478   8.102  18.341  0.00  0.00    +0.000 A 
ATOM      2  C   UNL     1       3.415   7.534  17.441  0.00  0.00    +0.000 A 
ATOM      3  C   UNL     1       3.897   6.232  17.615  0.00  0.00    +0.000 A 
ATOM      4  C   UNL     1       4.757   5.344  16.915  0.00  0.00    +0.000 A 
ATOM      5  N   UNL     1       4.886   4.184  17.582  0.00  0.00    +0.000 NA
ATOM      6  O   UNL     1       4.098   4.315  18.716  0.00  0.00    +0.000 OA
ATOM      7  C   UNL     1       3.494   5.536  18.729  0.00  0.00    +0.000 A 
ATOM      8  C   UNL     1       2.609   6.025  19.701  0.00  0.00    +0.000 A 
ATOM      9  C   UNL     1       2.080   7.345  19.483  0.00  0.00    +0.000 A 
ENDROOT
BRANCH   4  10
ATOM     10  C   UNL     1       5.437   5.580  15.610  0.00  0.00    +0.000 C 
ATOM     11  F   UNL     1       5.203   4.578  14.713  0.00  0.00    +0.000 F 
ATOM     12  F   UNL     1       5.023   6.724  15.002  0.00  0.00    +0.000 F 
ATOM     13  F   UNL     1       6.788   5.662  15.728  0.00  0.00    +0.000 F 
ENDBRANCH   4  10
BRANCH   1  14
ATOM     14  C   UNL     1       2.077   9.533  18.001  0.00  0.00    +0.000 C 
BRANCH  14  16
ATOM     15  C   UNL     1      -0.420   9.376  17.496  0.00  0.00    +0.000 C 
ATOM     16  C   UNL     1       0.657  10.002  18.375  0.00  0.00    +0.000 C 
ENDBRANCH  14  16
ENDBRANCH   1  14
BRANCH   8  17
ATOM     17  C   UNL     1       2.267   5.177  20.904  0.00  0.00    +0.000 C 
BRANCH  17  18
ATOM     18  C   UNL     1       1.189   4.121  20.632  0.00  0.00    +0.000 C 
ATOM     19  C   UNL     1       1.446   2.791  21.319  0.00  0.00    +0.000 C 
ENDBRANCH  17  18
ENDBRANCH   8  17
BRANCH   9  20
ATOM     20  O   UNL     1       1.211   7.707  20.501  0.00  0.00    +0.000 OA
BRANCH  20  21
ATOM     21  C   UNL     1       1.518   8.782  21.381  0.00  0.00    +0.000 C 
BRANCH  21  22
ATOM     22  C   UNL     1       0.283   9.394  22.095  0.00  0.00    +0.000 C 
ATOM     23  C   UNL     1      -0.980   8.616  21.698  0.00  0.00    +0.000 C 
ATOM     24  C   UNL     1       0.468   9.379  23.614  0.00  0.00    +0.000 C 
BRANCH  22  25
ATOM     25  C   UNL     1       0.177  10.846  21.619  0.00  0.00    +0.000 C 
ATOM     26  O   UNL     1      -0.877  11.417  21.377  0.00  0.00    +0.000 OA
BRANCH  25  27
ATOM     27  O   UNL     1       1.359  11.491  21.489  0.00  0.00    +0.000 OA
ATOM     28  H   UNL     1       1.396  12.168  20.787  0.00  0.00    +0.000 HD
ENDBRANCH  25  27
ENDBRANCH  22  25
ENDBRANCH  21  22
ENDBRANCH  20  21
ENDBRANCH   9  20
TORSDOF 10
ENDMDL
MODEL 9
REMARK VINA RESULT:      -7.1      1.138      1.762
REMARK  Name = 
REMARK  14 active torsions:
REMARK  status: ('A' for Active; 'I' for Inactive)
REMARK    1  A    between atoms: C_1  and  C_2
REMARK    2  A    between atoms: C_2  and  C_3
REMARK    3  A    between atoms: C_3  and  C_4
REMARK    4  A    between atoms: C_7  and  C_8
REMARK    5  A    between atoms: C_15  and  C_16
REMARK    6  A    between atoms: C_16  and  C_17
REMARK    7  A    between atoms: C_17  and  C_18
REMARK    8  A    between atoms: C_19  and  O_20
REMARK    9  A    between atoms: O_20  and  C_21
REMARK   10  A    between atoms: C_21  and  C_22
REMARK   11  A    between atoms: C_22  and  C_23
REMARK   12  A    between atoms: C_22  and  C_24
REMARK   13  A    between atoms: C_22  and  C_25
REMARK   14  A    between atoms: C_25  and  O_27
REMARK                            x       y       z     vdW  Elec       q    Type
REMARK                         _______ _______ _______ _____ _____    ______ ____
ROOT
ATOM      1  C   UNL     1       4.136   4.033  16.917  0.00  0.00    +0.000 A 
ATOM      2  C   UNL     1       4.614   3.858  15.593  0.00  0.00    +0.000 A 
ATOM      3  C   UNL     1       5.753   4.526  15.134  0.00  0.00    +0.000 A 
ATOM      4  C   UNL     1       6.530   4.552  13.944  0.00  0.00    +0.000 A 
ATOM      5  N   UNL     1       7.539   5.434  14.056  0.00  0.00    +0.000 NA
ATOM      6  O   UNL     1       7.423   5.976  15.327  0.00  0.00    +0.000 OA
ATOM      7  C   UNL     1       6.362   5.422  15.979  0.00  0.00    +0.000 A 
ATOM      8  C   UNL     1       5.941   5.703  17.286  0.00  0.00    +0.000 A 
ATOM      9  C   UNL     1       4.800   4.969  17.765  0.00  0.00    +0.000 A 
ENDROOT
BRANCH   4  10
ATOM     10  C   UNL     1       6.336   3.732  12.716  0.00  0.00    +0.000 C 
ATOM     11  F   UNL     1       6.532   2.400  12.942  0.00  0.00    +0.000 F 
ATOM     12  F   UNL     1       5.079   3.839  12.207  0.00  0.00    +0.000 F 
ATOM     13  F   UNL     1       7.196   4.067  11.718  0.00  0.00    +0.000 F 
ENDBRANCH   4  10
BRANCH   1  14
ATOM     14  C   UNL     1       2.877   3.235  17.234  0.00  0.00    +0.000 C 
BRANCH  14  16
ATOM     15  C   UNL     1       3.833   1.976  19.239  0.00  0.00    +0.000 C 
ATOM     16  C   UNL     1       3.035   1.875  17.944  0.00  0.00    +0.000 C 
ENDBRANCH  14  16
ENDBRANCH   1  14
BRANCH   8  17
ATOM     17  C   UNL     1       6.673   6.737  18.110  0.00  0.00    +0.000 C 
BRANCH  17  18
ATOM     18  C   UNL     1       8.016   6.250  18.666  0.00  0.00    +0.000 C 
ATOM     19  C   UNL     1       8.091   4.745  18.861  0.00  0.00    +0.000 C 
ENDBRANCH  17  18
ENDBRANCH   8  17
BRANCH   9  20
ATOM     20  O   UNL     1       4.491   5.323  19.069  0.00  0.00    +0.000 OA
BRANCH  20  21
ATOM     21  C   UNL     1       3.874   6.570  19.366  0.00  0.00    +0.000 C 
BRANCH  21  22
ATOM     22  C   UNL     1       2.325   6.509  19.459  0.00  0.00    +0.000 C 
ATOM     23  C   UNL     1       1.807   7.722  20.245  0.00  0.00    +0.000 C 
ATOM     24  C   UNL     1       1.698   6.463  18.064  0.00  0.00    +0.000 C 
BRANCH  22  25
ATOM     25  C   UNL     1       1.983   5.215  20.204  0.00  0.00    +0.000 C 
ATOM     26  O   UNL     1       1.198   4.371  19.794  0.00  0.00    +0.000 OA
BRANCH  25  27
ATOM     27  O   UNL     1       2.632   5.045  21.379  0.00  0.00    +0.000 OA
ATOM     28  H   UNL     1       3.600   5.161  21.346  0.00  0.00    +0.000 HD
ENDBRANCH  25  27
ENDBRANCH  22  25
ENDBRANCH  21  22
ENDBRANCH  20  21
ENDBRANCH   9  20
TORSDOF 10
ENDMDL
