MODEL 1
REMARK VINA RESULT:      -7.4      0.000      0.000
REMARK  Name = 
REMARK  3 active torsions:
REMARK  status: ('A' for Active; 'I' for Inactive)
REMARK    1  A    between atoms: C_1  and  C_2
REMARK    2  A    between atoms: C_2  and  C_3
REMARK    3  A    between atoms: C_3  and  N_4
REMARK                            x       y       z     vdW  Elec       q    Type
REMARK                         _______ _______ _______ _____ _____    ______ ____
ROOT
ATOM      1  N   UNL     1      -3.783  13.119  21.644  0.00  0.00    +0.000 N 
ATOM      2  C   UNL     1      -5.191  13.196  21.591  0.00  0.00    +0.000 A 
ATOM      3  C   UNL     1      -6.149  13.544  22.578  0.00  0.00    +0.000 A 
ATOM      4  C   UNL     1      -7.498  13.540  22.240  0.00  0.00    +0.000 A 
ATOM      5  C   UNL     1      -7.917  13.203  20.960  0.00  0.00    +0.000 A 
ATOM      6  C   UNL     1      -6.987  12.824  19.993  0.00  0.00    +0.000 A 
ATOM      7  C   UNL     1      -5.613  12.811  20.296  0.00  0.00    +0.000 A 
ATOM      8  C   UNL     1      -4.434  12.429  19.694  0.00  0.00    +0.000 A 
ATOM      9  C   UNL     1      -4.308  11.912  18.363  0.00  0.00    +0.000 A 
ATOM     10  C   UNL     1      -3.057  11.338  18.010  0.00  0.00    +0.000 A 
ATOM     11  C   UNL     1      -2.010  11.293  18.992  0.00  0.00    +0.000 A 
ATOM     12  C   UNL     1      -0.695  11.024  18.654  0.00  0.00    +0.000 A 
ATOM     13  C   UNL     1       0.139   9.906  18.542  0.00  0.00    +0.000 A 
ATOM     14  C   UNL     1       1.497  10.127  18.276  0.00  0.00    +0.000 A 
ATOM     15  C   UNL     1       1.953  11.413  17.988  0.00  0.00    +0.000 A 
ATOM     16  C   UNL     1       1.158  12.533  18.268  0.00  0.00    +0.000 A 
ATOM     17  C   UNL     1      -0.068  12.248  18.875  0.00  0.00    +0.000 A 
ATOM     18  N   UNL     1      -0.832  12.874  19.875  0.00  0.00    +0.000 N 
ATOM     19  C   UNL     1      -2.082  12.316  19.896  0.00  0.00    +0.000 A 
ATOM     20  C   UNL     1      -3.311  12.667  20.446  0.00  0.00    +0.000 A 
ATOM     21  C   UNL     1      -3.114  10.974  16.627  0.00  0.00    +0.000 C 
ATOM     22  O   UNL     1      -2.265  10.603  15.815  0.00  0.00    +0.000 OA
ATOM     23  N   UNL     1      -4.410  11.253  16.282  0.00  0.00    +0.000 N 
ATOM     24  C   UNL     1      -5.171  11.850  17.233  0.00  0.00    +0.000 C 
ATOM     25  O   UNL     1      -6.298  12.300  17.000  0.00  0.00    +0.000 OA
ATOM     26  H   UNL     1      -0.476  13.629  20.442  0.00  0.00    +0.000 HD
ATOM     27  H   UNL     1      -4.726  11.179  15.331  0.00  0.00    +0.000 HD
ENDROOT
BRANCH   1  28
ATOM     28  C   UNL     1      -3.022  13.193  22.887  0.00  0.00    +0.000 C 
BRANCH  28  30
ATOM     29  C   UNL     1      -1.372  11.288  23.192  0.00  0.00    +0.000 C 
ATOM     30  C   UNL     1      -2.732  11.856  23.559  0.00  0.00    +0.000 C 
ENDBRANCH  28  30
ENDBRANCH   1  28
TORSDOF 2
ENDMDL
MODEL 2
REMARK VINA RESULT:      -7.3      0.723      1.045
REMARK  Name = 
REMARK  3 active torsions:
REMARK  status: ('A' for Active; 'I' for Inactive)
REMARK    1  A    between atoms: C_1  and  C_2
REMARK    2  A    between atoms: C_2  and  C_3
REMARK    3  A    between atoms: C_3  and  N_4
REMARK                            x       y       z     vdW  Elec       q    Type
REMARK                         _______ _______ _______ _____ _____    ______ ____
ROOT
ATOM      1  N   UNL     1      -3.766  12.838  22.128  0.00  0.00    +0.000 N 
ATOM      2  C   UNL     1      -5.176  12.870  22.115  0.00  0.00    +0.000 A 
ATOM      3  C   UNL     1      -6.120  13.079  23.153  0.00  0.00    +0.000 A 
ATOM      4  C   UNL     1      -7.477  13.062  22.846  0.00  0.00    +0.000 A 
ATOM      5  C   UNL     1      -7.916  12.845  21.547  0.00  0.00    +0.000 A 
ATOM      6  C   UNL     1      -7.000  12.601  20.526  0.00  0.00    +0.000 A 
ATOM      7  C   UNL     1      -5.618  12.606  20.796  0.00  0.00    +0.000 A 
ATOM      8  C   UNL     1      -4.443  12.330  20.133  0.00  0.00    +0.000 A 
ATOM      9  C   UNL     1      -4.334  11.957  18.752  0.00  0.00    +0.000 A 
ATOM     10  C   UNL     1      -3.073  11.468  18.314  0.00  0.00    +0.000 A 
ATOM     11  C   UNL     1      -2.001  11.360  19.263  0.00  0.00    +0.000 A 
ATOM     12  C   UNL     1      -0.687  11.174  18.870  0.00  0.00    +0.000 A 
ATOM     13  C   UNL     1       0.180  10.104  18.624  0.00  0.00    +0.000 A 
ATOM     14  C   UNL     1       1.524  10.399  18.353  0.00  0.00    +0.000 A 
ATOM     15  C   UNL     1       1.928  11.724  18.190  0.00  0.00    +0.000 A 
ATOM     16  C   UNL     1       1.104  12.780  18.603  0.00  0.00    +0.000 A 
ATOM     17  C   UNL     1      -0.095  12.391  19.203  0.00  0.00    +0.000 A 
ATOM     18  N   UNL     1      -0.855  12.882  20.280  0.00  0.00    +0.000 N 
ATOM     19  C   UNL     1      -2.084  12.281  20.270  0.00  0.00    +0.000 A 
ATOM     20  C   UNL     1      -3.310  12.529  20.880  0.00  0.00    +0.000 A 
ATOM     21  C   UNL     1      -3.154  11.248  16.903  0.00  0.00    +0.000 C 
ATOM     22  O   UNL     1      -2.314  10.993  16.038  0.00  0.00    +0.000 OA
ATOM     23  N   UNL     1      -4.467  11.515  16.617  0.00  0.00    +0.000 N 
ATOM     24  C   UNL     1      -5.223  11.983  17.641  0.00  0.00    +0.000 C 
ATOM     25  O   UNL     1      -6.369  12.414  17.481  0.00  0.00    +0.000 OA
ATOM     26  H   UNL     1      -0.509  13.587  20.914  0.00  0.00    +0.000 HD
ATOM     27  H   UNL     1      -4.804  11.528  15.670  0.00  0.00    +0.000 HD
ENDROOT
BRANCH   1  28
ATOM     28  C   UNL     1      -2.976  12.810  23.355  0.00  0.00    +0.000 C 
BRANCH  28  30
ATOM     29  C   UNL     1      -3.295  14.882  24.787  0.00  0.00    +0.000 C 
ATOM     30  C   UNL     1      -2.404  14.152  23.797  0.00  0.00    +0.000 C 
ENDBRANCH  28  30
ENDBRANCH   1  28
TORSDOF 2
ENDMDL
MODEL 3
REMARK VINA RESULT:      -7.2      2.478      4.500
REMARK  Name = 
REMARK  3 active torsions:
REMARK  status: ('A' for Active; 'I' for Inactive)
REMARK    1  A    between atoms: C_1  and  C_2
REMARK    2  A    between atoms: C_2  and  C_3
REMARK    3  A    between atoms: C_3  and  N_4
REMARK                            x       y       z     vdW  Elec       q    Type
REMARK                         _______ _______ _______ _____ _____    ______ ____
ROOT
ATOM      1  N   UNL     1      -4.076  11.705  18.330  0.00  0.00    +0.000 N 
ATOM      2  C   UNL     1      -5.242  11.796  19.118  0.00  0.00    +0.000 A 
ATOM      3  C   UNL     1      -6.606  11.557  18.809  0.00  0.00    +0.000 A 
ATOM      4  C   UNL     1      -7.563  11.724  19.804  0.00  0.00    +0.000 A 
ATOM      5  C   UNL     1      -7.206  12.118  21.086  0.00  0.00    +0.000 A 
ATOM      6  C   UNL     1      -5.874  12.391  21.391  0.00  0.00    +0.000 A 
ATOM      7  C   UNL     1      -4.875  12.238  20.412  0.00  0.00    +0.000 A 
ATOM      8  C   UNL     1      -3.525  12.482  20.277  0.00  0.00    +0.000 A 
ATOM      9  C   UNL     1      -2.664  12.991  21.304  0.00  0.00    +0.000 A 
ATOM     10  C   UNL     1      -1.367  13.414  20.907  0.00  0.00    +0.000 A 
ATOM     11  C   UNL     1      -1.001  13.327  19.521  0.00  0.00    +0.000 A 
ATOM     12  C   UNL     1       0.312  13.440  19.098  0.00  0.00    +0.000 A 
ATOM     13  C   UNL     1       1.182  14.452  18.678  0.00  0.00    +0.000 A 
ATOM     14  C   UNL     1       2.447  14.073  18.206  0.00  0.00    +0.000 A 
ATOM     15  C   UNL     1       2.859  12.744  18.300  0.00  0.00    +0.000 A 
ATOM     16  C   UNL     1       1.932  11.725  18.558  0.00  0.00    +0.000 A 
ATOM     17  C   UNL     1       0.606  12.148  18.667  0.00  0.00    +0.000 A 
ATOM     18  N   UNL     1      -0.629  11.610  18.263  0.00  0.00    +0.000 N 
ATOM     19  C   UNL     1      -1.640  12.313  18.863  0.00  0.00    +0.000 A 
ATOM     20  C   UNL     1      -3.001  12.106  19.066  0.00  0.00    +0.000 A 
ATOM     21  C   UNL     1      -0.649  13.793  22.084  0.00  0.00    +0.000 C 
ATOM     22  O   UNL     1       0.533  14.066  22.301  0.00  0.00    +0.000 OA
ATOM     23  N   UNL     1      -1.585  13.672  23.077  0.00  0.00    +0.000 N 
ATOM     24  C   UNL     1      -2.787  13.163  22.712  0.00  0.00    +0.000 C 
ATOM     25  O   UNL     1      -3.657  12.852  23.532  0.00  0.00    +0.000 OA
ATOM     26  H   UNL     1      -0.702  10.814  17.648  0.00  0.00    +0.000 HD
ATOM     27  H   UNL     1      -1.340  13.791  24.045  0.00  0.00    +0.000 HD
ENDROOT
BRANCH   1  28
ATOM     28  C   UNL     1      -4.100  11.531  16.880  0.00  0.00    +0.000 C 
BRANCH  28  30
ATOM     29  C   UNL     1      -2.998  10.386  14.902  0.00  0.00    +0.000 C 
ATOM     30  C   UNL     1      -3.411  10.276  16.359  0.00  0.00    +0.000 C 
ENDBRANCH  28  30
ENDBRANCH   1  28
TORSDOF 2
ENDMDL
MODEL 4
REMARK VINA RESULT:      -7.2      2.500      7.093
REMARK  Name = 
REMARK  3 active torsions:
REMARK  status: ('A' for Active; 'I' for Inactive)
REMARK    1  A    between atoms: C_1  and  C_2
REMARK    2  A    between atoms: C_2  and  C_3
REMARK    3  A    between atoms: C_3  and  N_4
REMARK                            x       y       z     vdW  Elec       q    Type
REMARK                         _______ _______ _______ _____ _____    ______ ____
ROOT
ATOM      1  N   UNL     1      -2.740  11.101  18.327  0.00  0.00    +0.000 N 
ATOM      2  C   UNL     1      -1.387  10.727  18.459  0.00  0.00    +0.000 A 
ATOM      3  C   UNL     1      -0.576   9.851  17.692  0.00  0.00    +0.000 A 
ATOM      4  C   UNL     1       0.755   9.672  18.056  0.00  0.00    +0.000 A 
ATOM      5  C   UNL     1       1.296  10.333  19.149  0.00  0.00    +0.000 A 
ATOM      6  C   UNL     1       0.499  11.166  19.932  0.00  0.00    +0.000 A 
ATOM      7  C   UNL     1      -0.853  11.372  19.600  0.00  0.00    +0.000 A 
ATOM      8  C   UNL     1      -1.954  12.005  20.133  0.00  0.00    +0.000 A 
ATOM      9  C   UNL     1      -1.966  12.782  21.338  0.00  0.00    +0.000 A 
ATOM     10  C   UNL     1      -3.238  13.142  21.861  0.00  0.00    +0.000 A 
ATOM     11  C   UNL     1      -4.421  12.702  21.176  0.00  0.00    +0.000 A 
ATOM     12  C   UNL     1      -5.668  13.239  21.444  0.00  0.00    +0.000 A 
ATOM     13  C   UNL     1      -6.749  12.978  22.293  0.00  0.00    +0.000 A 
ATOM     14  C   UNL     1      -7.912  13.744  22.128  0.00  0.00    +0.000 A 
ATOM     15  C   UNL     1      -7.917  14.824  21.245  0.00  0.00    +0.000 A 
ATOM     16  C   UNL     1      -6.904  14.970  20.288  0.00  0.00    +0.000 A 
ATOM     17  C   UNL     1      -5.950  13.950  20.279  0.00  0.00    +0.000 A 
ATOM     18  N   UNL     1      -5.244  13.280  19.265  0.00  0.00    +0.000 N 
ATOM     19  C   UNL     1      -4.234  12.550  19.830  0.00  0.00    +0.000 A 
ATOM     20  C   UNL     1      -3.084  11.924  19.359  0.00  0.00    +0.000 A 
ATOM     21  C   UNL     1      -3.023  13.983  22.998  0.00  0.00    +0.000 C 
ATOM     22  O   UNL     1      -3.772  14.677  23.688  0.00  0.00    +0.000 OA
ATOM     23  N   UNL     1      -1.661  13.983  23.138  0.00  0.00    +0.000 N 
ATOM     24  C   UNL     1      -0.958  13.336  22.176  0.00  0.00    +0.000 C 
ATOM     25  O   UNL     1       0.274  13.398  22.094  0.00  0.00    +0.000 OA
ATOM     26  H   UNL     1      -5.471  13.378  18.286  0.00  0.00    +0.000 HD
ATOM     27  H   UNL     1      -1.204  14.570  23.814  0.00  0.00    +0.000 HD
ENDROOT
BRANCH   1  28
ATOM     28  C   UNL     1      -3.672  10.434  17.422  0.00  0.00    +0.000 C 
BRANCH  28  30
ATOM     29  C   UNL     1      -3.045  10.263  14.969  0.00  0.00    +0.000 C 
ATOM     30  C   UNL     1      -3.790  11.050  16.032  0.00  0.00    +0.000 C 
ENDBRANCH  28  30
ENDBRANCH   1  28
TORSDOF 2
ENDMDL
MODEL 5
REMARK VINA RESULT:      -7.1      2.195      4.311
REMARK  Name = 
REMARK  3 active torsions:
REMARK  status: ('A' for Active; 'I' for Inactive)
REMARK    1  A    between atoms: C_1  and  C_2
REMARK    2  A    between atoms: C_2  and  C_3
REMARK    3  A    between atoms: C_3  and  N_4
REMARK                            x       y       z     vdW  Elec       q    Type
REMARK                         _______ _______ _______ _____ _____    ______ ____
ROOT
ATOM      1  N   UNL     1      -4.486  11.715  17.731  0.00  0.00    +0.000 N 
ATOM      2  C   UNL     1      -5.584  12.213  18.463  0.00  0.00    +0.000 A 
ATOM      3  C   UNL     1      -6.918  12.502  18.074  0.00  0.00    +0.000 A 
ATOM      4  C   UNL     1      -7.807  12.989  19.026  0.00  0.00    +0.000 A 
ATOM      5  C   UNL     1      -7.412  13.194  20.341  0.00  0.00    +0.000 A 
ATOM      6  C   UNL     1      -6.095  12.949  20.725  0.00  0.00    +0.000 A 
ATOM      7  C   UNL     1      -5.163  12.459  19.792  0.00  0.00    +0.000 A 
ATOM      8  C   UNL     1      -3.812  12.190  19.736  0.00  0.00    +0.000 A 
ATOM      9  C   UNL     1      -2.891  12.321  20.827  0.00  0.00    +0.000 A 
ATOM     10  C   UNL     1      -1.507  12.244  20.515  0.00  0.00    +0.000 A 
ATOM     11  C   UNL     1      -1.112  12.058  19.147  0.00  0.00    +0.000 A 
ATOM     12  C   UNL     1       0.175  11.687  18.797  0.00  0.00    +0.000 A 
ATOM     13  C   UNL     1       1.381  12.315  18.467  0.00  0.00    +0.000 A 
ATOM     14  C   UNL     1       2.445  11.506  18.043  0.00  0.00    +0.000 A 
ATOM     15  C   UNL     1       2.332  10.117  18.100  0.00  0.00    +0.000 A 
ATOM     16  C   UNL     1       1.081   9.507  18.264  0.00  0.00    +0.000 A 
ATOM     17  C   UNL     1      -0.000  10.389  18.325  0.00  0.00    +0.000 A 
ATOM     18  N   UNL     1      -1.318  10.354  17.836  0.00  0.00    +0.000 N 
ATOM     19  C   UNL     1      -2.035  11.367  18.414  0.00  0.00    +0.000 A 
ATOM     20  C   UNL     1      -3.387  11.673  18.538  0.00  0.00    +0.000 A 
ATOM     21  C   UNL     1      -0.776  12.304  21.743  0.00  0.00    +0.000 C 
ATOM     22  O   UNL     1       0.408  12.116  22.032  0.00  0.00    +0.000 OA
ATOM     23  N   UNL     1      -1.752  12.516  22.681  0.00  0.00    +0.000 N 
ATOM     24  C   UNL     1      -3.031  12.495  22.233  0.00  0.00    +0.000 C 
ATOM     25  O   UNL     1      -4.005  12.510  22.994  0.00  0.00    +0.000 OA
ATOM     26  H   UNL     1      -1.640   9.655  17.183  0.00  0.00    +0.000 HD
ATOM     27  H   UNL     1      -1.542  12.514  23.664  0.00  0.00    +0.000 HD
ENDROOT
BRANCH   1  28
ATOM     28  C   UNL     1      -4.480  11.595  16.277  0.00  0.00    +0.000 C 
BRANCH  28  30
ATOM     29  C   UNL     1      -2.971  10.307  14.693  0.00  0.00    +0.000 C 
ATOM     30  C   UNL     1      -4.075  10.229  15.733  0.00  0.00    +0.000 C 
ENDBRANCH  28  30
ENDBRANCH   1  28
TORSDOF 2
ENDMDL
MODEL 6
REMARK VINA RESULT:      -7.1      2.592      7.164
REMARK  Name = 
REMARK  3 active torsions:
REMARK  status: ('A' for Active; 'I' for Inactive)
REMARK    1  A    between atoms: C_1  and  C_2
REMARK    2  A    between atoms: C_2  and  C_3
REMARK    3  A    between atoms: C_3  and  N_4
REMARK                            x       y       z     vdW  Elec       q    Type
REMARK                         _______ _______ _______ _____ _____    ______ ____
ROOT
ATOM      1  N   UNL     1      -3.913  11.732  18.826  0.00  0.00    +0.000 N 
ATOM      2  C   UNL     1      -2.632  11.200  18.571  0.00  0.00    +0.000 A 
ATOM      3  C   UNL     1      -2.148  10.384  17.516  0.00  0.00    +0.000 A 
ATOM      4  C   UNL     1      -0.810  10.005  17.516  0.00  0.00    +0.000 A 
ATOM      5  C   UNL     1       0.052  10.411  18.524  0.00  0.00    +0.000 A 
ATOM      6  C   UNL     1      -0.421  11.182  19.585  0.00  0.00    +0.000 A 
ATOM      7  C   UNL     1      -1.769  11.583  19.625  0.00  0.00    +0.000 A 
ATOM      8  C   UNL     1      -2.621  12.232  20.492  0.00  0.00    +0.000 A 
ATOM      9  C   UNL     1      -2.250  12.792  21.759  0.00  0.00    +0.000 A 
ATOM     10  C   UNL     1      -3.307  13.193  22.621  0.00  0.00    +0.000 A 
ATOM     11  C   UNL     1      -4.664  13.003  22.192  0.00  0.00    +0.000 A 
ATOM     12  C   UNL     1      -5.729  13.618  22.828  0.00  0.00    +0.000 A 
ATOM     13  C   UNL     1      -6.618  13.334  23.870  0.00  0.00    +0.000 A 
ATOM     14  C   UNL     1      -7.665  14.237  24.101  0.00  0.00    +0.000 A 
ATOM     15  C   UNL     1      -7.713  15.444  23.404  0.00  0.00    +0.000 A 
ATOM     16  C   UNL     1      -6.931  15.639  22.258  0.00  0.00    +0.000 A 
ATOM     17  C   UNL     1      -6.160  14.539  21.876  0.00  0.00    +0.000 A 
ATOM     18  N   UNL     1      -5.804  13.978  20.637  0.00  0.00    +0.000 N 
ATOM     19  C   UNL     1      -4.807  13.060  20.833  0.00  0.00    +0.000 A 
ATOM     20  C   UNL     1      -3.895  12.402  20.014  0.00  0.00    +0.000 A 
ATOM     21  C   UNL     1      -2.724  13.804  23.776  0.00  0.00    +0.000 C 
ATOM     22  O   UNL     1      -3.192  14.448  24.717  0.00  0.00    +0.000 OA
ATOM     23  N   UNL     1      -1.380  13.634  23.578  0.00  0.00    +0.000 N 
ATOM     24  C   UNL     1      -1.010  13.087  22.393  0.00  0.00    +0.000 C 
ATOM     25  O   UNL     1       0.167  13.031  22.023  0.00  0.00    +0.000 OA
ATOM     26  H   UNL     1      -6.228  14.262  19.767  0.00  0.00    +0.000 HD
ATOM     27  H   UNL     1      -0.703  14.048  24.196  0.00  0.00    +0.000 HD
ENDROOT
BRANCH   1  28
ATOM     28  C   UNL     1      -5.110  11.331  18.093  0.00  0.00    +0.000 C 
BRANCH  28  30
ATOM     29  C   UNL     1      -7.147  12.737  17.532  0.00  0.00    +0.000 C 
ATOM     30  C   UNL     1      -5.709  12.395  17.181  0.00  0.00    +0.000 C 
ENDBRANCH  28  30
ENDBRANCH   1  28
TORSDOF 2
ENDMDL
MODEL 7
REMARK VINA RESULT:      -7.0      2.265      6.023
REMARK  Name = 
REMARK  3 active torsions:
REMARK  status: ('A' for Active; 'I' for Inactive)
REMARK    1  A    between atoms: C_1  and  C_2
REMARK    2  A    between atoms: C_2  and  C_3
REMARK    3  A    between atoms: C_3  and  N_4
REMARK                            x       y       z     vdW  Elec       q    Type
REMARK                         _______ _______ _______ _____ _____    ______ ____
ROOT
ATOM      1  N   UNL     1      -4.617  12.093  18.160  0.00  0.00    +0.000 N 
ATOM      2  C   UNL     1      -4.028  11.290  17.162  0.00  0.00    +0.000 A 
ATOM      3  C   UNL     1      -4.542  10.785  15.939  0.00  0.00    +0.000 A 
ATOM      4  C   UNL     1      -3.719  10.006  15.132  0.00  0.00    +0.000 A 
ATOM      5  C   UNL     1      -2.412   9.719  15.503  0.00  0.00    +0.000 A 
ATOM      6  C   UNL     1      -1.910  10.178  16.718  0.00  0.00    +0.000 A 
ATOM      7  C   UNL     1      -2.711  10.966  17.566  0.00  0.00    +0.000 A 
ATOM      8  C   UNL     1      -2.639  11.513  18.828  0.00  0.00    +0.000 A 
ATOM      9  C   UNL     1      -1.508  11.434  19.707  0.00  0.00    +0.000 A 
ATOM     10  C   UNL     1      -1.709  11.834  21.055  0.00  0.00    +0.000 A 
ATOM     11  C   UNL     1      -3.015  12.273  21.463  0.00  0.00    +0.000 A 
ATOM     12  C   UNL     1      -3.226  12.943  22.656  0.00  0.00    +0.000 A 
ATOM     13  C   UNL     1      -3.542  12.625  23.981  0.00  0.00    +0.000 A 
ATOM     14  C   UNL     1      -3.792  13.683  24.866  0.00  0.00    +0.000 A 
ATOM     15  C   UNL     1      -3.581  15.000  24.457  0.00  0.00    +0.000 A 
ATOM     16  C   UNL     1      -3.435  15.313  23.099  0.00  0.00    +0.000 A 
ATOM     17  C   UNL     1      -3.555  14.227  22.228  0.00  0.00    +0.000 A 
ATOM     18  N   UNL     1      -4.129  14.052  20.957  0.00  0.00    +0.000 N 
ATOM     19  C   UNL     1      -3.726  12.848  20.447  0.00  0.00    +0.000 A 
ATOM     20  C   UNL     1      -3.735  12.256  19.187  0.00  0.00    +0.000 A 
ATOM     21  C   UNL     1      -0.448  11.768  21.726  0.00  0.00    +0.000 C 
ATOM     22  O   UNL     1      -0.056  12.157  22.829  0.00  0.00    +0.000 OA
ATOM     23  N   UNL     1       0.387  11.240  20.778  0.00  0.00    +0.000 N 
ATOM     24  C   UNL     1      -0.145  11.055  19.544  0.00  0.00    +0.000 C 
ATOM     25  O   UNL     1       0.537  10.742  18.563  0.00  0.00    +0.000 OA
ATOM     26  H   UNL     1      -4.717  14.749  20.523  0.00  0.00    +0.000 HD
ATOM     27  H   UNL     1       1.376  11.158  20.937  0.00  0.00    +0.000 HD
ENDROOT
BRANCH   1  28
ATOM     28  C   UNL     1      -6.043  12.399  18.206  0.00  0.00    +0.000 C 
BRANCH  28  30
ATOM     29  C   UNL     1      -7.162  11.274  20.187  0.00  0.00    +0.000 C 
ATOM     30  C   UNL     1      -6.942  11.265  18.684  0.00  0.00    +0.000 C 
ENDBRANCH  28  30
ENDBRANCH   1  28
TORSDOF 2
ENDMDL
MODEL 8
REMARK VINA RESULT:      -6.9      2.473      7.084
REMARK  Name = 
REMARK  3 active torsions:
REMARK  status: ('A' for Active; 'I' for Inactive)
REMARK    1  A    between atoms: C_1  and  C_2
REMARK    2  A    between atoms: C_2  and  C_3
REMARK    3  A    between atoms: C_3  and  N_4
REMARK                            x       y       z     vdW  Elec       q    Type
REMARK                         _______ _______ _______ _____ _____    ______ ____
ROOT
ATOM      1  N   UNL     1      -4.981  12.023  18.324  0.00  0.00    +0.000 N 
ATOM      2  C   UNL     1      -3.827  11.357  17.863  0.00  0.00    +0.000 A 
ATOM      3  C   UNL     1      -3.556  10.684  16.643  0.00  0.00    +0.000 A 
ATOM      4  C   UNL     1      -2.303  10.111  16.452  0.00  0.00    +0.000 A 
ATOM      5  C   UNL     1      -1.321  10.188  17.430  0.00  0.00    +0.000 A 
ATOM      6  C   UNL     1      -1.589  10.813  18.647  0.00  0.00    +0.000 A 
ATOM      7  C   UNL     1      -2.845  11.402  18.881  0.00  0.00    +0.000 A 
ATOM      8  C   UNL     1      -3.517  12.002  19.923  0.00  0.00    +0.000 A 
ATOM      9  C   UNL     1      -2.977  12.256  21.227  0.00  0.00    +0.000 A 
ATOM     10  C   UNL     1      -3.893  12.648  22.240  0.00  0.00    +0.000 A 
ATOM     11  C   UNL     1      -5.288  12.751  21.914  0.00  0.00    +0.000 A 
ATOM     12  C   UNL     1      -6.192  13.394  22.742  0.00  0.00    +0.000 A 
ATOM     13  C   UNL     1      -7.046  13.062  23.799  0.00  0.00    +0.000 A 
ATOM     14  C   UNL     1      -7.910  14.057  24.279  0.00  0.00    +0.000 A 
ATOM     15  C   UNL     1      -7.800  15.365  23.807  0.00  0.00    +0.000 A 
ATOM     16  C   UNL     1      -7.072  15.646  22.643  0.00  0.00    +0.000 A 
ATOM     17  C   UNL     1      -6.523  14.530  22.008  0.00  0.00    +0.000 A 
ATOM     18  N   UNL     1      -6.346  14.159  20.663  0.00  0.00    +0.000 N 
ATOM     19  C   UNL     1      -5.507  13.079  20.605  0.00  0.00    +0.000 A 
ATOM     20  C   UNL     1      -4.774  12.452  19.603  0.00  0.00    +0.000 A 
ATOM     21  C   UNL     1      -3.143  12.939  23.423  0.00  0.00    +0.000 C 
ATOM     22  O   UNL     1      -3.434  13.462  24.500  0.00  0.00    +0.000 OA
ATOM     23  N   UNL     1      -1.862  12.604  23.073  0.00  0.00    +0.000 N 
ATOM     24  C   UNL     1      -1.667  12.235  21.783  0.00  0.00    +0.000 C 
ATOM     25  O   UNL     1      -0.542  12.067  21.300  0.00  0.00    +0.000 OA
ATOM     26  H   UNL     1      -6.772  14.660  19.898  0.00  0.00    +0.000 HD
ATOM     27  H   UNL     1      -1.087  12.787  23.687  0.00  0.00    +0.000 HD
ENDROOT
BRANCH   1  28
ATOM     28  C   UNL     1      -6.273  11.952  17.649  0.00  0.00    +0.000 C 
BRANCH  28  30
ATOM     29  C   UNL     1      -7.860  13.927  17.506  0.00  0.00    +0.000 C 
ATOM     30  C   UNL     1      -6.681  13.203  16.880  0.00  0.00    +0.000 C 
ENDBRANCH  28  30
ENDBRANCH   1  28
TORSDOF 2
ENDMDL
MODEL 9
REMARK VINA RESULT:      -6.7      4.694      6.605
REMARK  Name = 
REMARK  3 active torsions:
REMARK  status: ('A' for Active; 'I' for Inactive)
REMARK    1  A    between atoms: C_1  and  C_2
REMARK    2  A    between atoms: C_2  and  C_3
REMARK    3  A    between atoms: C_3  and  N_4
REMARK                            x       y       z     vdW  Elec       q    Type
REMARK                         _______ _______ _______ _____ _____    ______ ____
ROOT
ATOM      1  N   UNL     1       0.527  11.697  19.650  0.00  0.00    +0.000 N 
ATOM      2  C   UNL     1       0.081  10.934  20.749  0.00  0.00    +0.000 A 
ATOM      3  C   UNL     1      -0.025   9.531  20.937  0.00  0.00    +0.000 A 
ATOM      4  C   UNL     1      -0.503   9.047  22.150  0.00  0.00    +0.000 A 
ATOM      5  C   UNL     1      -0.875   9.909  23.172  0.00  0.00    +0.000 A 
ATOM      6  C   UNL     1      -0.811  11.289  22.985  0.00  0.00    +0.000 A 
ATOM      7  C   UNL     1      -0.337  11.820  21.771  0.00  0.00    +0.000 A 
ATOM      8  C   UNL     1      -0.209  13.054  21.172  0.00  0.00    +0.000 A 
ATOM      9  C   UNL     1      -0.544  14.311  21.775  0.00  0.00    +0.000 A 
ATOM     10  C   UNL     1      -0.586  15.446  20.921  0.00  0.00    +0.000 A 
ATOM     11  C   UNL     1      -0.312  15.273  19.521  0.00  0.00    +0.000 A 
ATOM     12  C   UNL     1      -0.050  16.345  18.685  0.00  0.00    +0.000 A 
ATOM     13  C   UNL     1      -0.768  17.213  17.857  0.00  0.00    +0.000 A 
ATOM     14  C   UNL     1      -0.041  18.114  17.065  0.00  0.00    +0.000 A 
ATOM     15  C   UNL     1       1.340  18.226  17.225  0.00  0.00    +0.000 A 
ATOM     16  C   UNL     1       2.062  17.247  17.920  0.00  0.00    +0.000 A 
ATOM     17  C   UNL     1       1.300  16.173  18.386  0.00  0.00    +0.000 A 
ATOM     18  N   UNL     1       1.523  14.788  18.490  0.00  0.00    +0.000 N 
ATOM     19  C   UNL     1       0.542  14.236  19.268  0.00  0.00    +0.000 A 
ATOM     20  C   UNL     1       0.372  13.023  19.929  0.00  0.00    +0.000 A 
ATOM     21  C   UNL     1      -0.842  16.597  21.730  0.00  0.00    +0.000 C 
ATOM     22  O   UNL     1      -0.811  17.809  21.510  0.00  0.00    +0.000 OA
ATOM     23  N   UNL     1      -1.038  16.067  22.978  0.00  0.00    +0.000 N 
ATOM     24  C   UNL     1      -0.837  14.731  23.103  0.00  0.00    +0.000 C 
ATOM     25  O   UNL     1      -0.820  14.159  24.198  0.00  0.00    +0.000 OA
ATOM     26  H   UNL     1       2.312  14.329  18.061  0.00  0.00    +0.000 HD
ATOM     27  H   UNL     1      -1.154  16.655  23.785  0.00  0.00    +0.000 HD
ENDROOT
BRANCH   1  28
ATOM     28  C   UNL     1       0.785  11.128  18.331  0.00  0.00    +0.000 C 
BRANCH  28  30
ATOM     29  C   UNL     1       1.916   8.916  17.813  0.00  0.00    +0.000 C 
ATOM     30  C   UNL     1       2.103  10.375  18.188  0.00  0.00    +0.000 C 
ENDBRANCH  28  30
ENDBRANCH   1  28
TORSDOF 2
ENDMDL
