MODEL 1
REMARK VINA RESULT:      -8.4      0.000      0.000
REMARK  Name = 
REMARK  6 active torsions:
REMARK  status: ('A' for Active; 'I' for Inactive)
REMARK    1  A    between atoms: O_1  and  C_2
REMARK    2  A    between atoms: C_2  and  C_3
REMARK    3  A    between atoms: C_2  and  C_19
REMARK    4  A    between atoms: C_3  and  C_4
REMARK    5  A    between atoms: C_4  and  C_5
REMARK    6  A    between atoms: C_5  and  N_6
REMARK                            x       y       z     vdW  Elec       q    Type
REMARK                         _______ _______ _______ _____ _____    ______ ____
ROOT
ATOM      1  C   UNL     1       8.870   9.474  18.793  0.00  0.00    +0.000 C 
ENDROOT
BRANCH   1   2
ATOM      2  C   UNL     1       9.126  10.905  18.272  0.00  0.00    +0.000 C 
BRANCH   2   3
ATOM      3  C   UNL     1       9.196  11.938  19.383  0.00  0.00    +0.000 A 
ATOM      4  C   UNL     1       9.711  11.540  20.634  0.00  0.00    +0.000 A 
ATOM      5  C   UNL     1       9.848  12.447  21.676  0.00  0.00    +0.000 A 
ATOM      6  C   UNL     1       9.455  13.762  21.484  0.00  0.00    +0.000 A 
ATOM      7  F   UNL     1       9.605  14.620  22.507  0.00  0.00    +0.000 F 
ATOM      8  C   UNL     1       8.924  14.206  20.266  0.00  0.00    +0.000 A 
ATOM      9  C   UNL     1       8.543  15.549  20.109  0.00  0.00    +0.000 A 
ATOM     10  C   UNL     1       8.021  16.015  18.906  0.00  0.00    +0.000 A 
ATOM     11  C   UNL     1       7.869  15.138  17.842  0.00  0.00    +0.000 A 
ATOM     12  C   UNL     1       8.239  13.797  17.982  0.00  0.00    +0.000 A 
ATOM     13  C   UNL     1       8.781  13.292  19.190  0.00  0.00    +0.000 A 
ENDBRANCH   2   3
BRANCH   2  14
ATOM     14  O   UNL     1      10.361  10.937  17.543  0.00  0.00    +0.000 OA
ATOM     15  H   UNL     1      10.464  11.837  17.191  0.00  0.00    +0.000 HD
ENDBRANCH   2  14
ENDBRANCH   1   2
BRANCH   1  16
ATOM     16  C   UNL     1       8.076   8.688  17.746  0.00  0.00    +0.000 C 
BRANCH  16  17
ATOM     17  C   UNL     1       7.862   7.201  18.045  0.00  0.00    +0.000 C 
BRANCH  17  18
ATOM     18  N   UNL     1       7.054   6.599  16.967  0.00  0.00    +0.000 NA
ATOM     19  C   UNL     1       7.014   5.113  17.008  0.00  0.00    +0.000 C 
ATOM     20  C   UNL     1       6.201   4.511  18.172  0.00  0.00    +0.000 C 
ATOM     21  N   UNL     1       4.850   5.055  18.135  0.00  0.00    +0.000 N 
ATOM     22  C   UNL     1       3.760   4.242  18.260  0.00  0.00    +0.000 A 
ATOM     23  N   UNL     1       3.951   2.927  18.490  0.00  0.00    +0.000 NA
ATOM     24  C   UNL     1       2.863   2.131  18.559  0.00  0.00    +0.000 A 
ATOM     25  C   UNL     1       1.587   2.593  18.399  0.00  0.00    +0.000 A 
ATOM     26  F   UNL     1       0.522   1.787  18.458  0.00  0.00    +0.000 F 
ATOM     27  C   UNL     1       1.472   3.937  18.172  0.00  0.00    +0.000 A 
ATOM     28  N   UNL     1       2.532   4.772  18.108  0.00  0.00    +0.000 NA
ATOM     29  C   UNL     1       4.727   6.509  18.071  0.00  0.00    +0.000 C 
ATOM     30  C   UNL     1       5.653   7.087  16.970  0.00  0.00    +0.000 C 
ENDBRANCH  17  18
ENDBRANCH  16  17
ENDBRANCH   1  16
TORSDOF 6
ENDMDL
MODEL 2
REMARK VINA RESULT:      -8.1      7.415     11.094
REMARK  Name = 
REMARK  6 active torsions:
REMARK  status: ('A' for Active; 'I' for Inactive)
REMARK    1  A    between atoms: O_1  and  C_2
REMARK    2  A    between atoms: C_2  and  C_3
REMARK    3  A    between atoms: C_2  and  C_19
REMARK    4  A    between atoms: C_3  and  C_4
REMARK    5  A    between atoms: C_4  and  C_5
REMARK    6  A    between atoms: C_5  and  N_6
REMARK                            x       y       z     vdW  Elec       q    Type
REMARK                         _______ _______ _______ _____ _____    ______ ____
ROOT
ATOM      1  C   UNL     1       2.592   8.741  18.065  0.00  0.00    +0.000 C 
ENDROOT
BRANCH   1   2
ATOM      2  C   UNL     1       2.268   7.341  18.629  0.00  0.00    +0.000 C 
BRANCH   2   3
ATOM      3  C   UNL     1       3.069   6.233  17.967  0.00  0.00    +0.000 A 
ATOM      4  C   UNL     1       4.238   6.585  17.260  0.00  0.00    +0.000 A 
ATOM      5  C   UNL     1       5.041   5.618  16.673  0.00  0.00    +0.000 A 
ATOM      6  C   UNL     1       4.677   4.285  16.773  0.00  0.00    +0.000 A 
ATOM      7  F   UNL     1       5.477   3.368  16.201  0.00  0.00    +0.000 F 
ATOM      8  C   UNL     1       3.520   3.883  17.452  0.00  0.00    +0.000 A 
ATOM      9  C   UNL     1       3.188   2.519  17.536  0.00  0.00    +0.000 A 
ATOM     10  C   UNL     1       2.047   2.096  18.212  0.00  0.00    +0.000 A 
ATOM     11  C   UNL     1       1.219   3.033  18.811  0.00  0.00    +0.000 A 
ATOM     12  C   UNL     1       1.532   4.394  18.733  0.00  0.00    +0.000 A 
ATOM     13  C   UNL     1       2.689   4.859  18.059  0.00  0.00    +0.000 A 
ENDBRANCH   2   3
BRANCH   2  14
ATOM     14  O   UNL     1       2.538   7.316  20.038  0.00  0.00    +0.000 OA
ATOM     15  H   UNL     1       2.030   6.578  20.415  0.00  0.00    +0.000 HD
ENDBRANCH   2  14
ENDBRANCH   1   2
BRANCH   1  16
ATOM     16  C   UNL     1       1.288   9.511  17.841  0.00  0.00    +0.000 C 
BRANCH  16  17
ATOM     17  C   UNL     1       0.880  10.478  18.958  0.00  0.00    +0.000 C 
BRANCH  17  18
ATOM     18  N   UNL     1      -0.362   9.994  19.590  0.00  0.00    +0.000 NA
ATOM     19  C   UNL     1      -0.366  10.116  21.072  0.00  0.00    +0.000 C 
ATOM     20  C   UNL     1      -0.464  11.559  21.610  0.00  0.00    +0.000 C 
ATOM     21  N   UNL     1      -1.646  12.194  21.045  0.00  0.00    +0.000 N 
ATOM     22  C   UNL     1      -2.514  12.896  21.833  0.00  0.00    +0.000 A 
ATOM     23  N   UNL     1      -2.223  13.055  23.140  0.00  0.00    +0.000 NA
ATOM     24  C   UNL     1      -3.117  13.708  23.914  0.00  0.00    +0.000 A 
ATOM     25  C   UNL     1      -4.298  14.203  23.436  0.00  0.00    +0.000 A 
ATOM     26  F   UNL     1      -5.177  14.835  24.220  0.00  0.00    +0.000 F 
ATOM     27  C   UNL     1      -4.521  14.007  22.101  0.00  0.00    +0.000 A 
ATOM     28  N   UNL     1      -3.649  13.371  21.288  0.00  0.00    +0.000 NA
ATOM     29  C   UNL     1      -1.794  12.137  19.593  0.00  0.00    +0.000 C 
ATOM     30  C   UNL     1      -1.567  10.692  19.078  0.00  0.00    +0.000 C 
ENDBRANCH  17  18
ENDBRANCH  16  17
ENDBRANCH   1  16
TORSDOF 6
ENDMDL
MODEL 3
REMARK VINA RESULT:      -7.9      7.529     11.178
REMARK  Name = 
REMARK  6 active torsions:
REMARK  status: ('A' for Active; 'I' for Inactive)
REMARK    1  A    between atoms: O_1  and  C_2
REMARK    2  A    between atoms: C_2  and  C_3
REMARK    3  A    between atoms: C_2  and  C_19
REMARK    4  A    between atoms: C_3  and  C_4
REMARK    5  A    between atoms: C_4  and  C_5
REMARK    6  A    between atoms: C_5  and  N_6
REMARK                            x       y       z     vdW  Elec       q    Type
REMARK                         _______ _______ _______ _____ _____    ______ ____
ROOT
ATOM      1  C   UNL     1       2.070   8.602  17.876  0.00  0.00    +0.000 C 
ENDROOT
BRANCH   1   2
ATOM      2  C   UNL     1       2.077   7.249  18.620  0.00  0.00    +0.000 C 
BRANCH   2   3
ATOM      3  C   UNL     1       2.963   6.209  17.957  0.00  0.00    +0.000 A 
ATOM      4  C   UNL     1       4.118   6.651  17.278  0.00  0.00    +0.000 A 
ATOM      5  C   UNL     1       4.996   5.750  16.692  0.00  0.00    +0.000 A 
ATOM      6  C   UNL     1       4.720   4.394  16.765  0.00  0.00    +0.000 A 
ATOM      7  F   UNL     1       5.591   3.543  16.195  0.00  0.00    +0.000 F 
ATOM      8  C   UNL     1       3.580   3.903  17.414  0.00  0.00    +0.000 A 
ATOM      9  C   UNL     1       3.340   2.520  17.470  0.00  0.00    +0.000 A 
ATOM     10  C   UNL     1       2.218   2.009  18.117  0.00  0.00    +0.000 A 
ATOM     11  C   UNL     1       1.317   2.879  18.714  0.00  0.00    +0.000 A 
ATOM     12  C   UNL     1       1.539   4.258  18.663  0.00  0.00    +0.000 A 
ATOM     13  C   UNL     1       2.674   4.812  18.020  0.00  0.00    +0.000 A 
ENDBRANCH   2   3
BRANCH   2  14
ATOM     14  O   UNL     1       2.534   7.444  19.966  0.00  0.00    +0.000 OA
ATOM     15  H   UNL     1       2.730   8.391  20.069  0.00  0.00    +0.000 HD
ENDBRANCH   2  14
ENDBRANCH   1   2
BRANCH   1  16
ATOM     16  C   UNL     1       1.482   9.680  18.789  0.00  0.00    +0.000 C 
BRANCH  16  17
ATOM     17  C   UNL     1       0.146  10.282  18.342  0.00  0.00    +0.000 C 
BRANCH  17  18
ATOM     18  N   UNL     1       0.094  11.702  18.737  0.00  0.00    +0.000 NA
ATOM     19  C   UNL     1      -1.198  12.365  18.420  0.00  0.00    +0.000 C 
ATOM     20  C   UNL     1      -2.395  11.916  19.284  0.00  0.00    +0.000 C 
ATOM     21  N   UNL     1      -2.059  12.103  20.688  0.00  0.00    +0.000 N 
ATOM     22  C   UNL     1      -2.935  12.702  21.548  0.00  0.00    +0.000 A 
ATOM     23  N   UNL     1      -4.153  13.059  21.093  0.00  0.00    +0.000 NA
ATOM     24  C   UNL     1      -4.986  13.696  21.943  0.00  0.00    +0.000 A 
ATOM     25  C   UNL     1      -4.649  14.001  23.232  0.00  0.00    +0.000 A 
ATOM     26  F   UNL     1      -5.482  14.644  24.056  0.00  0.00    +0.000 F 
ATOM     27  C   UNL     1      -3.399  13.605  23.623  0.00  0.00    +0.000 A 
ATOM     28  N   UNL     1      -2.539  12.954  22.809  0.00  0.00    +0.000 NA
ATOM     29  C   UNL     1      -0.800  11.523  21.148  0.00  0.00    +0.000 C 
ATOM     30  C   UNL     1       0.357  11.897  20.184  0.00  0.00    +0.000 C 
ENDBRANCH  17  18
ENDBRANCH  16  17
ENDBRANCH   1  16
TORSDOF 6
ENDMDL
MODEL 4
REMARK VINA RESULT:      -7.9      7.097     11.267
REMARK  Name = 
REMARK  6 active torsions:
REMARK  status: ('A' for Active; 'I' for Inactive)
REMARK    1  A    between atoms: O_1  and  C_2
REMARK    2  A    between atoms: C_2  and  C_3
REMARK    3  A    between atoms: C_2  and  C_19
REMARK    4  A    between atoms: C_3  and  C_4
REMARK    5  A    between atoms: C_4  and  C_5
REMARK    6  A    between atoms: C_5  and  N_6
REMARK                            x       y       z     vdW  Elec       q    Type
REMARK                         _______ _______ _______ _____ _____    ______ ____
ROOT
ATOM      1  C   UNL     1       2.527   8.566  18.087  0.00  0.00    +0.000 C 
ENDROOT
BRANCH   1   2
ATOM      2  C   UNL     1       2.267   7.162  18.674  0.00  0.00    +0.000 C 
BRANCH   2   3
ATOM      3  C   UNL     1       3.081   6.074  17.996  0.00  0.00    +0.000 A 
ATOM      4  C   UNL     1       4.249   6.449  17.300  0.00  0.00    +0.000 A 
ATOM      5  C   UNL     1       5.065   5.499  16.700  0.00  0.00    +0.000 A 
ATOM      6  C   UNL     1       4.713   4.161  16.776  0.00  0.00    +0.000 A 
ATOM      7  F   UNL     1       5.523   3.262  16.192  0.00  0.00    +0.000 F 
ATOM      8  C   UNL     1       3.556   3.736  17.443  0.00  0.00    +0.000 A 
ATOM      9  C   UNL     1       3.237   2.369  17.502  0.00  0.00    +0.000 A 
ATOM     10  C   UNL     1       2.098   1.923  18.166  0.00  0.00    +0.000 A 
ATOM     11  C   UNL     1       1.258   2.842  18.777  0.00  0.00    +0.000 A 
ATOM     12  C   UNL     1       1.558   4.207  18.724  0.00  0.00    +0.000 A 
ATOM     13  C   UNL     1       2.714   4.695  18.064  0.00  0.00    +0.000 A 
ENDBRANCH   2   3
BRANCH   2  14
ATOM     14  O   UNL     1       2.583   7.161  20.073  0.00  0.00    +0.000 OA
ATOM     15  H   UNL     1       3.490   6.825  20.163  0.00  0.00    +0.000 HD
ENDBRANCH   2  14
ENDBRANCH   1   2
BRANCH   1  16
ATOM     16  C   UNL     1       1.241   9.393  18.160  0.00  0.00    +0.000 C 
BRANCH  16  17
ATOM     17  C   UNL     1       0.982  10.113  19.488  0.00  0.00    +0.000 C 
BRANCH  17  18
ATOM     18  N   UNL     1       0.175  11.322  19.236  0.00  0.00    +0.000 NA
ATOM     19  C   UNL     1      -1.162  11.295  19.886  0.00  0.00    +0.000 C 
ATOM     20  C   UNL     1      -1.145  11.431  21.423  0.00  0.00    +0.000 C 
ATOM     21  N   UNL     1      -0.430  12.648  21.782  0.00  0.00    +0.000 N 
ATOM     22  C   UNL     1      -0.940  13.520  22.701  0.00  0.00    +0.000 A 
ATOM     23  N   UNL     1      -2.090  13.205  23.329  0.00  0.00    +0.000 NA
ATOM     24  C   UNL     1      -2.606  14.103  24.196  0.00  0.00    +0.000 A 
ATOM     25  C   UNL     1      -2.023  15.311  24.456  0.00  0.00    +0.000 A 
ATOM     26  F   UNL     1      -2.555  16.193  25.307  0.00  0.00    +0.000 F 
ATOM     27  C   UNL     1      -0.858  15.559  23.784  0.00  0.00    +0.000 A 
ATOM     28  N   UNL     1      -0.300  14.684  22.918  0.00  0.00    +0.000 NA
ATOM     29  C   UNL     1       0.897  12.827  21.199  0.00  0.00    +0.000 C 
ATOM     30  C   UNL     1       0.863  12.562  19.672  0.00  0.00    +0.000 C 
ENDBRANCH  17  18
ENDBRANCH  16  17
ENDBRANCH   1  16
TORSDOF 6
ENDMDL
MODEL 5
REMARK VINA RESULT:      -7.8      7.001     11.227
REMARK  Name = 
REMARK  6 active torsions:
REMARK  status: ('A' for Active; 'I' for Inactive)
REMARK    1  A    between atoms: O_1  and  C_2
REMARK    2  A    between atoms: C_2  and  C_3
REMARK    3  A    between atoms: C_2  and  C_19
REMARK    4  A    between atoms: C_3  and  C_4
REMARK    5  A    between atoms: C_4  and  C_5
REMARK    6  A    between atoms: C_5  and  N_6
REMARK                            x       y       z     vdW  Elec       q    Type
REMARK                         _______ _______ _______ _____ _____    ______ ____
ROOT
ATOM      1  C   UNL     1       2.475   8.672  18.172  0.00  0.00    +0.000 C 
ENDROOT
BRANCH   1   2
ATOM      2  C   UNL     1       2.207   7.270  18.758  0.00  0.00    +0.000 C 
BRANCH   2   3
ATOM      3  C   UNL     1       3.003   6.175  18.070  0.00  0.00    +0.000 A 
ATOM      4  C   UNL     1       4.156   6.542  17.345  0.00  0.00    +0.000 A 
ATOM      5  C   UNL     1       4.955   5.585  16.734  0.00  0.00    +0.000 A 
ATOM      6  C   UNL     1       4.601   4.249  16.827  0.00  0.00    +0.000 A 
ATOM      7  F   UNL     1       5.396   3.344  16.231  0.00  0.00    +0.000 F 
ATOM      8  C   UNL     1       3.459   3.832  17.523  0.00  0.00    +0.000 A 
ATOM      9  C   UNL     1       3.138   2.466  17.599  0.00  0.00    +0.000 A 
ATOM     10  C   UNL     1       2.013   2.028  18.292  0.00  0.00    +0.000 A 
ATOM     11  C   UNL     1       1.190   2.954  18.916  0.00  0.00    +0.000 A 
ATOM     12  C   UNL     1       1.492   4.317  18.846  0.00  0.00    +0.000 A 
ATOM     13  C   UNL     1       2.633   4.797  18.156  0.00  0.00    +0.000 A 
ENDBRANCH   2   3
BRANCH   2  14
ATOM     14  O   UNL     1       2.537   7.262  20.155  0.00  0.00    +0.000 OA
ATOM     15  H   UNL     1       2.153   6.456  20.537  0.00  0.00    +0.000 HD
ENDBRANCH   2  14
ENDBRANCH   1   2
BRANCH   1  16
ATOM     16  C   UNL     1       1.143   9.338  17.820  0.00  0.00    +0.000 C 
BRANCH  16  17
ATOM     17  C   UNL     1       0.320   9.859  19.003  0.00  0.00    +0.000 C 
BRANCH  17  18
ATOM     18  N   UNL     1       1.060  10.947  19.669  0.00  0.00    +0.000 NA
ATOM     19  C   UNL     1       0.624  12.307  19.256  0.00  0.00    +0.000 C 
ATOM     20  C   UNL     1      -0.771  12.730  19.761  0.00  0.00    +0.000 C 
ATOM     21  N   UNL     1      -0.805  12.604  21.211  0.00  0.00    +0.000 N 
ATOM     22  C   UNL     1      -1.311  13.604  21.994  0.00  0.00    +0.000 A 
ATOM     23  N   UNL     1      -1.845  14.689  21.398  0.00  0.00    +0.000 NA
ATOM     24  C   UNL     1      -2.292  15.689  22.187  0.00  0.00    +0.000 A 
ATOM     25  C   UNL     1      -2.220  15.654  23.552  0.00  0.00    +0.000 A 
ATOM     26  F   UNL     1      -2.656  16.660  24.316  0.00  0.00    +0.000 F 
ATOM     27  C   UNL     1      -1.668  14.521  24.083  0.00  0.00    +0.000 A 
ATOM     28  N   UNL     1      -1.220  13.491  23.331  0.00  0.00    +0.000 NA
ATOM     29  C   UNL     1      -0.382  11.324  21.772  0.00  0.00    +0.000 C 
ATOM     30  C   UNL     1       0.964  10.873  21.148  0.00  0.00    +0.000 C 
ENDBRANCH  17  18
ENDBRANCH  16  17
ENDBRANCH   1  16
TORSDOF 6
ENDMDL
MODEL 6
REMARK VINA RESULT:      -7.7      6.780     10.832
REMARK  Name = 
REMARK  6 active torsions:
REMARK  status: ('A' for Active; 'I' for Inactive)
REMARK    1  A    between atoms: O_1  and  C_2
REMARK    2  A    between atoms: C_2  and  C_3
REMARK    3  A    between atoms: C_2  and  C_19
REMARK    4  A    between atoms: C_3  and  C_4
REMARK    5  A    between atoms: C_4  and  C_5
REMARK    6  A    between atoms: C_5  and  N_6
REMARK                            x       y       z     vdW  Elec       q    Type
REMARK                         _______ _______ _______ _____ _____    ______ ____
ROOT
ATOM      1  C   UNL     1       2.054   7.606  18.172  0.00  0.00    +0.000 C 
ENDROOT
BRANCH   1   2
ATOM      2  C   UNL     1       3.465   6.991  18.297  0.00  0.00    +0.000 C 
BRANCH   2   3
ATOM      3  C   UNL     1       3.472   5.481  18.132  0.00  0.00    +0.000 A 
ATOM      4  C   UNL     1       4.289   4.923  17.126  0.00  0.00    +0.000 A 
ATOM      5  C   UNL     1       4.379   3.549  16.954  0.00  0.00    +0.000 A 
ATOM      6  C   UNL     1       3.640   2.715  17.777  0.00  0.00    +0.000 A 
ATOM      7  F   UNL     1       3.751   1.388  17.593  0.00  0.00    +0.000 F 
ATOM      8  C   UNL     1       2.803   3.218  18.781  0.00  0.00    +0.000 A 
ATOM      9  C   UNL     1       2.074   2.337  19.599  0.00  0.00    +0.000 A 
ATOM     10  C   UNL     1       1.241   2.814  20.608  0.00  0.00    +0.000 A 
ATOM     11  C   UNL     1       1.125   4.181  20.810  0.00  0.00    +0.000 A 
ATOM     12  C   UNL     1       1.840   5.071  20.003  0.00  0.00    +0.000 A 
ATOM     13  C   UNL     1       2.701   4.620  18.971  0.00  0.00    +0.000 A 
ENDBRANCH   2   3
BRANCH   2  14
ATOM     14  O   UNL     1       4.327   7.561  17.302  0.00  0.00    +0.000 OA
ATOM     15  H   UNL     1       3.757   7.956  16.621  0.00  0.00    +0.000 HD
ENDBRANCH   2  14
ENDBRANCH   1   2
BRANCH   1  16
ATOM     16  C   UNL     1       2.171   9.043  17.659  0.00  0.00    +0.000 C 
BRANCH  16  17
ATOM     17  C   UNL     1       1.480  10.116  18.507  0.00  0.00    +0.000 C 
BRANCH  17  18
ATOM     18  N   UNL     1       0.205   9.583  19.022  0.00  0.00    +0.000 NA
ATOM     19  C   UNL     1       0.117   9.571  20.507  0.00  0.00    +0.000 C 
ATOM     20  C   UNL     1      -0.012  10.960  21.167  0.00  0.00    +0.000 C 
ATOM     21  N   UNL     1      -1.161  11.648  20.595  0.00  0.00    +0.000 N 
ATOM     22  C   UNL     1      -2.072  12.280  21.394  0.00  0.00    +0.000 A 
ATOM     23  N   UNL     1      -1.855  12.319  22.723  0.00  0.00    +0.000 NA
ATOM     24  C   UNL     1      -2.792  12.903  23.502  0.00  0.00    +0.000 A 
ATOM     25  C   UNL     1      -3.944  13.445  23.005  0.00  0.00    +0.000 A 
ATOM     26  F   UNL     1      -4.866  14.007  23.792  0.00  0.00    +0.000 F 
ATOM     27  C   UNL     1      -4.092  13.371  21.647  0.00  0.00    +0.000 A 
ATOM     28  N   UNL     1      -3.175  12.807  20.831  0.00  0.00    +0.000 NA
ATOM     29  C   UNL     1      -1.227  11.723  19.138  0.00  0.00    +0.000 C 
ATOM     30  C   UNL     1      -0.970  10.330  18.508  0.00  0.00    +0.000 C 
ENDBRANCH  17  18
ENDBRANCH  16  17
ENDBRANCH   1  16
TORSDOF 6
ENDMDL
MODEL 7
REMARK VINA RESULT:      -7.7      6.337      7.824
REMARK  Name = 
REMARK  6 active torsions:
REMARK  status: ('A' for Active; 'I' for Inactive)
REMARK    1  A    between atoms: O_1  and  C_2
REMARK    2  A    between atoms: C_2  and  C_3
REMARK    3  A    between atoms: C_2  and  C_19
REMARK    4  A    between atoms: C_3  and  C_4
REMARK    5  A    between atoms: C_4  and  C_5
REMARK    6  A    between atoms: C_5  and  N_6
REMARK                            x       y       z     vdW  Elec       q    Type
REMARK                         _______ _______ _______ _____ _____    ______ ____
ROOT
ATOM      1  C   UNL     1       0.921   4.534  19.799  0.00  0.00    +0.000 C 
ENDROOT
BRANCH   1   2
ATOM      2  C   UNL     1       2.182   5.368  20.112  0.00  0.00    +0.000 C 
BRANCH   2   3
ATOM      3  C   UNL     1       2.161   6.742  19.467  0.00  0.00    +0.000 A 
ATOM      4  C   UNL     1       2.792   6.903  18.215  0.00  0.00    +0.000 A 
ATOM      5  C   UNL     1       2.767   8.120  17.549  0.00  0.00    +0.000 A 
ATOM      6  C   UNL     1       2.125   9.198  18.135  0.00  0.00    +0.000 A 
ATOM      7  F   UNL     1       2.110  10.364  17.465  0.00  0.00    +0.000 F 
ATOM      8  C   UNL     1       1.495   9.097  19.383  0.00  0.00    +0.000 A 
ATOM      9  C   UNL     1       0.849  10.213  19.940  0.00  0.00    +0.000 A 
ATOM     10  C   UNL     1       0.210  10.133  21.175  0.00  0.00    +0.000 A 
ATOM     11  C   UNL     1       0.213   8.934  21.871  0.00  0.00    +0.000 A 
ATOM     12  C   UNL     1       0.856   7.814  21.332  0.00  0.00    +0.000 A 
ATOM     13  C   UNL     1       1.509   7.858  20.075  0.00  0.00    +0.000 A 
ENDBRANCH   2   3
BRANCH   2  14
ATOM     14  O   UNL     1       2.308   5.533  21.531  0.00  0.00    +0.000 OA
ATOM     15  H   UNL     1       2.377   4.645  21.919  0.00  0.00    +0.000 HD
ENDBRANCH   2  14
ENDBRANCH   1   2
BRANCH   1  16
ATOM     16  C   UNL     1       1.281   3.046  19.809  0.00  0.00    +0.000 C 
BRANCH  16  17
ATOM     17  C   UNL     1       2.504   2.658  20.646  0.00  0.00    +0.000 C 
BRANCH  17  18
ATOM     18  N   UNL     1       3.443   1.888  19.808  0.00  0.00    +0.000 NA
ATOM     19  C   UNL     1       3.081   1.869  18.366  0.00  0.00    +0.000 C 
ATOM     20  C   UNL     1       3.268   3.209  17.626  0.00  0.00    +0.000 C 
ATOM     21  N   UNL     1       4.644   3.655  17.798  0.00  0.00    +0.000 N 
ATOM     22  C   UNL     1       5.378   4.102  16.736  0.00  0.00    +0.000 A 
ATOM     23  N   UNL     1       4.787   4.191  15.528  0.00  0.00    +0.000 NA
ATOM     24  C   UNL     1       5.542   4.585  14.480  0.00  0.00    +0.000 A 
ATOM     25  C   UNL     1       6.871   4.887  14.588  0.00  0.00    +0.000 A 
ATOM     26  F   UNL     1       7.606   5.263  13.537  0.00  0.00    +0.000 F 
ATOM     27  C   UNL     1       7.399   4.777  15.845  0.00  0.00    +0.000 A 
ATOM     28  N   UNL     1       6.677   4.399  16.923  0.00  0.00    +0.000 NA
ATOM     29  C   UNL     1       5.153   3.707  19.166  0.00  0.00    +0.000 C 
ATOM     30  C   UNL     1       4.837   2.387  19.916  0.00  0.00    +0.000 C 
ENDBRANCH  17  18
ENDBRANCH  16  17
ENDBRANCH   1  16
TORSDOF 6
ENDMDL
MODEL 8
REMARK VINA RESULT:      -7.7      1.620      1.798
REMARK  Name = 
REMARK  6 active torsions:
REMARK  status: ('A' for Active; 'I' for Inactive)
REMARK    1  A    between atoms: O_1  and  C_2
REMARK    2  A    between atoms: C_2  and  C_3
REMARK    3  A    between atoms: C_2  and  C_19
REMARK    4  A    between atoms: C_3  and  C_4
REMARK    5  A    between atoms: C_4  and  C_5
REMARK    6  A    between atoms: C_5  and  N_6
REMARK                            x       y       z     vdW  Elec       q    Type
REMARK                         _______ _______ _______ _____ _____    ______ ____
ROOT
ATOM      1  C   UNL     1       8.183   9.909  17.650  0.00  0.00    +0.000 C 
ENDROOT
BRANCH   1   2
ATOM      2  C   UNL     1       9.320   9.718  18.676  0.00  0.00    +0.000 C 
BRANCH   2   3
ATOM      3  C   UNL     1       9.654  10.989  19.437  0.00  0.00    +0.000 A 
ATOM      4  C   UNL     1       9.185  11.118  20.761  0.00  0.00    +0.000 A 
ATOM      5  C   UNL     1       9.495  12.232  21.528  0.00  0.00    +0.000 A 
ATOM      6  C   UNL     1      10.267  13.241  20.974  0.00  0.00    +0.000 A 
ATOM      7  F   UNL     1      10.558  14.305  21.742  0.00  0.00    +0.000 F 
ATOM      8  C   UNL     1      10.746  13.169  19.660  0.00  0.00    +0.000 A 
ATOM      9  C   UNL     1      11.531  14.211  19.137  0.00  0.00    +0.000 A 
ATOM     10  C   UNL     1      12.025  14.158  17.836  0.00  0.00    +0.000 A 
ATOM     11  C   UNL     1      11.736  13.061  17.039  0.00  0.00    +0.000 A 
ATOM     12  C   UNL     1      10.952  12.018  17.542  0.00  0.00    +0.000 A 
ATOM     13  C   UNL     1      10.440  12.036  18.863  0.00  0.00    +0.000 A 
ENDBRANCH   2   3
BRANCH   2  14
ATOM     14  O   UNL     1       8.948   8.706  19.623  0.00  0.00    +0.000 OA
ATOM     15  H   UNL     1       9.483   8.849  20.421  0.00  0.00    +0.000 HD
ENDBRANCH   2  14
ENDBRANCH   1   2
BRANCH   1  16
ATOM     16  C   UNL     1       7.242   8.703  17.706  0.00  0.00    +0.000 C 
BRANCH  16  17
ATOM     17  C   UNL     1       7.906   7.327  17.594  0.00  0.00    +0.000 C 
BRANCH  17  18
ATOM     18  N   UNL     1       7.176   6.512  16.605  0.00  0.00    +0.000 NA
ATOM     19  C   UNL     1       7.168   5.058  16.915  0.00  0.00    +0.000 C 
ATOM     20  C   UNL     1       6.303   4.652  18.126  0.00  0.00    +0.000 C 
ATOM     21  N   UNL     1       4.945   5.135  17.919  0.00  0.00    +0.000 N 
ATOM     22  C   UNL     1       3.868   4.322  18.134  0.00  0.00    +0.000 A 
ATOM     23  N   UNL     1       4.076   3.079  18.611  0.00  0.00    +0.000 NA
ATOM     24  C   UNL     1       3.004   2.273  18.769  0.00  0.00    +0.000 A 
ATOM     25  C   UNL     1       1.729   2.656  18.460  0.00  0.00    +0.000 A 
ATOM     26  F   UNL     1       0.681   1.839  18.610  0.00  0.00    +0.000 F 
ATOM     27  C   UNL     1       1.596   3.931  17.984  0.00  0.00    +0.000 A 
ATOM     28  N   UNL     1       2.639   4.775  17.823  0.00  0.00    +0.000 NA
ATOM     29  C   UNL     1       4.792   6.548  17.583  0.00  0.00    +0.000 C 
ATOM     30  C   UNL     1       5.766   6.946  16.444  0.00  0.00    +0.000 C 
ENDBRANCH  17  18
ENDBRANCH  16  17
ENDBRANCH   1  16
TORSDOF 6
ENDMDL
MODEL 9
REMARK VINA RESULT:      -7.6      6.926     10.949
REMARK  Name = 
REMARK  6 active torsions:
REMARK  status: ('A' for Active; 'I' for Inactive)
REMARK    1  A    between atoms: O_1  and  C_2
REMARK    2  A    between atoms: C_2  and  C_3
REMARK    3  A    between atoms: C_2  and  C_19
REMARK    4  A    between atoms: C_3  and  C_4
REMARK    5  A    between atoms: C_4  and  C_5
REMARK    6  A    between atoms: C_5  and  N_6
REMARK                            x       y       z     vdW  Elec       q    Type
REMARK                         _______ _______ _______ _____ _____    ______ ____
ROOT
ATOM      1  C   UNL     1       2.254   7.762  17.630  0.00  0.00    +0.000 C 
ENDROOT
BRANCH   1   2
ATOM      2  C   UNL     1       3.543   7.075  18.131  0.00  0.00    +0.000 C 
BRANCH   2   3
ATOM      3  C   UNL     1       3.497   5.562  18.007  0.00  0.00    +0.000 A 
ATOM      4  C   UNL     1       4.259   4.952  16.989  0.00  0.00    +0.000 A 
ATOM      5  C   UNL     1       4.300   3.571  16.852  0.00  0.00    +0.000 A 
ATOM      6  C   UNL     1       3.566   2.784  17.723  0.00  0.00    +0.000 A 
ATOM      7  F   UNL     1       3.629   1.449  17.573  0.00  0.00    +0.000 F 
ATOM      8  C   UNL     1       2.781   3.339  18.742  0.00  0.00    +0.000 A 
ATOM      9  C   UNL     1       2.055   2.505  19.610  0.00  0.00    +0.000 A 
ATOM     10  C   UNL     1       1.275   3.035  20.634  0.00  0.00    +0.000 A 
ATOM     11  C   UNL     1       1.209   4.410  20.802  0.00  0.00    +0.000 A 
ATOM     12  C   UNL     1       1.921   5.255  19.946  0.00  0.00    +0.000 A 
ATOM     13  C   UNL     1       2.731   4.749  18.897  0.00  0.00    +0.000 A 
ENDBRANCH   2   3
BRANCH   2  14
ATOM     14  O   UNL     1       4.667   7.559  17.382  0.00  0.00    +0.000 OA
ATOM     15  H   UNL     1       5.198   8.107  17.983  0.00  0.00    +0.000 HD
ENDBRANCH   2  14
ENDBRANCH   1   2
BRANCH   1  16
ATOM     16  C   UNL     1       1.870   8.886  18.595  0.00  0.00    +0.000 C 
BRANCH  16  17
ATOM     17  C   UNL     1       0.599   9.666  18.245  0.00  0.00    +0.000 C 
BRANCH  17  18
ATOM     18  N   UNL     1       0.734  11.057  18.718  0.00  0.00    +0.000 NA
ATOM     19  C   UNL     1      -0.437  11.915  18.397  0.00  0.00    +0.000 C 
ATOM     20  C   UNL     1      -1.719  11.599  19.195  0.00  0.00    +0.000 C 
ATOM     21  N   UNL     1      -1.416  11.664  20.618  0.00  0.00    +0.000 N 
ATOM     22  C   UNL     1      -2.232  12.338  21.482  0.00  0.00    +0.000 A 
ATOM     23  N   UNL     1      -3.367  12.889  21.009  0.00  0.00    +0.000 NA
ATOM     24  C   UNL     1      -4.135  13.596  21.867  0.00  0.00    +0.000 A 
ATOM     25  C   UNL     1      -3.809  13.782  23.181  0.00  0.00    +0.000 A 
ATOM     26  F   UNL     1      -4.575  14.496  24.012  0.00  0.00    +0.000 F 
ATOM     27  C   UNL     1      -2.645  13.190  23.588  0.00  0.00    +0.000 A 
ATOM     28  N   UNL     1      -1.854  12.465  22.767  0.00  0.00    +0.000 NA
ATOM     29  C   UNL     1      -0.272  10.885  21.084  0.00  0.00    +0.000 C 
ATOM     30  C   UNL     1       0.964  11.137  20.181  0.00  0.00    +0.000 C 
ENDBRANCH  17  18
ENDBRANCH  16  17
ENDBRANCH   1  16
TORSDOF 6
ENDMDL
