MODEL 1
REMARK VINA RESULT:      -7.2      0.000      0.000
REMARK  Name = 
REMARK  6 active torsions:
REMARK  status: ('A' for Active; 'I' for Inactive)
REMARK    1  A    between atoms: C_1  and  O_2
REMARK    2  A    between atoms: O_2  and  C_3
REMARK    3  A    between atoms: C_11  and  C_12
REMARK    4  A    between atoms: C_14  and  C_15
REMARK    5  A    between atoms: C_17  and  C_18
REMARK    6  A    between atoms: C_23  and  C_24
REMARK                            x       y       z     vdW  Elec       q    Type
REMARK                         _______ _______ _______ _____ _____    ______ ____
ROOT
ATOM      1  C   UNL     1       1.578   7.391  20.160  0.00  0.00    +0.000 A 
ATOM      2  C   UNL     1       1.888   8.352  19.189  0.00  0.00    +0.000 A 
ATOM      3  C   UNL     1       2.672   7.999  18.108  0.00  0.00    +0.000 A 
ATOM      4  F   UNL     1       2.981   8.923  17.193  0.00  0.00    +0.000 F 
ATOM      5  C   UNL     1       3.165   6.712  17.969  0.00  0.00    +0.000 A 
ATOM      6  C   UNL     1       3.019   5.799  19.008  0.00  0.00    +0.000 A 
ATOM      7  C   UNL     1       2.167   6.096  20.091  0.00  0.00    +0.000 A 
ATOM      8  N   UNL     1       1.873   5.162  21.101  0.00  0.00    +0.000 NA
ATOM      9  C   UNL     1       2.445   3.992  21.097  0.00  0.00    +0.000 A 
ATOM     10  C   UNL     1       2.068   3.016  22.170  0.00  0.00    +0.000 C 
ATOM     11  C   UNL     1       3.420   3.654  20.090  0.00  0.00    +0.000 A 
ATOM     12  C   UNL     1       4.212   2.547  19.857  0.00  0.00    +0.000 A 
ATOM     13  C   UNL     1       4.352   1.242  20.546  0.00  0.00    +0.000 C 
ATOM     14  N   UNL     1       5.027   2.787  18.781  0.00  0.00    +0.000 NA
ATOM     15  C   UNL     1       4.789   4.017  18.350  0.00  0.00    +0.000 A 
ATOM     16  N   UNL     1       3.722   4.558  19.081  0.00  0.00    +0.000 N 
ENDROOT
BRANCH  15  17
ATOM     17  C   UNL     1       5.624   4.646  17.300  0.00  0.00    +0.000 A 
ATOM     18  C   UNL     1       5.298   4.500  15.946  0.00  0.00    +0.000 A 
ATOM     19  C   UNL     1       6.160   4.981  14.973  0.00  0.00    +0.000 A 
ATOM     20  N   UNL     1       7.235   5.733  15.248  0.00  0.00    +0.000 NA
ATOM     21  C   UNL     1       7.470   5.989  16.553  0.00  0.00    +0.000 A 
ATOM     22  C   UNL     1       6.735   5.456  17.615  0.00  0.00    +0.000 A 
ATOM     23  C   UNL     1       7.185   5.757  19.017  0.00  0.00    +0.000 C 
ENDBRANCH  15  17
BRANCH   1  25
ATOM     24  C   UNL     1       0.661   9.039  21.574  0.00  0.00    +0.000 C 
ATOM     25  O   UNL     1       0.764   7.663  21.228  0.00  0.00    +0.000 OA
ENDBRANCH   1  25
TORSDOF 2
ENDMDL
MODEL 2
REMARK VINA RESULT:      -7.1      0.677      1.447
REMARK  Name = 
REMARK  6 active torsions:
REMARK  status: ('A' for Active; 'I' for Inactive)
REMARK    1  A    between atoms: C_1  and  O_2
REMARK    2  A    between atoms: O_2  and  C_3
REMARK    3  A    between atoms: C_11  and  C_12
REMARK    4  A    between atoms: C_14  and  C_15
REMARK    5  A    between atoms: C_17  and  C_18
REMARK    6  A    between atoms: C_23  and  C_24
REMARK                            x       y       z     vdW  Elec       q    Type
REMARK                         _______ _______ _______ _____ _____    ______ ____
ROOT
ATOM      1  C   UNL     1       1.248   7.344  20.264  0.00  0.00    +0.000 A 
ATOM      2  C   UNL     1       1.627   8.409  19.437  0.00  0.00    +0.000 A 
ATOM      3  C   UNL     1       2.608   8.214  18.484  0.00  0.00    +0.000 A 
ATOM      4  F   UNL     1       2.981   9.238  17.709  0.00  0.00    +0.000 F 
ATOM      5  C   UNL     1       3.231   6.987  18.336  0.00  0.00    +0.000 A 
ATOM      6  C   UNL     1       2.997   5.976  19.261  0.00  0.00    +0.000 A 
ATOM      7  C   UNL     1       1.955   6.109  20.200  0.00  0.00    +0.000 A 
ATOM      8  N   UNL     1       1.582   5.068  21.071  0.00  0.00    +0.000 NA
ATOM      9  C   UNL     1       2.250   3.950  21.077  0.00  0.00    +0.000 A 
ATOM     10  C   UNL     1       1.789   2.856  21.992  0.00  0.00    +0.000 C 
ATOM     11  C   UNL     1       3.405   3.779  20.232  0.00  0.00    +0.000 A 
ATOM     12  C   UNL     1       4.322   2.761  20.056  0.00  0.00    +0.000 A 
ATOM     13  C   UNL     1       4.462   1.413  20.658  0.00  0.00    +0.000 C 
ATOM     14  N   UNL     1       5.278   3.158  19.158  0.00  0.00    +0.000 NA
ATOM     15  C   UNL     1       5.006   4.399  18.787  0.00  0.00    +0.000 A 
ATOM     16  N   UNL     1       3.788   4.790  19.361  0.00  0.00    +0.000 N 
ENDROOT
BRANCH  15  17
ATOM     17  C   UNL     1       5.943   5.182  17.948  0.00  0.00    +0.000 A 
ATOM     18  C   UNL     1       6.887   6.033  18.536  0.00  0.00    +0.000 A 
ATOM     19  C   UNL     1       7.664   6.857  17.739  0.00  0.00    +0.000 A 
ATOM     20  N   UNL     1       7.685   6.782  16.401  0.00  0.00    +0.000 NA
ATOM     21  C   UNL     1       6.872   5.860  15.840  0.00  0.00    +0.000 A 
ATOM     22  C   UNL     1       5.964   5.064  16.543  0.00  0.00    +0.000 A 
ATOM     23  C   UNL     1       5.057   4.156  15.762  0.00  0.00    +0.000 C 
ENDBRANCH  15  17
BRANCH   1  25
ATOM     24  C   UNL     1      -0.102   8.789  21.547  0.00  0.00    +0.000 C 
ATOM     25  O   UNL     1       0.246   7.456  21.192  0.00  0.00    +0.000 OA
ENDBRANCH   1  25
TORSDOF 2
ENDMDL
MODEL 3
REMARK VINA RESULT:      -6.7      2.268      4.281
REMARK  Name = 
REMARK  6 active torsions:
REMARK  status: ('A' for Active; 'I' for Inactive)
REMARK    1  A    between atoms: C_1  and  O_2
REMARK    2  A    between atoms: O_2  and  C_3
REMARK    3  A    between atoms: C_11  and  C_12
REMARK    4  A    between atoms: C_14  and  C_15
REMARK    5  A    between atoms: C_17  and  C_18
REMARK    6  A    between atoms: C_23  and  C_24
REMARK                            x       y       z     vdW  Elec       q    Type
REMARK                         _______ _______ _______ _____ _____    ______ ____
ROOT
ATOM      1  C   UNL     1       2.596   3.469  21.173  0.00  0.00    +0.000 A 
ATOM      2  C   UNL     1       3.450   2.413  20.831  0.00  0.00    +0.000 A 
ATOM      3  C   UNL     1       4.444   2.619  19.895  0.00  0.00    +0.000 A 
ATOM      4  F   UNL     1       5.246   1.604  19.557  0.00  0.00    +0.000 F 
ATOM      5  C   UNL     1       4.609   3.848  19.281  0.00  0.00    +0.000 A 
ATOM      6  C   UNL     1       3.664   4.850  19.473  0.00  0.00    +0.000 A 
ATOM      7  C   UNL     1       2.679   4.706  20.472  0.00  0.00    +0.000 A 
ATOM      8  N   UNL     1       1.782   5.737  20.805  0.00  0.00    +0.000 NA
ATOM      9  C   UNL     1       1.795   6.856  20.139  0.00  0.00    +0.000 A 
ATOM     10  C   UNL     1       0.849   7.940  20.559  0.00  0.00    +0.000 C 
ATOM     11  C   UNL     1       2.691   7.037  19.024  0.00  0.00    +0.000 A 
ATOM     12  C   UNL     1       2.898   8.059  18.118  0.00  0.00    +0.000 A 
ATOM     13  C   UNL     1       2.289   9.401  17.952  0.00  0.00    +0.000 C 
ATOM     14  N   UNL     1       3.843   7.673  17.203  0.00  0.00    +0.000 NA
ATOM     15  C   UNL     1       4.214   6.435  17.490  0.00  0.00    +0.000 A 
ATOM     16  N   UNL     1       3.588   6.036  18.681  0.00  0.00    +0.000 N 
ENDROOT
BRANCH  15  17
ATOM     17  C   UNL     1       5.102   5.662  16.592  0.00  0.00    +0.000 A 
ATOM     18  C   UNL     1       4.571   4.730  15.692  0.00  0.00    +0.000 A 
ATOM     19  C   UNL     1       5.421   3.921  14.954  0.00  0.00    +0.000 A 
ATOM     20  N   UNL     1       6.751   4.080  14.929  0.00  0.00    +0.000 NA
ATOM     21  C   UNL     1       7.251   5.073  15.695  0.00  0.00    +0.000 A 
ATOM     22  C   UNL     1       6.497   5.867  16.564  0.00  0.00    +0.000 A 
ATOM     23  C   UNL     1       7.217   6.865  17.425  0.00  0.00    +0.000 C 
ENDBRANCH  15  17
BRANCH   1  25
ATOM     24  C   UNL     1       1.090   2.037  22.285  0.00  0.00    +0.000 C 
ATOM     25  O   UNL     1       1.623   3.346  22.131  0.00  0.00    +0.000 OA
ENDBRANCH   1  25
TORSDOF 2
ENDMDL
MODEL 4
REMARK VINA RESULT:      -6.4      5.682      8.958
REMARK  Name = 
REMARK  6 active torsions:
REMARK  status: ('A' for Active; 'I' for Inactive)
REMARK    1  A    between atoms: C_1  and  O_2
REMARK    2  A    between atoms: O_2  and  C_3
REMARK    3  A    between atoms: C_11  and  C_12
REMARK    4  A    between atoms: C_14  and  C_15
REMARK    5  A    between atoms: C_17  and  C_18
REMARK    6  A    between atoms: C_23  and  C_24
REMARK                            x       y       z     vdW  Elec       q    Type
REMARK                         _______ _______ _______ _____ _____    ______ ____
ROOT
ATOM      1  C   UNL     1      -4.577  11.775  17.596  0.00  0.00    +0.000 A 
ATOM      2  C   UNL     1      -4.132  10.871  16.623  0.00  0.00    +0.000 A 
ATOM      3  C   UNL     1      -3.018  10.094  16.877  0.00  0.00    +0.000 A 
ATOM      4  F   UNL     1      -2.585   9.245  15.939  0.00  0.00    +0.000 F 
ATOM      5  C   UNL     1      -2.327  10.197  18.072  0.00  0.00    +0.000 A 
ATOM      6  C   UNL     1      -2.645  11.210  18.970  0.00  0.00    +0.000 A 
ATOM      7  C   UNL     1      -3.815  11.974  18.783  0.00  0.00    +0.000 A 
ATOM      8  N   UNL     1      -4.261  12.919  19.726  0.00  0.00    +0.000 NA
ATOM      9  C   UNL     1      -3.553  13.165  20.791  0.00  0.00    +0.000 A 
ATOM     10  C   UNL     1      -4.090  14.148  21.786  0.00  0.00    +0.000 C 
ATOM     11  C   UNL     1      -2.283  12.513  20.996  0.00  0.00    +0.000 A 
ATOM     12  C   UNL     1      -1.307  12.601  21.969  0.00  0.00    +0.000 A 
ATOM     13  C   UNL     1      -1.195  13.392  23.218  0.00  0.00    +0.000 C 
ATOM     14  N   UNL     1      -0.251  11.795  21.631  0.00  0.00    +0.000 NA
ATOM     15  C   UNL     1      -0.523  11.227  20.466  0.00  0.00    +0.000 A 
ATOM     16  N   UNL     1      -1.826  11.574  20.082  0.00  0.00    +0.000 N 
ENDROOT
BRANCH  15  17
ATOM     17  C   UNL     1       0.488  10.424  19.740  0.00  0.00    +0.000 A 
ATOM     18  C   UNL     1       1.170  10.961  18.640  0.00  0.00    +0.000 A 
ATOM     19  C   UNL     1       2.013  10.156  17.891  0.00  0.00    +0.000 A 
ATOM     20  N   UNL     1       2.349   8.908  18.248  0.00  0.00    +0.000 NA
ATOM     21  C   UNL     1       1.796   8.440  19.387  0.00  0.00    +0.000 A 
ATOM     22  C   UNL     1       0.845   9.123  20.151  0.00  0.00    +0.000 A 
ATOM     23  C   UNL     1       0.249   8.425  21.340  0.00  0.00    +0.000 C 
ENDBRANCH  15  17
BRANCH   1  25
ATOM     24  C   UNL     1      -6.919  11.912  17.825  0.00  0.00    +0.000 C 
ATOM     25  O   UNL     1      -5.704  12.537  17.430  0.00  0.00    +0.000 OA
ENDBRANCH   1  25
TORSDOF 2
ENDMDL
MODEL 5
REMARK VINA RESULT:      -6.4      7.901     10.636
REMARK  Name = 
REMARK  6 active torsions:
REMARK  status: ('A' for Active; 'I' for Inactive)
REMARK    1  A    between atoms: C_1  and  O_2
REMARK    2  A    between atoms: O_2  and  C_3
REMARK    3  A    between atoms: C_11  and  C_12
REMARK    4  A    between atoms: C_14  and  C_15
REMARK    5  A    between atoms: C_17  and  C_18
REMARK    6  A    between atoms: C_23  and  C_24
REMARK                            x       y       z     vdW  Elec       q    Type
REMARK                         _______ _______ _______ _____ _____    ______ ____
ROOT
ATOM      1  C   UNL     1      -5.794  13.076  22.386  0.00  0.00    +0.000 A 
ATOM      2  C   UNL     1      -4.882  13.372  23.408  0.00  0.00    +0.000 A 
ATOM      3  C   UNL     1      -3.534  13.439  23.117  0.00  0.00    +0.000 A 
ATOM      4  F   UNL     1      -2.665  13.704  24.098  0.00  0.00    +0.000 F 
ATOM      5  C   UNL     1      -3.063  13.211  21.836  0.00  0.00    +0.000 A 
ATOM      6  C   UNL     1      -3.929  12.742  20.854  0.00  0.00    +0.000 A 
ATOM      7  C   UNL     1      -5.319  12.730  21.089  0.00  0.00    +0.000 A 
ATOM      8  N   UNL     1      -6.253  12.395  20.091  0.00  0.00    +0.000 NA
ATOM      9  C   UNL     1      -5.845  12.016  18.914  0.00  0.00    +0.000 A 
ATOM     10  C   UNL     1      -6.878  11.710  17.872  0.00  0.00    +0.000 C 
ATOM     11  C   UNL     1      -4.437  11.886  18.631  0.00  0.00    +0.000 A 
ATOM     12  C   UNL     1      -3.716  11.470  17.528  0.00  0.00    +0.000 A 
ATOM     13  C   UNL     1      -4.114  11.013  16.175  0.00  0.00    +0.000 C 
ATOM     14  N   UNL     1      -2.379  11.475  17.829  0.00  0.00    +0.000 NA
ATOM     15  C   UNL     1      -2.241  11.855  19.090  0.00  0.00    +0.000 A 
ATOM     16  N   UNL     1      -3.498  12.215  19.598  0.00  0.00    +0.000 N 
ENDROOT
BRANCH  15  17
ATOM     17  C   UNL     1      -0.930  11.806  19.777  0.00  0.00    +0.000 A 
ATOM     18  C   UNL     1      -0.519  10.648  20.449  0.00  0.00    +0.000 A 
ATOM     19  C   UNL     1       0.647  10.662  21.197  0.00  0.00    +0.000 A 
ATOM     20  N   UNL     1       1.511  11.686  21.196  0.00  0.00    +0.000 NA
ATOM     21  C   UNL     1       1.178  12.751  20.435  0.00  0.00    +0.000 A 
ATOM     22  C   UNL     1      -0.025  12.888  19.738  0.00  0.00    +0.000 A 
ATOM     23  C   UNL     1      -0.290  14.179  19.017  0.00  0.00    +0.000 C 
ENDBRANCH  15  17
BRANCH   1  25
ATOM     24  C   UNL     1      -7.594  12.056  23.516  0.00  0.00    +0.000 C 
ATOM     25  O   UNL     1      -7.148  13.046  22.597  0.00  0.00    +0.000 OA
ENDBRANCH   1  25
TORSDOF 2
ENDMDL
MODEL 6
REMARK VINA RESULT:      -6.4      6.989      9.800
REMARK  Name = 
REMARK  6 active torsions:
REMARK  status: ('A' for Active; 'I' for Inactive)
REMARK    1  A    between atoms: C_1  and  O_2
REMARK    2  A    between atoms: O_2  and  C_3
REMARK    3  A    between atoms: C_11  and  C_12
REMARK    4  A    between atoms: C_14  and  C_15
REMARK    5  A    between atoms: C_17  and  C_18
REMARK    6  A    between atoms: C_23  and  C_24
REMARK                            x       y       z     vdW  Elec       q    Type
REMARK                         _______ _______ _______ _____ _____    ______ ____
ROOT
ATOM      1  C   UNL     1      -5.122  11.736  17.620  0.00  0.00    +0.000 A 
ATOM      2  C   UNL     1      -4.378  11.352  16.497  0.00  0.00    +0.000 A 
ATOM      3  C   UNL     1      -3.023  11.118  16.626  0.00  0.00    +0.000 A 
ATOM      4  F   UNL     1      -2.313  10.771  15.548  0.00  0.00    +0.000 F 
ATOM      5  C   UNL     1      -2.383  11.263  17.845  0.00  0.00    +0.000 A 
ATOM      6  C   UNL     1      -3.065  11.813  18.924  0.00  0.00    +0.000 A 
ATOM      7  C   UNL     1      -4.461  11.997  18.854  0.00  0.00    +0.000 A 
ATOM      8  N   UNL     1      -5.225  12.421  19.957  0.00  0.00    +0.000 NA
ATOM      9  C   UNL     1      -4.640  12.726  21.080  0.00  0.00    +0.000 A 
ATOM     10  C   UNL     1      -5.500  13.133  22.238  0.00  0.00    +0.000 C 
ATOM     11  C   UNL     1      -3.204  12.680  21.196  0.00  0.00    +0.000 A 
ATOM     12  C   UNL     1      -2.314  12.985  22.208  0.00  0.00    +0.000 A 
ATOM     13  C   UNL     1      -2.493  13.460  23.601  0.00  0.00    +0.000 C 
ATOM     14  N   UNL     1      -1.032  12.825  21.752  0.00  0.00    +0.000 NA
ATOM     15  C   UNL     1      -1.089  12.456  20.482  0.00  0.00    +0.000 A 
ATOM     16  N   UNL     1      -2.430  12.260  20.124  0.00  0.00    +0.000 N 
ENDROOT
BRANCH  15  17
ATOM     17  C   UNL     1       0.130  12.361  19.645  0.00  0.00    +0.000 A 
ATOM     18  C   UNL     1       0.718  13.512  19.107  0.00  0.00    +0.000 A 
ATOM     19  C   UNL     1       1.776  13.396  18.220  0.00  0.00    +0.000 A 
ATOM     20  N   UNL     1       2.392  12.236  17.955  0.00  0.00    +0.000 NA
ATOM     21  C   UNL     1       1.909  11.144  18.585  0.00  0.00    +0.000 A 
ATOM     22  C   UNL     1       0.776  11.131  19.404  0.00  0.00    +0.000 A 
ATOM     23  C   UNL     1       0.307   9.813  19.953  0.00  0.00    +0.000 C 
ENDBRANCH  15  17
BRANCH   1  25
ATOM     24  C   UNL     1      -6.889  13.149  16.959  0.00  0.00    +0.000 C 
ATOM     25  O   UNL     1      -6.478  11.932  17.571  0.00  0.00    +0.000 OA
ENDBRANCH   1  25
TORSDOF 2
ENDMDL
MODEL 7
REMARK VINA RESULT:      -6.3      9.984     11.925
REMARK  Name = 
REMARK  6 active torsions:
REMARK  status: ('A' for Active; 'I' for Inactive)
REMARK    1  A    between atoms: C_1  and  O_2
REMARK    2  A    between atoms: O_2  and  C_3
REMARK    3  A    between atoms: C_11  and  C_12
REMARK    4  A    between atoms: C_14  and  C_15
REMARK    5  A    between atoms: C_17  and  C_18
REMARK    6  A    between atoms: C_23  and  C_24
REMARK                            x       y       z     vdW  Elec       q    Type
REMARK                         _______ _______ _______ _____ _____    ______ ____
ROOT
ATOM      1  C   UNL     1       9.877  11.208  19.004  0.00  0.00    +0.000 A 
ATOM      2  C   UNL     1      10.387  11.500  17.732  0.00  0.00    +0.000 A 
ATOM      3  C   UNL     1      10.968  12.731  17.499  0.00  0.00    +0.000 A 
ATOM      4  F   UNL     1      11.437  13.013  16.279  0.00  0.00    +0.000 F 
ATOM      5  C   UNL     1      11.050  13.687  18.496  0.00  0.00    +0.000 A 
ATOM      6  C   UNL     1      10.392  13.484  19.705  0.00  0.00    +0.000 A 
ATOM      7  C   UNL     1       9.852  12.218  20.008  0.00  0.00    +0.000 A 
ATOM      8  N   UNL     1       9.296  11.913  21.265  0.00  0.00    +0.000 NA
ATOM      9  C   UNL     1       9.204  12.835  22.180  0.00  0.00    +0.000 A 
ATOM     10  C   UNL     1       8.644  12.451  23.516  0.00  0.00    +0.000 C 
ATOM     11  C   UNL     1       9.624  14.187  21.907  0.00  0.00    +0.000 A 
ATOM     12  C   UNL     1       9.606  15.361  22.635  0.00  0.00    +0.000 A 
ATOM     13  C   UNL     1       9.165  15.689  24.012  0.00  0.00    +0.000 C 
ATOM     14  N   UNL     1      10.070  16.388  21.855  0.00  0.00    +0.000 NA
ATOM     15  C   UNL     1      10.353  15.901  20.656  0.00  0.00    +0.000 A 
ATOM     16  N   UNL     1      10.180  14.509  20.677  0.00  0.00    +0.000 N 
ENDROOT
BRANCH  15  17
ATOM     17  C   UNL     1      10.721  16.784  19.526  0.00  0.00    +0.000 A 
ATOM     18  C   UNL     1      12.035  17.246  19.379  0.00  0.00    +0.000 A 
ATOM     19  C   UNL     1      12.333  18.176  18.396  0.00  0.00    +0.000 A 
ATOM     20  N   UNL     1      11.461  18.558  17.453  0.00  0.00    +0.000 NA
ATOM     21  C   UNL     1      10.231  18.004  17.515  0.00  0.00    +0.000 A 
ATOM     22  C   UNL     1       9.791  17.150  18.530  0.00  0.00    +0.000 A 
ATOM     23  C   UNL     1       8.359  16.696  18.511  0.00  0.00    +0.000 C 
ENDBRANCH  15  17
BRANCH   1  25
ATOM     24  C   UNL     1       8.552   9.395  18.288  0.00  0.00    +0.000 C 
ATOM     25  O   UNL     1       9.335   9.989  19.316  0.00  0.00    +0.000 OA
ENDBRANCH   1  25
TORSDOF 2
ENDMDL
MODEL 8
REMARK VINA RESULT:      -6.3      7.959     10.563
REMARK  Name = 
REMARK  6 active torsions:
REMARK  status: ('A' for Active; 'I' for Inactive)
REMARK    1  A    between atoms: C_1  and  O_2
REMARK    2  A    between atoms: O_2  and  C_3
REMARK    3  A    between atoms: C_11  and  C_12
REMARK    4  A    between atoms: C_14  and  C_15
REMARK    5  A    between atoms: C_17  and  C_18
REMARK    6  A    between atoms: C_23  and  C_24
REMARK                            x       y       z     vdW  Elec       q    Type
REMARK                         _______ _______ _______ _____ _____    ______ ____
ROOT
ATOM      1  C   UNL     1      -5.582  12.721  22.705  0.00  0.00    +0.000 A 
ATOM      2  C   UNL     1      -4.670  13.173  23.667  0.00  0.00    +0.000 A 
ATOM      3  C   UNL     1      -3.381  13.492  23.286  0.00  0.00    +0.000 A 
ATOM      4  F   UNL     1      -2.508  13.906  24.210  0.00  0.00    +0.000 F 
ATOM      5  C   UNL     1      -2.970  13.366  21.970  0.00  0.00    +0.000 A 
ATOM      6  C   UNL     1      -3.802  12.751  21.041  0.00  0.00    +0.000 A 
ATOM      7  C   UNL     1      -5.145  12.479  21.371  0.00  0.00    +0.000 A 
ATOM      8  N   UNL     1      -6.070  11.984  20.433  0.00  0.00    +0.000 NA
ATOM      9  C   UNL     1      -5.684  11.696  19.223  0.00  0.00    +0.000 A 
ATOM     10  C   UNL     1      -6.715  11.212  18.248  0.00  0.00    +0.000 C 
ATOM     11  C   UNL     1      -4.301  11.833  18.841  0.00  0.00    +0.000 A 
ATOM     12  C   UNL     1      -3.596  11.567  17.683  0.00  0.00    +0.000 A 
ATOM     13  C   UNL     1      -3.998  11.054  16.351  0.00  0.00    +0.000 C 
ATOM     14  N   UNL     1      -2.265  11.818  17.891  0.00  0.00    +0.000 NA
ATOM     15  C   UNL     1      -2.110  12.208  19.147  0.00  0.00    +0.000 A 
ATOM     16  N   UNL     1      -3.372  12.324  19.747  0.00  0.00    +0.000 N 
ENDROOT
BRANCH  15  17
ATOM     17  C   UNL     1      -0.767  12.398  19.741  0.00  0.00    +0.000 A 
ATOM     18  C   UNL     1      -0.169  13.664  19.764  0.00  0.00    +0.000 A 
ATOM     19  C   UNL     1       1.139  13.803  20.201  0.00  0.00    +0.000 A 
ATOM     20  N   UNL     1       1.837  12.806  20.762  0.00  0.00    +0.000 NA
ATOM     21  C   UNL     1       1.207  11.616  20.864  0.00  0.00    +0.000 A 
ATOM     22  C   UNL     1      -0.063  11.339  20.351  0.00  0.00    +0.000 A 
ATOM     23  C   UNL     1      -0.585   9.934  20.458  0.00  0.00    +0.000 C 
ENDBRANCH  15  17
BRANCH   1  25
ATOM     24  C   UNL     1      -7.450  13.224  24.051  0.00  0.00    +0.000 C 
ATOM     25  O   UNL     1      -6.888  12.438  23.007  0.00  0.00    +0.000 OA
ENDBRANCH   1  25
TORSDOF 2
ENDMDL
MODEL 9
REMARK VINA RESULT:      -6.2      8.535     11.381
REMARK  Name = 
REMARK  6 active torsions:
REMARK  status: ('A' for Active; 'I' for Inactive)
REMARK    1  A    between atoms: C_1  and  O_2
REMARK    2  A    between atoms: O_2  and  C_3
REMARK    3  A    between atoms: C_11  and  C_12
REMARK    4  A    between atoms: C_14  and  C_15
REMARK    5  A    between atoms: C_17  and  C_18
REMARK    6  A    between atoms: C_23  and  C_24
REMARK                            x       y       z     vdW  Elec       q    Type
REMARK                         _______ _______ _______ _____ _____    ______ ____
ROOT
ATOM      1  C   UNL     1      -2.789  10.229  17.081  0.00  0.00    +0.000 A 
ATOM      2  C   UNL     1      -1.457  10.032  17.466  0.00  0.00    +0.000 A 
ATOM      3  C   UNL     1      -1.012  10.553  18.666  0.00  0.00    +0.000 A 
ATOM      4  F   UNL     1       0.265  10.379  19.022  0.00  0.00    +0.000 F 
ATOM      5  C   UNL     1      -1.855  11.275  19.492  0.00  0.00    +0.000 A 
ATOM      6  C   UNL     1      -3.123  11.633  19.044  0.00  0.00    +0.000 A 
ATOM      7  C   UNL     1      -3.639  11.062  17.863  0.00  0.00    +0.000 A 
ATOM      8  N   UNL     1      -4.961  11.280  17.432  0.00  0.00    +0.000 NA
ATOM      9  C   UNL     1      -5.741  12.085  18.095  0.00  0.00    +0.000 A 
ATOM     10  C   UNL     1      -7.152  12.251  17.621  0.00  0.00    +0.000 C 
ATOM     11  C   UNL     1      -5.250  12.802  19.246  0.00  0.00    +0.000 A 
ATOM     12  C   UNL     1      -5.803  13.736  20.100  0.00  0.00    +0.000 A 
ATOM     13  C   UNL     1      -7.147  14.358  20.183  0.00  0.00    +0.000 C 
ATOM     14  N   UNL     1      -4.855  14.149  21.000  0.00  0.00    +0.000 NA
ATOM     15  C   UNL     1      -3.722  13.524  20.721  0.00  0.00    +0.000 A 
ATOM     16  N   UNL     1      -3.952  12.599  19.692  0.00  0.00    +0.000 N 
ENDROOT
BRANCH  15  17
ATOM     17  C   UNL     1      -2.455  13.872  21.405  0.00  0.00    +0.000 A 
ATOM     18  C   UNL     1      -1.614  14.866  20.888  0.00  0.00    +0.000 A 
ATOM     19  C   UNL     1      -0.373  15.086  21.462  0.00  0.00    +0.000 A 
ATOM     20  N   UNL     1       0.025  14.506  22.603  0.00  0.00    +0.000 NA
ATOM     21  C   UNL     1      -0.848  13.649  23.176  0.00  0.00    +0.000 A 
ATOM     22  C   UNL     1      -2.071  13.267  22.620  0.00  0.00    +0.000 A 
ATOM     23  C   UNL     1      -2.885  12.225  23.333  0.00  0.00    +0.000 C 
ENDBRANCH  15  17
BRANCH   1  25
ATOM     24  C   UNL     1      -2.950  10.376  14.734  0.00  0.00    +0.000 C 
ATOM     25  O   UNL     1      -3.307   9.695  15.930  0.00  0.00    +0.000 OA
ENDBRANCH   1  25
TORSDOF 2
ENDMDL
