MODEL 1
REMARK VINA RESULT:      -5.8      0.000      0.000
REMARK  Name = 
REMARK  6 active torsions:
REMARK  status: ('A' for Active; 'I' for Inactive)
REMARK    1  A    between atoms: C_1  and  C_2
REMARK    2  A    between atoms: C_2  and  C_3
REMARK    3  A    between atoms: C_2  and  N_4
REMARK    4  A    between atoms: N_4  and  C_5
REMARK    5  A    between atoms: C_6  and  C_8
REMARK    6  A    between atoms: N_12  and  C_13
REMARK                            x       y       z     vdW  Elec       q    Type
REMARK                         _______ _______ _______ _____ _____    ______ ____
ROOT
ATOM      1  N   UNL     1       3.579   3.676  19.796  0.00  0.00    +0.000 N 
ATOM      2  C   UNL     1       4.352   2.441  19.887  0.00  0.00    +0.000 C 
ATOM      3  C   UNL     1       4.141   4.911  19.400  0.00  0.00    +0.000 C 
ATOM      4  O   UNL     1       3.479   5.947  19.490  0.00  0.00    +0.000 OA
ENDROOT
BRANCH   3   5
ATOM      5  C   UNL     1       5.523   4.942  18.912  0.00  0.00    +0.000 A 
ATOM      6  N   UNL     1       6.575   5.312  19.631  0.00  0.00    +0.000 NA
ATOM      7  C   UNL     1       7.661   5.240  18.802  0.00  0.00    +0.000 A 
ATOM      8  C   UNL     1       7.290   4.783  17.562  0.00  0.00    +0.000 A 
ATOM      9  N   UNL     1       5.939   4.571  17.649  0.00  0.00    +0.000 N 
ATOM     10  C   UNL     1       5.117   4.089  16.564  0.00  0.00    +0.000 C 
ENDBRANCH   3   5
BRANCH   1  12
ATOM     11  C   UNL     1       1.217   2.909  19.339  0.00  0.00    +0.000 C 
ATOM     12  C   UNL     1       2.180   3.664  20.262  0.00  0.00    +0.000 C 
ATOM     13  C   UNL     1       2.096   3.102  21.685  0.00  0.00    +0.000 C 
ENDBRANCH   1  12
TORSDOF 2
ENDMDL
MODEL 2
REMARK VINA RESULT:      -5.7      1.359      1.844
REMARK  Name = 
REMARK  6 active torsions:
REMARK  status: ('A' for Active; 'I' for Inactive)
REMARK    1  A    between atoms: C_1  and  C_2
REMARK    2  A    between atoms: C_2  and  C_3
REMARK    3  A    between atoms: C_2  and  N_4
REMARK    4  A    between atoms: N_4  and  C_5
REMARK    5  A    between atoms: C_6  and  C_8
REMARK    6  A    between atoms: N_12  and  C_13
REMARK                            x       y       z     vdW  Elec       q    Type
REMARK                         _______ _______ _______ _____ _____    ______ ____
ROOT
ATOM      1  N   UNL     1       3.299   4.169  19.190  0.00  0.00    +0.000 N 
ATOM      2  C   UNL     1       2.973   5.413  18.499  0.00  0.00    +0.000 C 
ATOM      3  C   UNL     1       4.617   3.671  19.303  0.00  0.00    +0.000 C 
ATOM      4  O   UNL     1       4.813   2.542  19.760  0.00  0.00    +0.000 OA
ENDROOT
BRANCH   3   5
ATOM      5  C   UNL     1       5.735   4.500  18.844  0.00  0.00    +0.000 A 
ATOM      6  N   UNL     1       6.497   5.251  19.628  0.00  0.00    +0.000 NA
ATOM      7  C   UNL     1       7.390   5.891  18.812  0.00  0.00    +0.000 A 
ATOM      8  C   UNL     1       7.209   5.505  17.507  0.00  0.00    +0.000 A 
ATOM      9  N   UNL     1       6.178   4.604  17.541  0.00  0.00    +0.000 N 
ATOM     10  C   UNL     1       5.641   3.935  16.378  0.00  0.00    +0.000 C 
ENDBRANCH   3   5
BRANCH   1  12
ATOM     11  C   UNL     1       1.157   4.080  20.524  0.00  0.00    +0.000 C 
ATOM     12  C   UNL     1       2.191   3.327  19.678  0.00  0.00    +0.000 C 
ATOM     13  C   UNL     1       1.500   2.621  18.507  0.00  0.00    +0.000 C 
ENDBRANCH   1  12
TORSDOF 2
ENDMDL
MODEL 3
REMARK VINA RESULT:      -5.4      1.281      2.085
REMARK  Name = 
REMARK  6 active torsions:
REMARK  status: ('A' for Active; 'I' for Inactive)
REMARK    1  A    between atoms: C_1  and  C_2
REMARK    2  A    between atoms: C_2  and  C_3
REMARK    3  A    between atoms: C_2  and  N_4
REMARK    4  A    between atoms: N_4  and  C_5
REMARK    5  A    between atoms: C_6  and  C_8
REMARK    6  A    between atoms: N_12  and  C_13
REMARK                            x       y       z     vdW  Elec       q    Type
REMARK                         _______ _______ _______ _____ _____    ______ ____
ROOT
ATOM      1  N   UNL     1       2.946   3.546  18.513  0.00  0.00    +0.000 N 
ATOM      2  C   UNL     1       3.704   2.327  18.783  0.00  0.00    +0.000 C 
ATOM      3  C   UNL     1       3.493   4.660  17.837  0.00  0.00    +0.000 C 
ATOM      4  O   UNL     1       2.859   5.716  17.774  0.00  0.00    +0.000 OA
ENDROOT
BRANCH   3   5
ATOM      5  C   UNL     1       4.829   4.550  17.243  0.00  0.00    +0.000 A 
ATOM      6  N   UNL     1       5.078   4.171  15.996  0.00  0.00    +0.000 NA
ATOM      7  C   UNL     1       6.439   4.161  15.854  0.00  0.00    +0.000 A 
ATOM      8  C   UNL     1       7.046   4.576  17.012  0.00  0.00    +0.000 A 
ATOM      9  N   UNL     1       6.018   4.847  17.877  0.00  0.00    +0.000 N 
ATOM     10  C   UNL     1       6.194   5.313  19.233  0.00  0.00    +0.000 C 
ENDBRANCH   3   5
BRANCH   1  12
ATOM     11  C   UNL     1       0.697   2.449  18.850  0.00  0.00    +0.000 C 
ATOM     12  C   UNL     1       1.592   3.671  19.083  0.00  0.00    +0.000 C 
ATOM     13  C   UNL     1       1.671   3.989  20.580  0.00  0.00    +0.000 C 
ENDBRANCH   1  12
TORSDOF 2
ENDMDL
MODEL 4
REMARK VINA RESULT:      -5.4      1.729      5.009
REMARK  Name = 
REMARK  6 active torsions:
REMARK  status: ('A' for Active; 'I' for Inactive)
REMARK    1  A    between atoms: C_1  and  C_2
REMARK    2  A    between atoms: C_2  and  C_3
REMARK    3  A    between atoms: C_2  and  N_4
REMARK    4  A    between atoms: N_4  and  C_5
REMARK    5  A    between atoms: C_6  and  C_8
REMARK    6  A    between atoms: N_12  and  C_13
REMARK                            x       y       z     vdW  Elec       q    Type
REMARK                         _______ _______ _______ _____ _____    ______ ____
ROOT
ATOM      1  N   UNL     1       4.904   4.257  18.180  0.00  0.00    +0.000 N 
ATOM      2  C   UNL     1       4.055   5.122  17.365  0.00  0.00    +0.000 C 
ATOM      3  C   UNL     1       4.389   3.312  19.096  0.00  0.00    +0.000 C 
ATOM      4  O   UNL     1       5.149   2.721  19.866  0.00  0.00    +0.000 OA
ENDROOT
BRANCH   3   5
ATOM      5  C   UNL     1       2.943   3.071  19.136  0.00  0.00    +0.000 A 
ATOM      6  N   UNL     1       2.299   2.183  18.391  0.00  0.00    +0.000 NA
ATOM      7  C   UNL     1       0.971   2.300  18.700  0.00  0.00    +0.000 A 
ATOM      8  C   UNL     1       0.787   3.246  19.678  0.00  0.00    +0.000 A 
ATOM      9  N   UNL     1       2.044   3.708  19.968  0.00  0.00    +0.000 N 
ATOM     10  C   UNL     1       2.331   4.729  20.948  0.00  0.00    +0.000 C 
ENDBRANCH   3   5
BRANCH   1  12
ATOM     11  C   UNL     1       6.942   4.586  16.726  0.00  0.00    +0.000 C 
ATOM     12  C   UNL     1       6.363   4.467  18.140  0.00  0.00    +0.000 C 
ATOM     13  C   UNL     1       6.747   5.694  18.973  0.00  0.00    +0.000 C 
ENDBRANCH   1  12
TORSDOF 2
ENDMDL
MODEL 5
REMARK VINA RESULT:      -5.3      1.714      4.780
REMARK  Name = 
REMARK  6 active torsions:
REMARK  status: ('A' for Active; 'I' for Inactive)
REMARK    1  A    between atoms: C_1  and  C_2
REMARK    2  A    between atoms: C_2  and  C_3
REMARK    3  A    between atoms: C_2  and  N_4
REMARK    4  A    between atoms: N_4  and  C_5
REMARK    5  A    between atoms: C_6  and  C_8
REMARK    6  A    between atoms: N_12  and  C_13
REMARK                            x       y       z     vdW  Elec       q    Type
REMARK                         _______ _______ _______ _____ _____    ______ ____
ROOT
ATOM      1  N   UNL     1       5.168   5.234  17.961  0.00  0.00    +0.000 N 
ATOM      2  C   UNL     1       4.285   6.253  17.401  0.00  0.00    +0.000 C 
ATOM      3  C   UNL     1       4.758   4.323  18.961  0.00  0.00    +0.000 C 
ATOM      4  O   UNL     1       5.587   3.591  19.506  0.00  0.00    +0.000 OA
ENDROOT
BRANCH   3   5
ATOM      5  C   UNL     1       3.348   4.286  19.359  0.00  0.00    +0.000 A 
ATOM      6  N   UNL     1       2.814   5.004  20.339  0.00  0.00    +0.000 NA
ATOM      7  C   UNL     1       1.495   4.649  20.413  0.00  0.00    +0.000 A 
ATOM      8  C   UNL     1       1.191   3.727  19.442  0.00  0.00    +0.000 A 
ATOM      9  N   UNL     1       2.363   3.524  18.763  0.00  0.00    +0.000 N 
ATOM     10  C   UNL     1       2.514   2.617  17.648  0.00  0.00    +0.000 C 
ENDBRANCH   3   5
BRANCH   1  12
ATOM     11  C   UNL     1       6.870   4.511  16.241  0.00  0.00    +0.000 C 
ATOM     12  C   UNL     1       6.587   5.239  17.561  0.00  0.00    +0.000 C 
ATOM     13  C   UNL     1       7.119   6.674  17.496  0.00  0.00    +0.000 C 
ENDBRANCH   1  12
TORSDOF 2
ENDMDL
MODEL 6
REMARK VINA RESULT:      -5.3      1.502      1.674
REMARK  Name = 
REMARK  6 active torsions:
REMARK  status: ('A' for Active; 'I' for Inactive)
REMARK    1  A    between atoms: C_1  and  C_2
REMARK    2  A    between atoms: C_2  and  C_3
REMARK    3  A    between atoms: C_2  and  N_4
REMARK    4  A    between atoms: N_4  and  C_5
REMARK    5  A    between atoms: C_6  and  C_8
REMARK    6  A    between atoms: N_12  and  C_13
REMARK                            x       y       z     vdW  Elec       q    Type
REMARK                         _______ _______ _______ _____ _____    ______ ____
ROOT
ATOM      1  N   UNL     1       3.707   3.999  18.476  0.00  0.00    +0.000 N 
ATOM      2  C   UNL     1       4.500   3.129  17.612  0.00  0.00    +0.000 C 
ATOM      3  C   UNL     1       4.255   5.099  19.176  0.00  0.00    +0.000 C 
ATOM      4  O   UNL     1       3.574   5.701  20.009  0.00  0.00    +0.000 OA
ENDROOT
BRANCH   3   5
ATOM      5  C   UNL     1       5.644   5.488  18.918  0.00  0.00    +0.000 A 
ATOM      6  N   UNL     1       6.676   5.187  19.696  0.00  0.00    +0.000 NA
ATOM      7  C   UNL     1       7.778   5.767  19.129  0.00  0.00    +0.000 A 
ATOM      8  C   UNL     1       7.438   6.406  17.962  0.00  0.00    +0.000 A 
ATOM      9  N   UNL     1       6.090   6.200  17.822  0.00  0.00    +0.000 N 
ATOM     10  C   UNL     1       5.298   6.705  16.725  0.00  0.00    +0.000 C 
ENDBRANCH   3   5
BRANCH   1  12
ATOM     11  C   UNL     1       1.320   4.133  17.666  0.00  0.00    +0.000 C 
ATOM     12  C   UNL     1       2.301   3.638  18.735  0.00  0.00    +0.000 C 
ATOM     13  C   UNL     1       2.164   2.123  18.916  0.00  0.00    +0.000 C 
ENDBRANCH   1  12
TORSDOF 2
ENDMDL
MODEL 7
REMARK VINA RESULT:      -5.2      2.031      2.680
REMARK  Name = 
REMARK  6 active torsions:
REMARK  status: ('A' for Active; 'I' for Inactive)
REMARK    1  A    between atoms: C_1  and  C_2
REMARK    2  A    between atoms: C_2  and  C_3
REMARK    3  A    between atoms: C_2  and  N_4
REMARK    4  A    between atoms: N_4  and  C_5
REMARK    5  A    between atoms: C_6  and  C_8
REMARK    6  A    between atoms: N_12  and  C_13
REMARK                            x       y       z     vdW  Elec       q    Type
REMARK                         _______ _______ _______ _____ _____    ______ ____
ROOT
ATOM      1  N   UNL     1       3.150   3.826  18.673  0.00  0.00    +0.000 N 
ATOM      2  C   UNL     1       2.142   3.892  17.619  0.00  0.00    +0.000 C 
ATOM      3  C   UNL     1       4.531   4.009  18.433  0.00  0.00    +0.000 C 
ATOM      4  O   UNL     1       5.348   3.789  19.330  0.00  0.00    +0.000 OA
ENDROOT
BRANCH   3   5
ATOM      5  C   UNL     1       4.974   4.432  17.101  0.00  0.00    +0.000 A 
ATOM      6  N   UNL     1       5.470   3.625  16.172  0.00  0.00    +0.000 NA
ATOM      7  C   UNL     1       5.796   4.411  15.102  0.00  0.00    +0.000 A 
ATOM      8  C   UNL     1       5.465   5.720  15.349  0.00  0.00    +0.000 A 
ATOM      9  N   UNL     1       4.920   5.719  16.606  0.00  0.00    +0.000 N 
ATOM     10  C   UNL     1       4.430   6.897  17.283  0.00  0.00    +0.000 C 
ENDBRANCH   3   5
BRANCH   1  12
ATOM     11  C   UNL     1       2.244   4.583  20.905  0.00  0.00    +0.000 C 
ATOM     12  C   UNL     1       2.725   3.423  20.026  0.00  0.00    +0.000 C 
ATOM     13  C   UNL     1       1.645   2.339  19.945  0.00  0.00    +0.000 C 
ENDBRANCH   1  12
TORSDOF 2
ENDMDL
MODEL 8
REMARK VINA RESULT:      -5.2      1.679      4.730
REMARK  Name = 
REMARK  6 active torsions:
REMARK  status: ('A' for Active; 'I' for Inactive)
REMARK    1  A    between atoms: C_1  and  C_2
REMARK    2  A    between atoms: C_2  and  C_3
REMARK    3  A    between atoms: C_2  and  N_4
REMARK    4  A    between atoms: N_4  and  C_5
REMARK    5  A    between atoms: C_6  and  C_8
REMARK    6  A    between atoms: N_12  and  C_13
REMARK                            x       y       z     vdW  Elec       q    Type
REMARK                         _______ _______ _______ _____ _____    ______ ____
ROOT
ATOM      1  N   UNL     1       5.089   4.569  18.032  0.00  0.00    +0.000 N 
ATOM      2  C   UNL     1       5.875   4.998  19.185  0.00  0.00    +0.000 C 
ATOM      3  C   UNL     1       3.868   3.865  18.150  0.00  0.00    +0.000 C 
ATOM      4  O   UNL     1       3.329   3.394  17.146  0.00  0.00    +0.000 OA
ENDROOT
BRANCH   3   5
ATOM      5  C   UNL     1       3.276   3.679  19.477  0.00  0.00    +0.000 A 
ATOM      6  N   UNL     1       3.348   2.565  20.194  0.00  0.00    +0.000 NA
ATOM      7  C   UNL     1       2.638   2.789  21.341  0.00  0.00    +0.000 A 
ATOM      8  C   UNL     1       2.147   4.071  21.360  0.00  0.00    +0.000 A 
ATOM      9  N   UNL     1       2.580   4.636  20.189  0.00  0.00    +0.000 N 
ATOM     10  C   UNL     1       2.291   5.991  19.782  0.00  0.00    +0.000 C 
ENDBRANCH   3   5
BRANCH   1  12
ATOM     11  C   UNL     1       5.290   6.105  16.038  0.00  0.00    +0.000 C 
ATOM     12  C   UNL     1       5.655   4.763  16.685  0.00  0.00    +0.000 C 
ATOM     13  C   UNL     1       7.177   4.590  16.716  0.00  0.00    +0.000 C 
ENDBRANCH   1  12
TORSDOF 2
ENDMDL
MODEL 9
REMARK VINA RESULT:      -5.2      1.694      2.669
REMARK  Name = 
REMARK  6 active torsions:
REMARK  status: ('A' for Active; 'I' for Inactive)
REMARK    1  A    between atoms: C_1  and  C_2
REMARK    2  A    between atoms: C_2  and  C_3
REMARK    3  A    between atoms: C_2  and  N_4
REMARK    4  A    between atoms: N_4  and  C_5
REMARK    5  A    between atoms: C_6  and  C_8
REMARK    6  A    between atoms: N_12  and  C_13
REMARK                            x       y       z     vdW  Elec       q    Type
REMARK                         _______ _______ _______ _____ _____    ______ ____
ROOT
ATOM      1  N   UNL     1       2.754   3.939  18.679  0.00  0.00    +0.000 N 
ATOM      2  C   UNL     1       2.353   5.146  17.961  0.00  0.00    +0.000 C 
ATOM      3  C   UNL     1       3.984   3.280  18.453  0.00  0.00    +0.000 C 
ATOM      4  O   UNL     1       4.200   2.183  18.974  0.00  0.00    +0.000 OA
ENDROOT
BRANCH   3   5
ATOM      5  C   UNL     1       4.977   3.902  17.573  0.00  0.00    +0.000 A 
ATOM      6  N   UNL     1       5.073   3.694  16.266  0.00  0.00    +0.000 NA
ATOM      7  C   UNL     1       6.145   4.423  15.829  0.00  0.00    +0.000 A 
ATOM      8  C   UNL     1       6.702   5.127  16.868  0.00  0.00    +0.000 A 
ATOM      9  N   UNL     1       5.939   4.813  17.962  0.00  0.00    +0.000 N 
ATOM     10  C   UNL     1       6.168   5.329  19.292  0.00  0.00    +0.000 C 
ENDBRANCH   3   5
BRANCH   1  12
ATOM     11  C   UNL     1       1.074   4.284  20.532  0.00  0.00    +0.000 C 
ATOM     12  C   UNL     1       1.779   3.306  19.586  0.00  0.00    +0.000 C 
ATOM     13  C   UNL     1       0.744   2.509  18.784  0.00  0.00    +0.000 C 
ENDBRANCH   1  12
TORSDOF 2
ENDMDL
