MODEL 1
REMARK VINA RESULT:      -9.1      0.000      0.000
REMARK  Name = 
REMARK  5 active torsions:
REMARK  status: ('A' for Active; 'I' for Inactive)
REMARK    1  A    between atoms: C_2  and  C_3
REMARK    2  A    between atoms: C_11  and  C_12
REMARK    3  A    between atoms: C_12  and  O_13
REMARK    4  A    between atoms: O_13  and  C_14
REMARK    5  A    between atoms: C_21  and  C_22
REMARK                            x       y       z     vdW  Elec       q    Type
REMARK                         _______ _______ _______ _____ _____    ______ ____
ROOT
ATOM      1  O   UNL     1       5.277   2.490  18.999  0.00  0.00    +0.000 OA
ATOM      2  C   UNL     1       4.482   3.405  19.220  0.00  0.00    +0.000 C 
ATOM      3  N   UNL     1       4.714   4.701  18.827  0.00  0.00    +0.000 N 
ATOM      4  C   UNL     1       5.903   5.214  18.174  0.00  0.00    +0.000 C 
ATOM      5  C   UNL     1       5.441   5.968  16.923  0.00  0.00    +0.000 C 
ATOM      6  O   UNL     1       4.526   7.017  17.306  0.00  0.00    +0.000 OA
ATOM      7  C   UNL     1       3.407   6.459  17.996  0.00  0.00    +0.000 C 
ATOM      8  O   UNL     1       3.843   5.757  19.170  0.00  0.00    +0.000 OA
ENDROOT
BRANCH   7   9
ATOM      9  C   UNL     1       2.533   7.595  18.484  0.00  0.00    +0.000 A 
ATOM     10  C   UNL     1       2.400   8.745  17.677  0.00  0.00    +0.000 A 
ATOM     11  C   UNL     1       1.660   9.850  18.104  0.00  0.00    +0.000 A 
ATOM     12  C   UNL     1       1.038   9.819  19.347  0.00  0.00    +0.000 A 
ATOM     13 CL   UNL     1       0.157  11.192  19.894  0.00  0.00    +0.000 Cl
ATOM     14  C   UNL     1       1.134   8.690  20.155  0.00  0.00    +0.000 A 
ATOM     15  C   UNL     1       1.879   7.584  19.727  0.00  0.00    +0.000 A 
ATOM     16 CL   UNL     1       1.954   6.230  20.798  0.00  0.00    +0.000 Cl
ENDBRANCH   7   9
BRANCH   2  17
ATOM     17  C   UNL     1       3.166   3.091  19.856  0.00  0.00    +0.000 A 
ATOM     18  C   UNL     1       3.030   2.856  21.230  0.00  0.00    +0.000 A 
ATOM     19  C   UNL     1       1.778   2.742  21.826  0.00  0.00    +0.000 A 
ATOM     20  C   UNL     1       0.640   2.773  21.034  0.00  0.00    +0.000 A 
ATOM     21  C   UNL     1       0.750   2.930  19.657  0.00  0.00    +0.000 A 
ATOM     22  C   UNL     1       2.010   3.091  19.062  0.00  0.00    +0.000 A 
ENDBRANCH   2  17
BRANCH   5  23
ATOM     23  C   UNL     1       6.617   6.615  16.212  0.00  0.00    +0.000 C 
BRANCH  23  24
ATOM     24  O   UNL     1       7.497   5.574  15.774  0.00  0.00    +0.000 OA
BRANCH  24  25
ATOM     25  C   UNL     1       7.134   4.963  14.608  0.00  0.00    +0.000 A 
ATOM     26  C   UNL     1       7.857   5.350  13.480  0.00  0.00    +0.000 A 
ATOM     27  C   UNL     1       7.536   4.822  12.228  0.00  0.00    +0.000 A 
ATOM     28  C   UNL     1       6.509   3.886  12.109  0.00  0.00    +0.000 A 
ATOM     29  C   UNL     1       5.815   3.468  13.242  0.00  0.00    +0.000 A 
ATOM     30  C   UNL     1       6.131   4.001  14.492  0.00  0.00    +0.000 A 
ENDBRANCH  24  25
ENDBRANCH  23  24
ENDBRANCH   5  23
TORSDOF 5
ENDMDL
MODEL 2
REMARK VINA RESULT:      -9.0      1.933      5.931
REMARK  Name = 
REMARK  5 active torsions:
REMARK  status: ('A' for Active; 'I' for Inactive)
REMARK    1  A    between atoms: C_2  and  C_3
REMARK    2  A    between atoms: C_11  and  C_12
REMARK    3  A    between atoms: C_12  and  O_13
REMARK    4  A    between atoms: O_13  and  C_14
REMARK    5  A    between atoms: C_21  and  C_22
REMARK                            x       y       z     vdW  Elec       q    Type
REMARK                         _______ _______ _______ _____ _____    ______ ____
ROOT
ATOM      1  O   UNL     1       7.623   4.933  16.525  0.00  0.00    +0.000 OA
ATOM      2  C   UNL     1       6.850   5.799  16.937  0.00  0.00    +0.000 C 
ATOM      3  N   UNL     1       5.484   5.655  16.892  0.00  0.00    +0.000 N 
ATOM      4  C   UNL     1       4.742   4.548  16.321  0.00  0.00    +0.000 C 
ATOM      5  C   UNL     1       3.761   4.062  17.391  0.00  0.00    +0.000 C 
ATOM      6  O   UNL     1       2.903   5.154  17.786  0.00  0.00    +0.000 OA
ATOM      7  C   UNL     1       3.691   6.237  18.284  0.00  0.00    +0.000 C 
ATOM      8  O   UNL     1       4.607   6.692  17.277  0.00  0.00    +0.000 OA
ENDROOT
BRANCH   7   9
ATOM      9  C   UNL     1       2.770   7.403  18.575  0.00  0.00    +0.000 A 
ATOM     10  C   UNL     1       2.703   8.464  17.647  0.00  0.00    +0.000 A 
ATOM     11  C   UNL     1       1.921   9.594  17.893  0.00  0.00    +0.000 A 
ATOM     12  C   UNL     1       1.191   9.679  19.072  0.00  0.00    +0.000 A 
ATOM     13 CL   UNL     1       0.256  11.086  19.398  0.00  0.00    +0.000 Cl
ATOM     14  C   UNL     1       1.221   8.638  19.995  0.00  0.00    +0.000 A 
ATOM     15  C   UNL     1       2.007   7.506  19.749  0.00  0.00    +0.000 A 
ATOM     16 CL   UNL     1       1.995   6.267  20.954  0.00  0.00    +0.000 Cl
ENDBRANCH   7   9
BRANCH   2  17
ATOM     17  C   UNL     1       7.404   7.018  17.602  0.00  0.00    +0.000 A 
ATOM     18  C   UNL     1       8.184   6.955  18.763  0.00  0.00    +0.000 A 
ATOM     19  C   UNL     1       8.834   8.079  19.262  0.00  0.00    +0.000 A 
ATOM     20  C   UNL     1       8.637   9.309  18.652  0.00  0.00    +0.000 A 
ATOM     21  C   UNL     1       7.806   9.413  17.542  0.00  0.00    +0.000 A 
ATOM     22  C   UNL     1       7.188   8.272  17.011  0.00  0.00    +0.000 A 
ENDBRANCH   2  17
BRANCH   5  23
ATOM     23  C   UNL     1       2.877   2.949  16.854  0.00  0.00    +0.000 C 
BRANCH  23  24
ATOM     24  O   UNL     1       2.845   1.900  17.829  0.00  0.00    +0.000 OA
BRANCH  24  25
ATOM     25  C   UNL     1       2.341   2.258  19.047  0.00  0.00    +0.000 A 
ATOM     26  C   UNL     1       3.250   2.222  20.104  0.00  0.00    +0.000 A 
ATOM     27  C   UNL     1       2.828   2.524  21.400  0.00  0.00    +0.000 A 
ATOM     28  C   UNL     1       1.503   2.889  21.634  0.00  0.00    +0.000 A 
ATOM     29  C   UNL     1       0.605   2.967  20.572  0.00  0.00    +0.000 A 
ATOM     30  C   UNL     1       1.025   2.658  19.277  0.00  0.00    +0.000 A 
ENDBRANCH  24  25
ENDBRANCH  23  24
ENDBRANCH   5  23
TORSDOF 5
ENDMDL
MODEL 3
REMARK VINA RESULT:      -8.8      1.929      5.966
REMARK  Name = 
REMARK  5 active torsions:
REMARK  status: ('A' for Active; 'I' for Inactive)
REMARK    1  A    between atoms: C_2  and  C_3
REMARK    2  A    between atoms: C_11  and  C_12
REMARK    3  A    between atoms: C_12  and  O_13
REMARK    4  A    between atoms: O_13  and  C_14
REMARK    5  A    between atoms: C_21  and  C_22
REMARK                            x       y       z     vdW  Elec       q    Type
REMARK                         _______ _______ _______ _____ _____    ______ ____
ROOT
ATOM      1  O   UNL     1       7.536   4.579  16.403  0.00  0.00    +0.000 OA
ATOM      2  C   UNL     1       6.818   5.496  16.805  0.00  0.00    +0.000 C 
ATOM      3  N   UNL     1       5.446   5.424  16.790  0.00  0.00    +0.000 N 
ATOM      4  C   UNL     1       4.635   4.342  16.266  0.00  0.00    +0.000 C 
ATOM      5  C   UNL     1       3.652   3.939  17.368  0.00  0.00    +0.000 C 
ATOM      6  O   UNL     1       2.861   5.085  17.749  0.00  0.00    +0.000 OA
ATOM      7  C   UNL     1       3.715   6.138  18.200  0.00  0.00    +0.000 C 
ATOM      8  O   UNL     1       4.632   6.516  17.162  0.00  0.00    +0.000 OA
ENDROOT
BRANCH   7   9
ATOM      9  C   UNL     1       2.863   7.358  18.475  0.00  0.00    +0.000 A 
ATOM     10  C   UNL     1       2.877   8.421  17.546  0.00  0.00    +0.000 A 
ATOM     11  C   UNL     1       2.162   9.597  17.779  0.00  0.00    +0.000 A 
ATOM     12  C   UNL     1       1.419   9.728  18.946  0.00  0.00    +0.000 A 
ATOM     13 CL   UNL     1       0.567  11.191  19.255  0.00  0.00    +0.000 Cl
ATOM     14  C   UNL     1       1.370   8.688  19.869  0.00  0.00    +0.000 A 
ATOM     15  C   UNL     1       2.089   7.510  19.637  0.00  0.00    +0.000 A 
ATOM     16 CL   UNL     1       1.980   6.276  20.842  0.00  0.00    +0.000 Cl
ENDBRANCH   7   9
BRANCH   2  17
ATOM     17  C   UNL     1       7.449   6.701  17.423  0.00  0.00    +0.000 A 
ATOM     18  C   UNL     1       7.332   7.982  16.868  0.00  0.00    +0.000 A 
ATOM     19  C   UNL     1       7.774   9.111  17.550  0.00  0.00    +0.000 A 
ATOM     20  C   UNL     1       8.425   8.963  18.766  0.00  0.00    +0.000 A 
ATOM     21  C   UNL     1       8.622   7.696  19.304  0.00  0.00    +0.000 A 
ATOM     22  C   UNL     1       8.136   6.562  18.639  0.00  0.00    +0.000 A 
ENDBRANCH   2  17
BRANCH   5  23
ATOM     23  C   UNL     1       2.700   2.860  16.881  0.00  0.00    +0.000 C 
BRANCH  23  24
ATOM     24  O   UNL     1       2.722   1.788  17.831  0.00  0.00    +0.000 OA
BRANCH  24  25
ATOM     25  C   UNL     1       2.392   2.142  19.108  0.00  0.00    +0.000 A 
ATOM     26  C   UNL     1       1.061   2.510  19.302  0.00  0.00    +0.000 A 
ATOM     27  C   UNL     1       0.628   2.935  20.559  0.00  0.00    +0.000 A 
ATOM     28  C   UNL     1       1.520   2.965  21.630  0.00  0.00    +0.000 A 
ATOM     29  C   UNL     1       2.840   2.557  21.447  0.00  0.00    +0.000 A 
ATOM     30  C   UNL     1       3.274   2.139  20.189  0.00  0.00    +0.000 A 
ENDBRANCH  24  25
ENDBRANCH  23  24
ENDBRANCH   5  23
TORSDOF 5
ENDMDL
MODEL 4
REMARK VINA RESULT:      -8.1      3.253      6.905
REMARK  Name = 
REMARK  5 active torsions:
REMARK  status: ('A' for Active; 'I' for Inactive)
REMARK    1  A    between atoms: C_2  and  C_3
REMARK    2  A    between atoms: C_11  and  C_12
REMARK    3  A    between atoms: C_12  and  O_13
REMARK    4  A    between atoms: O_13  and  C_14
REMARK    5  A    between atoms: C_21  and  C_22
REMARK                            x       y       z     vdW  Elec       q    Type
REMARK                         _______ _______ _______ _____ _____    ______ ____
ROOT
ATOM      1  O   UNL     1       8.386   5.566  13.643  0.00  0.00    +0.000 OA
ATOM      2  C   UNL     1       7.389   5.055  14.155  0.00  0.00    +0.000 C 
ATOM      3  N   UNL     1       6.992   5.329  15.441  0.00  0.00    +0.000 N 
ATOM      4  C   UNL     1       7.675   6.172  16.403  0.00  0.00    +0.000 C 
ATOM      5  C   UNL     1       6.649   7.179  16.930  0.00  0.00    +0.000 C 
ATOM      6  O   UNL     1       5.536   6.468  17.514  0.00  0.00    +0.000 OA
ATOM      7  C   UNL     1       4.941   5.611  16.538  0.00  0.00    +0.000 C 
ATOM      8  O   UNL     1       5.904   4.666  16.049  0.00  0.00    +0.000 OA
ENDROOT
BRANCH   7   9
ATOM      9  C   UNL     1       3.858   4.797  17.215  0.00  0.00    +0.000 A 
ATOM     10  C   UNL     1       3.934   3.388  17.163  0.00  0.00    +0.000 A 
ATOM     11  C   UNL     1       2.931   2.588  17.713  0.00  0.00    +0.000 A 
ATOM     12  C   UNL     1       1.836   3.185  18.327  0.00  0.00    +0.000 A 
ATOM     13 CL   UNL     1       0.579   2.203  18.972  0.00  0.00    +0.000 Cl
ATOM     14  C   UNL     1       1.746   4.571  18.411  0.00  0.00    +0.000 A 
ATOM     15  C   UNL     1       2.751   5.374  17.858  0.00  0.00    +0.000 A 
ATOM     16 CL   UNL     1       2.552   7.085  17.998  0.00  0.00    +0.000 Cl
ENDBRANCH   7   9
BRANCH   2  17
ATOM     17  C   UNL     1       6.512   4.174  13.325  0.00  0.00    +0.000 A 
ATOM     18  C   UNL     1       5.114   4.222  13.392  0.00  0.00    +0.000 A 
ATOM     19  C   UNL     1       4.319   3.524  12.489  0.00  0.00    +0.000 A 
ATOM     20  C   UNL     1       4.917   2.691  11.555  0.00  0.00    +0.000 A 
ATOM     21  C   UNL     1       6.302   2.565  11.516  0.00  0.00    +0.000 A 
ATOM     22  C   UNL     1       7.105   3.305  12.396  0.00  0.00    +0.000 A 
ENDBRANCH   2  17
BRANCH   5  23
ATOM     23  C   UNL     1       7.254   8.059  18.011  0.00  0.00    +0.000 C 
BRANCH  23  24
ATOM     24  O   UNL     1       8.222   8.915  17.394  0.00  0.00    +0.000 OA
BRANCH  24  25
ATOM     25  C   UNL     1       8.618   9.980  18.152  0.00  0.00    +0.000 A 
ATOM     26  C   UNL     1       9.075   9.667  19.432  0.00  0.00    +0.000 A 
ATOM     27  C   UNL     1       9.459  10.684  20.306  0.00  0.00    +0.000 A 
ATOM     28  C   UNL     1       9.413  12.014  19.891  0.00  0.00    +0.000 A 
ATOM     29  C   UNL     1       8.997  12.325  18.598  0.00  0.00    +0.000 A 
ATOM     30  C   UNL     1       8.605  11.308  17.726  0.00  0.00    +0.000 A 
ENDBRANCH  24  25
ENDBRANCH  23  24
ENDBRANCH   5  23
TORSDOF 5
ENDMDL
MODEL 5
REMARK VINA RESULT:      -8.1      3.189      6.846
REMARK  Name = 
REMARK  5 active torsions:
REMARK  status: ('A' for Active; 'I' for Inactive)
REMARK    1  A    between atoms: C_2  and  C_3
REMARK    2  A    between atoms: C_11  and  C_12
REMARK    3  A    between atoms: C_12  and  O_13
REMARK    4  A    between atoms: O_13  and  C_14
REMARK    5  A    between atoms: C_21  and  C_22
REMARK                            x       y       z     vdW  Elec       q    Type
REMARK                         _______ _______ _______ _____ _____    ______ ____
ROOT
ATOM      1  O   UNL     1       8.292   5.264  13.344  0.00  0.00    +0.000 OA
ATOM      2  C   UNL     1       7.292   4.793  13.890  0.00  0.00    +0.000 C 
ATOM      3  N   UNL     1       6.980   5.040  15.205  0.00  0.00    +0.000 N 
ATOM      4  C   UNL     1       7.760   5.804  16.158  0.00  0.00    +0.000 C 
ATOM      5  C   UNL     1       6.825   6.847  16.775  0.00  0.00    +0.000 C 
ATOM      6  O   UNL     1       5.702   6.181  17.391  0.00  0.00    +0.000 OA
ATOM      7  C   UNL     1       5.007   5.397  16.419  0.00  0.00    +0.000 C 
ATOM      8  O   UNL     1       5.886   4.418  15.846  0.00  0.00    +0.000 OA
ENDROOT
BRANCH   7   9
ATOM      9  C   UNL     1       3.914   4.622  17.123  0.00  0.00    +0.000 A 
ATOM     10  C   UNL     1       3.909   3.214  17.027  0.00  0.00    +0.000 A 
ATOM     11  C   UNL     1       2.890   2.452  17.601  0.00  0.00    +0.000 A 
ATOM     12  C   UNL     1       1.860   3.088  18.284  0.00  0.00    +0.000 A 
ATOM     13 CL   UNL     1       0.581   2.155  18.960  0.00  0.00    +0.000 Cl
ATOM     14  C   UNL     1       1.851   4.473  18.413  0.00  0.00    +0.000 A 
ATOM     15  C   UNL     1       2.872   5.238  17.835  0.00  0.00    +0.000 A 
ATOM     16 CL   UNL     1       2.775   6.951  18.035  0.00  0.00    +0.000 Cl
ENDBRANCH   7   9
BRANCH   2  17
ATOM     17  C   UNL     1       6.323   3.997  13.077  0.00  0.00    +0.000 A 
ATOM     18  C   UNL     1       4.971   4.345  12.963  0.00  0.00    +0.000 A 
ATOM     19  C   UNL     1       4.129   3.697  12.065  0.00  0.00    +0.000 A 
ATOM     20  C   UNL     1       4.611   2.625  11.328  0.00  0.00    +0.000 A 
ATOM     21  C   UNL     1       5.930   2.210  11.478  0.00  0.00    +0.000 A 
ATOM     22  C   UNL     1       6.791   2.892  12.349  0.00  0.00    +0.000 A 
ENDBRANCH   2  17
BRANCH   5  23
ATOM     23  C   UNL     1       7.536   7.648  17.852  0.00  0.00    +0.000 C 
BRANCH  23  24
ATOM     24  O   UNL     1       7.240   9.033  17.643  0.00  0.00    +0.000 OA
BRANCH  24  25
ATOM     25  C   UNL     1       8.177   9.903  18.123  0.00  0.00    +0.000 A 
ATOM     26  C   UNL     1       8.207  11.152  17.502  0.00  0.00    +0.000 A 
ATOM     27  C   UNL     1       9.157  12.100  17.884  0.00  0.00    +0.000 A 
ATOM     28  C   UNL     1      10.060  11.810  18.906  0.00  0.00    +0.000 A 
ATOM     29  C   UNL     1      10.002  10.579  19.556  0.00  0.00    +0.000 A 
ATOM     30  C   UNL     1       9.057   9.628  19.170  0.00  0.00    +0.000 A 
ENDBRANCH  24  25
ENDBRANCH  23  24
ENDBRANCH   5  23
TORSDOF 5
ENDMDL
MODEL 6
REMARK VINA RESULT:      -8.0      2.270      3.729
REMARK  Name = 
REMARK  5 active torsions:
REMARK  status: ('A' for Active; 'I' for Inactive)
REMARK    1  A    between atoms: C_2  and  C_3
REMARK    2  A    between atoms: C_11  and  C_12
REMARK    3  A    between atoms: C_12  and  O_13
REMARK    4  A    between atoms: O_13  and  C_14
REMARK    5  A    between atoms: C_21  and  C_22
REMARK                            x       y       z     vdW  Elec       q    Type
REMARK                         _______ _______ _______ _____ _____    ______ ____
ROOT
ATOM      1  O   UNL     1       5.499   2.930  19.191  0.00  0.00    +0.000 OA
ATOM      2  C   UNL     1       4.613   3.772  19.343  0.00  0.00    +0.000 C 
ATOM      3  N   UNL     1       4.801   5.105  19.067  0.00  0.00    +0.000 N 
ATOM      4  C   UNL     1       6.030   5.740  18.633  0.00  0.00    +0.000 C 
ATOM      5  C   UNL     1       5.702   6.547  17.374  0.00  0.00    +0.000 C 
ATOM      6  O   UNL     1       4.664   7.504  17.674  0.00  0.00    +0.000 OA
ATOM      7  C   UNL     1       3.500   6.826  18.152  0.00  0.00    +0.000 C 
ATOM      8  O   UNL     1       3.811   6.075  19.335  0.00  0.00    +0.000 OA
ENDROOT
BRANCH   7   9
ATOM      9  C   UNL     1       2.480   7.865  18.568  0.00  0.00    +0.000 A 
ATOM     10  C   UNL     1       2.319   9.017  17.768  0.00  0.00    +0.000 A 
ATOM     11  C   UNL     1       1.441  10.038  18.136  0.00  0.00    +0.000 A 
ATOM     12  C   UNL     1       0.707   9.921  19.311  0.00  0.00    +0.000 A 
ATOM     13 CL   UNL     1      -0.348  11.193  19.789  0.00  0.00    +0.000 Cl
ATOM     14  C   UNL     1       0.830   8.787  20.108  0.00  0.00    +0.000 A 
ATOM     15  C   UNL     1       1.713   7.764  19.740  0.00  0.00    +0.000 A 
ATOM     16 CL   UNL     1       1.811   6.398  20.793  0.00  0.00    +0.000 Cl
ENDBRANCH   7   9
BRANCH   2  17
ATOM     17  C   UNL     1       3.245   3.329  19.753  0.00  0.00    +0.000 A 
ATOM     18  C   UNL     1       2.916   3.031  21.081  0.00  0.00    +0.000 A 
ATOM     19  C   UNL     1       1.600   2.793  21.466  0.00  0.00    +0.000 A 
ATOM     20  C   UNL     1       0.602   2.761  20.503  0.00  0.00    +0.000 A 
ATOM     21  C   UNL     1       0.914   2.978  19.165  0.00  0.00    +0.000 A 
ATOM     22  C   UNL     1       2.233   3.264  18.783  0.00  0.00    +0.000 A 
ENDBRANCH   2  17
BRANCH   5  23
ATOM     23  C   UNL     1       6.917   7.319  16.889  0.00  0.00    +0.000 C 
BRANCH  23  24
ATOM     24  O   UNL     1       7.787   7.524  18.008  0.00  0.00    +0.000 OA
BRANCH  24  25
ATOM     25  C   UNL     1       8.213   8.810  18.180  0.00  0.00    +0.000 A 
ATOM     26  C   UNL     1       9.054   9.021  19.273  0.00  0.00    +0.000 A 
ATOM     27  C   UNL     1       9.510  10.306  19.568  0.00  0.00    +0.000 A 
ATOM     28  C   UNL     1       9.148  11.378  18.753  0.00  0.00    +0.000 A 
ATOM     29  C   UNL     1       8.343  11.162  17.636  0.00  0.00    +0.000 A 
ATOM     30  C   UNL     1       7.881   9.877  17.345  0.00  0.00    +0.000 A 
ENDBRANCH  24  25
ENDBRANCH  23  24
ENDBRANCH   5  23
TORSDOF 5
ENDMDL
MODEL 7
REMARK VINA RESULT:      -7.8      4.659      8.274
REMARK  Name = 
REMARK  5 active torsions:
REMARK  status: ('A' for Active; 'I' for Inactive)
REMARK    1  A    between atoms: C_2  and  C_3
REMARK    2  A    between atoms: C_11  and  C_12
REMARK    3  A    between atoms: C_12  and  O_13
REMARK    4  A    between atoms: O_13  and  C_14
REMARK    5  A    between atoms: C_21  and  C_22
REMARK                            x       y       z     vdW  Elec       q    Type
REMARK                         _______ _______ _______ _____ _____    ______ ____
ROOT
ATOM      1  O   UNL     1       3.355  13.475  19.278  0.00  0.00    +0.000 OA
ATOM      2  C   UNL     1       2.126  13.400  19.241  0.00  0.00    +0.000 C 
ATOM      3  N   UNL     1       1.465  12.359  18.633  0.00  0.00    +0.000 N 
ATOM      4  C   UNL     1       2.059  11.254  17.906  0.00  0.00    +0.000 C 
ATOM      5  C   UNL     1       1.486   9.964  18.499  0.00  0.00    +0.000 C 
ATOM      6  O   UNL     1       0.046   9.984  18.390  0.00  0.00    +0.000 OA
ATOM      7  C   UNL     1      -0.478  11.124  19.073  0.00  0.00    +0.000 C 
ATOM      8  O   UNL     1       0.058  12.332  18.512  0.00  0.00    +0.000 OA
ENDROOT
BRANCH   7   9
ATOM      9  C   UNL     1      -1.972  11.176  18.837  0.00  0.00    +0.000 A 
ATOM     10  C   UNL     1      -2.542  10.295  17.893  0.00  0.00    +0.000 A 
ATOM     11  C   UNL     1      -3.904  10.342  17.587  0.00  0.00    +0.000 A 
ATOM     12  C   UNL     1      -4.718  11.271  18.224  0.00  0.00    +0.000 A 
ATOM     13 CL   UNL     1      -6.389  11.358  17.823  0.00  0.00    +0.000 Cl
ATOM     14  C   UNL     1      -4.187  12.137  19.175  0.00  0.00    +0.000 A 
ATOM     15  C   UNL     1      -2.821  12.092  19.480  0.00  0.00    +0.000 A 
ATOM     16 CL   UNL     1      -2.245  13.211  20.664  0.00  0.00    +0.000 Cl
ENDBRANCH   7   9
BRANCH   2  17
ATOM     17  C   UNL     1       1.309  14.422  19.962  0.00  0.00    +0.000 A 
ATOM     18  C   UNL     1       1.077  14.366  21.342  0.00  0.00    +0.000 A 
ATOM     19  C   UNL     1       0.467  15.417  22.019  0.00  0.00    +0.000 A 
ATOM     20  C   UNL     1      -0.004  16.508  21.303  0.00  0.00    +0.000 A 
ATOM     21  C   UNL     1       0.145  16.555  19.921  0.00  0.00    +0.000 A 
ATOM     22  C   UNL     1       0.801  15.517  19.245  0.00  0.00    +0.000 A 
ENDBRANCH   2  17
BRANCH   5  23
ATOM     23  C   UNL     1       1.991   8.747  17.743  0.00  0.00    +0.000 C 
BRANCH  23  24
ATOM     24  O   UNL     1       2.626   7.873  18.684  0.00  0.00    +0.000 OA
BRANCH  24  25
ATOM     25  C   UNL     1       2.974   6.648  18.191  0.00  0.00    +0.000 A 
ATOM     26  C   UNL     1       4.218   6.587  17.564  0.00  0.00    +0.000 A 
ATOM     27  C   UNL     1       4.652   5.395  16.983  0.00  0.00    +0.000 A 
ATOM     28  C   UNL     1       3.853   4.254  17.054  0.00  0.00    +0.000 A 
ATOM     29  C   UNL     1       2.628   4.303  17.717  0.00  0.00    +0.000 A 
ATOM     30  C   UNL     1       2.192   5.498  18.292  0.00  0.00    +0.000 A 
ENDBRANCH  24  25
ENDBRANCH  23  24
ENDBRANCH   5  23
TORSDOF 5
ENDMDL
MODEL 8
REMARK VINA RESULT:      -7.8      4.079      7.247
REMARK  Name = 
REMARK  5 active torsions:
REMARK  status: ('A' for Active; 'I' for Inactive)
REMARK    1  A    between atoms: C_2  and  C_3
REMARK    2  A    between atoms: C_11  and  C_12
REMARK    3  A    between atoms: C_12  and  O_13
REMARK    4  A    between atoms: O_13  and  C_14
REMARK    5  A    between atoms: C_21  and  C_22
REMARK                            x       y       z     vdW  Elec       q    Type
REMARK                         _______ _______ _______ _____ _____    ______ ____
ROOT
ATOM      1  O   UNL     1      -0.775   8.689  21.518  0.00  0.00    +0.000 OA
ATOM      2  C   UNL     1      -0.375   9.811  21.203  0.00  0.00    +0.000 C 
ATOM      3  N   UNL     1       0.707  10.008  20.380  0.00  0.00    +0.000 N 
ATOM      4  C   UNL     1       1.571   8.989  19.815  0.00  0.00    +0.000 C 
ATOM      5  C   UNL     1       1.635   9.237  18.306  0.00  0.00    +0.000 C 
ATOM      6  O   UNL     1       2.126  10.572  18.059  0.00  0.00    +0.000 OA
ATOM      7  C   UNL     1       1.270  11.529  18.688  0.00  0.00    +0.000 C 
ATOM      8  O   UNL     1       1.216  11.296  20.103  0.00  0.00    +0.000 OA
ENDROOT
BRANCH   7   9
ATOM      9  C   UNL     1       1.879  12.903  18.509  0.00  0.00    +0.000 A 
ATOM     10  C   UNL     1       3.264  13.005  18.255  0.00  0.00    +0.000 A 
ATOM     11  C   UNL     1       3.892  14.247  18.146  0.00  0.00    +0.000 A 
ATOM     12  C   UNL     1       3.142  15.409  18.287  0.00  0.00    +0.000 A 
ATOM     13 CL   UNL     1       3.918  16.942  18.192  0.00  0.00    +0.000 Cl
ATOM     14  C   UNL     1       1.771  15.339  18.517  0.00  0.00    +0.000 A 
ATOM     15  C   UNL     1       1.143  14.092  18.628  0.00  0.00    +0.000 A 
ATOM     16 CL   UNL     1      -0.560  14.099  18.925  0.00  0.00    +0.000 Cl
ENDBRANCH   7   9
BRANCH   2  17
ATOM     17  C   UNL     1      -1.144  11.013  21.648  0.00  0.00    +0.000 A 
ATOM     18  C   UNL     1      -2.000  11.719  20.795  0.00  0.00    +0.000 A 
ATOM     19  C   UNL     1      -2.837  12.721  21.273  0.00  0.00    +0.000 A 
ATOM     20  C   UNL     1      -2.762  13.094  22.608  0.00  0.00    +0.000 A 
ATOM     21  C   UNL     1      -1.865  12.461  23.461  0.00  0.00    +0.000 A 
ATOM     22  C   UNL     1      -1.055  11.419  22.989  0.00  0.00    +0.000 A 
ENDBRANCH   2  17
BRANCH   5  23
ATOM     23  C   UNL     1       2.588   8.262  17.634  0.00  0.00    +0.000 C 
BRANCH  23  24
ATOM     24  O   UNL     1       2.917   7.240  18.582  0.00  0.00    +0.000 OA
BRANCH  24  25
ATOM     25  C   UNL     1       3.052   5.987  18.057  0.00  0.00    +0.000 A 
ATOM     26  C   UNL     1       1.931   5.165  18.175  0.00  0.00    +0.000 A 
ATOM     27  C   UNL     1       1.977   3.849  17.714  0.00  0.00    +0.000 A 
ATOM     28  C   UNL     1       3.135   3.362  17.109  0.00  0.00    +0.000 A 
ATOM     29  C   UNL     1       4.241   4.195  16.953  0.00  0.00    +0.000 A 
ATOM     30  C   UNL     1       4.198   5.509  17.421  0.00  0.00    +0.000 A 
ENDBRANCH  24  25
ENDBRANCH  23  24
ENDBRANCH   5  23
TORSDOF 5
ENDMDL
MODEL 9
REMARK VINA RESULT:      -7.7      4.665      8.635
REMARK  Name = 
REMARK  5 active torsions:
REMARK  status: ('A' for Active; 'I' for Inactive)
REMARK    1  A    between atoms: C_2  and  C_3
REMARK    2  A    between atoms: C_11  and  C_12
REMARK    3  A    between atoms: C_12  and  O_13
REMARK    4  A    between atoms: O_13  and  C_14
REMARK    5  A    between atoms: C_21  and  C_22
REMARK                            x       y       z     vdW  Elec       q    Type
REMARK                         _______ _______ _______ _____ _____    ______ ____
ROOT
ATOM      1  O   UNL     1       3.310  13.501  19.439  0.00  0.00    +0.000 OA
ATOM      2  C   UNL     1       2.081  13.427  19.384  0.00  0.00    +0.000 C 
ATOM      3  N   UNL     1       1.428  12.396  18.753  0.00  0.00    +0.000 N 
ATOM      4  C   UNL     1       2.032  11.301  18.018  0.00  0.00    +0.000 C 
ATOM      5  C   UNL     1       1.451  10.002  18.584  0.00  0.00    +0.000 C 
ATOM      6  O   UNL     1       0.013  10.024  18.456  0.00  0.00    +0.000 OA
ATOM      7  C   UNL     1      -0.520  11.155  19.148  0.00  0.00    +0.000 C 
ATOM      8  O   UNL     1       0.024  12.371  18.612  0.00  0.00    +0.000 OA
ENDROOT
BRANCH   7   9
ATOM      9  C   UNL     1      -2.011  11.212  18.893  0.00  0.00    +0.000 A 
ATOM     10  C   UNL     1      -2.557  10.401  17.873  0.00  0.00    +0.000 A 
ATOM     11  C   UNL     1      -3.914  10.459  17.550  0.00  0.00    +0.000 A 
ATOM     12  C   UNL     1      -4.748  11.328  18.244  0.00  0.00    +0.000 A 
ATOM     13 CL   UNL     1      -6.413  11.431  17.824  0.00  0.00    +0.000 Cl
ATOM     14  C   UNL     1      -4.241  12.122  19.268  0.00  0.00    +0.000 A 
ATOM     15  C   UNL     1      -2.880  12.066  19.591  0.00  0.00    +0.000 A 
ATOM     16 CL   UNL     1      -2.335  13.095  20.868  0.00  0.00    +0.000 Cl
ENDBRANCH   7   9
BRANCH   2  17
ATOM     17  C   UNL     1       1.255  14.439  20.109  0.00  0.00    +0.000 A 
ATOM     18  C   UNL     1       0.611  15.496  19.453  0.00  0.00    +0.000 A 
ATOM     19  C   UNL     1      -0.292  16.319  20.118  0.00  0.00    +0.000 A 
ATOM     20  C   UNL     1      -0.497  16.150  21.479  0.00  0.00    +0.000 A 
ATOM     21  C   UNL     1       0.188  15.156  22.171  0.00  0.00    +0.000 A 
ATOM     22  C   UNL     1       1.064  14.297  21.492  0.00  0.00    +0.000 A 
ENDBRANCH   2  17
BRANCH   5  23
ATOM     23  C   UNL     1       1.965   8.796  17.817  0.00  0.00    +0.000 C 
BRANCH  23  24
ATOM     24  O   UNL     1       2.846   8.066  18.679  0.00  0.00    +0.000 OA
BRANCH  24  25
ATOM     25  C   UNL     1       2.432   6.802  18.991  0.00  0.00    +0.000 A 
ATOM     26  C   UNL     1       2.391   5.906  17.923  0.00  0.00    +0.000 A 
ATOM     27  C   UNL     1       1.938   4.601  18.121  0.00  0.00    +0.000 A 
ATOM     28  C   UNL     1       1.552   4.183  19.394  0.00  0.00    +0.000 A 
ATOM     29  C   UNL     1       1.634   5.065  20.470  0.00  0.00    +0.000 A 
ATOM     30  C   UNL     1       2.080   6.372  20.270  0.00  0.00    +0.000 A 
ENDBRANCH  24  25
ENDBRANCH  23  24
ENDBRANCH   5  23
TORSDOF 5
ENDMDL
