MODEL 1
REMARK VINA RESULT:      -9.0      0.000      0.000
REMARK  Name = 
REMARK  7 active torsions:
REMARK  status: ('A' for Active; 'I' for Inactive)
REMARK    1  A    between atoms: C_1  and  C_2
REMARK    2  A    between atoms: C_3  and  C_4
REMARK    3  A    between atoms: N_13  and  S_14
REMARK    4  A    between atoms: S_14  and  C_17
REMARK    5  A    between atoms: C_20  and  N_21
REMARK    6  A    between atoms: C_22  and  C_24
REMARK    7  A    between atoms: C_27  and  N_28
REMARK                            x       y       z     vdW  Elec       q    Type
REMARK                         _______ _______ _______ _____ _____    ______ ____
ROOT
ATOM      1  C   UNL     1       3.297   4.988  19.612  0.00  0.00    +0.000 A 
ATOM      2  C   UNL     1       2.408   4.955  20.686  0.00  0.00    +0.000 A 
ATOM      3  C   UNL     1       1.616   6.069  20.969  0.00  0.00    +0.000 A 
ATOM      4  C   UNL     1       1.679   7.224  20.181  0.00  0.00    +0.000 A 
ATOM      5  C   UNL     1       2.552   7.224  19.076  0.00  0.00    +0.000 A 
ATOM      6 CL   UNL     1       2.650   8.597  18.025  0.00  0.00    +0.000 Cl
ATOM      7  C   UNL     1       3.344   6.106  18.775  0.00  0.00    +0.000 A 
ENDROOT
BRANCH   4   8
ATOM      8  N   UNL     1       0.900   8.378  20.469  0.00  0.00    +0.000 N 
ATOM      9  C   UNL     1       1.038   9.198  21.581  0.00  0.00    +0.000 C 
ATOM     10  O   UNL     1       1.856   9.052  22.485  0.00  0.00    +0.000 OA
ATOM     11  H   UNL     1       0.091   8.507  19.871  0.00  0.00    +0.000 HD
BRANCH   9  12
ATOM     12  C   UNL     1       0.039  10.291  21.734  0.00  0.00    +0.000 A 
ATOM     13  C   UNL     1      -0.582  10.425  22.984  0.00  0.00    +0.000 A 
ATOM     14  C   UNL     1      -1.622  11.337  23.164  0.00  0.00    +0.000 A 
ATOM     15  C   UNL     1      -2.023  12.171  22.121  0.00  0.00    +0.000 A 
ATOM     16  C   UNL     1      -1.380  12.056  20.883  0.00  0.00    +0.000 A 
ATOM     17  C   UNL     1      -0.336  11.141  20.691  0.00  0.00    +0.000 A 
BRANCH  15  18
ATOM     18  N   UNL     1      -3.200  12.917  22.236  0.00  0.00    +0.000 N 
ATOM     19  H   UNL     1      -3.334  13.353  23.144  0.00  0.00    +0.000 HD
ATOM     20  H   UNL     1      -3.379  13.551  21.465  0.00  0.00    +0.000 HD
ENDBRANCH  15  18
ENDBRANCH   9  12
ENDBRANCH   4   8
BRANCH   1  21
ATOM     21  S   UNL     1       4.301   3.550  19.283  0.00  0.00    +0.000 S 
ATOM     22  O   UNL     1       3.428   2.487  18.837  0.00  0.00    +0.000 OA
ATOM     23  O   UNL     1       5.129   3.374  20.458  0.00  0.00    +0.000 OA
BRANCH  21  30
ATOM     24  C   UNL     1       3.498   3.953  16.155  0.00  0.00    +0.000 C 
ATOM     25  C   UNL     1       4.942   3.750  16.573  0.00  0.00    +0.000 C 
ATOM     26  C   UNL     1       5.858   4.832  15.921  0.00  0.00    +0.000 C 
ATOM     27  N   UNL     1       6.929   4.999  16.876  0.00  0.00    +0.000 N 
ATOM     28  C   UNL     1       6.461   4.731  18.137  0.00  0.00    +0.000 C 
ATOM     29  O   UNL     1       7.003   5.086  19.168  0.00  0.00    +0.000 OA
ATOM     30  N   UNL     1       5.267   4.010  18.009  0.00  0.00    +0.000 N 
ATOM     31  H   UNL     1       7.649   5.700  16.787  0.00  0.00    +0.000 HD
BRANCH  26  32
ATOM     32  C   UNL     1       6.340   4.575  14.517  0.00  0.00    +0.000 A 
ATOM     33  C   UNL     1       7.431   5.306  14.016  0.00  0.00    +0.000 A 
ATOM     34  C   UNL     1       7.859   5.146  12.698  0.00  0.00    +0.000 A 
ATOM     35  C   UNL     1       7.213   4.236  11.863  0.00  0.00    +0.000 A 
ATOM     36  C   UNL     1       6.155   3.474  12.359  0.00  0.00    +0.000 A 
ATOM     37  C   UNL     1       5.722   3.639  13.676  0.00  0.00    +0.000 A 
ENDBRANCH  26  32
ENDBRANCH  21  30
ENDBRANCH   1  21
TORSDOF 6
ENDMDL
MODEL 2
REMARK VINA RESULT:      -8.8      2.124      2.925
REMARK  Name = 
REMARK  7 active torsions:
REMARK  status: ('A' for Active; 'I' for Inactive)
REMARK    1  A    between atoms: C_1  and  C_2
REMARK    2  A    between atoms: C_3  and  C_4
REMARK    3  A    between atoms: N_13  and  S_14
REMARK    4  A    between atoms: S_14  and  C_17
REMARK    5  A    between atoms: C_20  and  N_21
REMARK    6  A    between atoms: C_22  and  C_24
REMARK    7  A    between atoms: C_27  and  N_28
REMARK                            x       y       z     vdW  Elec       q    Type
REMARK                         _______ _______ _______ _____ _____    ______ ____
ROOT
ATOM      1  C   UNL     1       4.519   6.094  18.454  0.00  0.00    +0.000 A 
ATOM      2  C   UNL     1       4.301   7.043  17.456  0.00  0.00    +0.000 A 
ATOM      3  C   UNL     1       3.157   7.842  17.493  0.00  0.00    +0.000 A 
ATOM      4  C   UNL     1       2.221   7.724  18.528  0.00  0.00    +0.000 A 
ATOM      5  C   UNL     1       2.480   6.789  19.549  0.00  0.00    +0.000 A 
ATOM      6 CL   UNL     1       1.396   6.620  20.890  0.00  0.00    +0.000 Cl
ATOM      7  C   UNL     1       3.632   5.989  19.529  0.00  0.00    +0.000 A 
ENDROOT
BRANCH   4   8
ATOM      8  N   UNL     1       1.037   8.510  18.569  0.00  0.00    +0.000 N 
ATOM      9  C   UNL     1       0.979   9.897  18.563  0.00  0.00    +0.000 C 
ATOM     10  O   UNL     1       1.944  10.657  18.520  0.00  0.00    +0.000 OA
ATOM     11  H   UNL     1       0.187   7.991  18.764  0.00  0.00    +0.000 HD
BRANCH   9  12
ATOM     12  C   UNL     1      -0.368  10.511  18.723  0.00  0.00    +0.000 A 
ATOM     13  C   UNL     1      -1.390  10.047  17.885  0.00  0.00    +0.000 A 
ATOM     14  C   UNL     1      -2.641  10.664  17.884  0.00  0.00    +0.000 A 
ATOM     15  C   UNL     1      -2.913  11.717  18.757  0.00  0.00    +0.000 A 
ATOM     16  C   UNL     1      -1.898  12.158  19.615  0.00  0.00    +0.000 A 
ATOM     17  C   UNL     1      -0.638  11.546  19.622  0.00  0.00    +0.000 A 
BRANCH  15  18
ATOM     18  N   UNL     1      -4.079  12.472  18.599  0.00  0.00    +0.000 N 
ATOM     19  H   UNL     1      -4.937  11.928  18.615  0.00  0.00    +0.000 HD
ATOM     20  H   UNL     1      -4.129  13.303  19.178  0.00  0.00    +0.000 HD
ENDBRANCH  15  18
ENDBRANCH   9  12
ENDBRANCH   4   8
BRANCH   1  21
ATOM     21  S   UNL     1       5.987   5.083  18.372  0.00  0.00    +0.000 S 
ATOM     22  O   UNL     1       5.652   3.765  18.866  0.00  0.00    +0.000 OA
ATOM     23  O   UNL     1       7.033   5.860  19.006  0.00  0.00    +0.000 OA
BRANCH  21  30
ATOM     24  C   UNL     1       4.202   3.710  16.023  0.00  0.00    +0.000 C 
ATOM     25  C   UNL     1       5.685   3.969  15.830  0.00  0.00    +0.000 C 
ATOM     26  C   UNL     1       5.942   4.692  14.472  0.00  0.00    +0.000 C 
ATOM     27  N   UNL     1       7.126   5.482  14.720  0.00  0.00    +0.000 N 
ATOM     28  C   UNL     1       7.174   5.827  16.046  0.00  0.00    +0.000 C 
ATOM     29  O   UNL     1       7.845   6.735  16.503  0.00  0.00    +0.000 OA
ATOM     30  N   UNL     1       6.315   4.970  16.745  0.00  0.00    +0.000 N 
ATOM     31  H   UNL     1       7.504   6.140  14.055  0.00  0.00    +0.000 HD
BRANCH  26  32
ATOM     32  C   UNL     1       6.041   3.831  13.239  0.00  0.00    +0.000 A 
ATOM     33  C   UNL     1       4.864   3.370  12.623  0.00  0.00    +0.000 A 
ATOM     34  C   UNL     1       4.918   2.512  11.523  0.00  0.00    +0.000 A 
ATOM     35  C   UNL     1       6.152   2.118  11.009  0.00  0.00    +0.000 A 
ATOM     36  C   UNL     1       7.327   2.602  11.585  0.00  0.00    +0.000 A 
ATOM     37  C   UNL     1       7.274   3.454  12.689  0.00  0.00    +0.000 A 
ENDBRANCH  26  32
ENDBRANCH  21  30
ENDBRANCH   1  21
TORSDOF 6
ENDMDL
MODEL 3
REMARK VINA RESULT:      -8.4      0.405      1.232
REMARK  Name = 
REMARK  7 active torsions:
REMARK  status: ('A' for Active; 'I' for Inactive)
REMARK    1  A    between atoms: C_1  and  C_2
REMARK    2  A    between atoms: C_3  and  C_4
REMARK    3  A    between atoms: N_13  and  S_14
REMARK    4  A    between atoms: S_14  and  C_17
REMARK    5  A    between atoms: C_20  and  N_21
REMARK    6  A    between atoms: C_22  and  C_24
REMARK    7  A    between atoms: C_27  and  N_28
REMARK                            x       y       z     vdW  Elec       q    Type
REMARK                         _______ _______ _______ _____ _____    ______ ____
ROOT
ATOM      1  C   UNL     1       3.447   5.138  19.579  0.00  0.00    +0.000 A 
ATOM      2  C   UNL     1       2.579   5.130  20.670  0.00  0.00    +0.000 A 
ATOM      3  C   UNL     1       1.752   6.229  20.909  0.00  0.00    +0.000 A 
ATOM      4  C   UNL     1       1.760   7.342  20.061  0.00  0.00    +0.000 A 
ATOM      5  C   UNL     1       2.613   7.314  18.941  0.00  0.00    +0.000 A 
ATOM      6 CL   UNL     1       2.643   8.632  17.817  0.00  0.00    +0.000 Cl
ATOM      7  C   UNL     1       3.440   6.210  18.684  0.00  0.00    +0.000 A 
ENDROOT
BRANCH   4   8
ATOM      8  N   UNL     1       0.944   8.482  20.302  0.00  0.00    +0.000 N 
ATOM      9  C   UNL     1       0.851   9.178  21.500  0.00  0.00    +0.000 C 
ATOM     10  O   UNL     1       1.462   8.916  22.533  0.00  0.00    +0.000 OA
ATOM     11  H   UNL     1       0.279   8.694  19.567  0.00  0.00    +0.000 HD
BRANCH   9  12
ATOM     12  C   UNL     1      -0.152  10.277  21.559  0.00  0.00    +0.000 A 
ATOM     13  C   UNL     1      -0.660  10.750  20.341  0.00  0.00    +0.000 A 
ATOM     14  C   UNL     1      -1.500  11.863  20.309  0.00  0.00    +0.000 A 
ATOM     15  C   UNL     1      -1.894  12.489  21.491  0.00  0.00    +0.000 A 
ATOM     16  C   UNL     1      -1.408  11.995  22.708  0.00  0.00    +0.000 A 
ATOM     17  C   UNL     1      -0.562  10.879  22.751  0.00  0.00    +0.000 A 
BRANCH  15  18
ATOM     18  N   UNL     1      -2.545  13.725  21.443  0.00  0.00    +0.000 N 
ATOM     19  H   UNL     1      -3.560  13.667  21.460  0.00  0.00    +0.000 HD
ATOM     20  H   UNL     1      -2.181  14.423  22.083  0.00  0.00    +0.000 HD
ENDBRANCH  15  18
ENDBRANCH   9  12
ENDBRANCH   4   8
BRANCH   1  21
ATOM     21  S   UNL     1       4.498   3.721  19.307  0.00  0.00    +0.000 S 
ATOM     22  O   UNL     1       3.654   2.599  18.955  0.00  0.00    +0.000 OA
ATOM     23  O   UNL     1       5.367   3.650  20.464  0.00  0.00    +0.000 OA
BRANCH  21  30
ATOM     24  C   UNL     1       3.549   4.059  16.213  0.00  0.00    +0.000 C 
ATOM     25  C   UNL     1       5.010   3.846  16.566  0.00  0.00    +0.000 C 
ATOM     26  C   UNL     1       5.907   4.899  15.844  0.00  0.00    +0.000 C 
ATOM     27  N   UNL     1       7.025   5.073  16.742  0.00  0.00    +0.000 N 
ATOM     28  C   UNL     1       6.615   4.843  18.030  0.00  0.00    +0.000 C 
ATOM     29  O   UNL     1       7.211   5.215  19.025  0.00  0.00    +0.000 OA
ATOM     30  N   UNL     1       5.407   4.136  17.977  0.00  0.00    +0.000 N 
ATOM     31  H   UNL     1       7.749   5.762  16.601  0.00  0.00    +0.000 HD
BRANCH  26  32
ATOM     32  C   UNL     1       6.317   4.601  14.425  0.00  0.00    +0.000 A 
ATOM     33  C   UNL     1       5.622   3.619  13.697  0.00  0.00    +0.000 A 
ATOM     34  C   UNL     1       6.020   3.266  12.407  0.00  0.00    +0.000 A 
ATOM     35  C   UNL     1       7.109   3.904  11.816  0.00  0.00    +0.000 A 
ATOM     36  C   UNL     1       7.781   4.909  12.511  0.00  0.00    +0.000 A 
ATOM     37  C   UNL     1       7.388   5.258  13.804  0.00  0.00    +0.000 A 
ENDBRANCH  26  32
ENDBRANCH  21  30
ENDBRANCH   1  21
TORSDOF 6
ENDMDL
MODEL 4
REMARK VINA RESULT:      -8.4      1.104      2.081
REMARK  Name = 
REMARK  7 active torsions:
REMARK  status: ('A' for Active; 'I' for Inactive)
REMARK    1  A    between atoms: C_1  and  C_2
REMARK    2  A    between atoms: C_3  and  C_4
REMARK    3  A    between atoms: N_13  and  S_14
REMARK    4  A    between atoms: S_14  and  C_17
REMARK    5  A    between atoms: C_20  and  N_21
REMARK    6  A    between atoms: C_22  and  C_24
REMARK    7  A    between atoms: C_27  and  N_28
REMARK                            x       y       z     vdW  Elec       q    Type
REMARK                         _______ _______ _______ _____ _____    ______ ____
ROOT
ATOM      1  C   UNL     1       3.575   5.886  19.443  0.00  0.00    +0.000 A 
ATOM      2  C   UNL     1       2.649   5.827  20.483  0.00  0.00    +0.000 A 
ATOM      3  C   UNL     1       1.689   6.832  20.619  0.00  0.00    +0.000 A 
ATOM      4  C   UNL     1       1.622   7.899  19.716  0.00  0.00    +0.000 A 
ATOM      5  C   UNL     1       2.539   7.920  18.648  0.00  0.00    +0.000 A 
ATOM      6 CL   UNL     1       2.488   9.180  17.461  0.00  0.00    +0.000 Cl
ATOM      7  C   UNL     1       3.500   6.909  18.494  0.00  0.00    +0.000 A 
ENDROOT
BRANCH   4   8
ATOM      8  N   UNL     1       0.670   8.946  19.853  0.00  0.00    +0.000 N 
ATOM      9  C   UNL     1       0.620   9.872  20.886  0.00  0.00    +0.000 C 
ATOM     10  O   UNL     1       1.394   9.930  21.839  0.00  0.00    +0.000 OA
ATOM     11  H   UNL     1      -0.111   8.900  19.208  0.00  0.00    +0.000 HD
BRANCH   9  12
ATOM     12  C   UNL     1      -0.533  10.815  20.885  0.00  0.00    +0.000 A 
ATOM     13  C   UNL     1      -1.154  11.070  19.655  0.00  0.00    +0.000 A 
ATOM     14  C   UNL     1      -2.152  12.040  19.552  0.00  0.00    +0.000 A 
ATOM     15  C   UNL     1      -2.587  12.731  20.683  0.00  0.00    +0.000 A 
ATOM     16  C   UNL     1      -1.986  12.452  21.916  0.00  0.00    +0.000 A 
ATOM     17  C   UNL     1      -0.981  11.481  22.028  0.00  0.00    +0.000 A 
BRANCH  15  18
ATOM     18  N   UNL     1      -3.418  13.846  20.542  0.00  0.00    +0.000 N 
ATOM     19  H   UNL     1      -3.052  14.568  19.927  0.00  0.00    +0.000 HD
ATOM     20  H   UNL     1      -4.392  13.631  20.359  0.00  0.00    +0.000 HD
ENDBRANCH  15  18
ENDBRANCH   9  12
ENDBRANCH   4   8
BRANCH   1  21
ATOM     21  S   UNL     1       4.793   4.590  19.302  0.00  0.00    +0.000 S 
ATOM     22  O   UNL     1       4.252   3.398  19.918  0.00  0.00    +0.000 OA
ATOM     23  O   UNL     1       6.033   5.165  19.783  0.00  0.00    +0.000 OA
BRANCH  21  30
ATOM     24  C   UNL     1       7.477   4.417  17.470  0.00  0.00    +0.000 C 
ATOM     25  C   UNL     1       6.121   4.692  16.848  0.00  0.00    +0.000 C 
ATOM     26  C   UNL     1       5.876   3.749  15.630  0.00  0.00    +0.000 C 
ATOM     27  N   UNL     1       4.442   3.579  15.608  0.00  0.00    +0.000 N 
ATOM     28  C   UNL     1       3.950   3.691  16.882  0.00  0.00    +0.000 C 
ATOM     29  O   UNL     1       2.860   3.286  17.244  0.00  0.00    +0.000 OA
ATOM     30  N   UNL     1       4.923   4.326  17.665  0.00  0.00    +0.000 N 
ATOM     31  H   UNL     1       3.966   2.947  14.981  0.00  0.00    +0.000 HD
BRANCH  26  32
ATOM     32  C   UNL     1       6.451   4.172  14.302  0.00  0.00    +0.000 A 
ATOM     33  C   UNL     1       6.059   3.496  13.133  0.00  0.00    +0.000 A 
ATOM     34  C   UNL     1       6.625   3.813  11.898  0.00  0.00    +0.000 A 
ATOM     35  C   UNL     1       7.579   4.824  11.808  0.00  0.00    +0.000 A 
ATOM     36  C   UNL     1       7.947   5.531  12.953  0.00  0.00    +0.000 A 
ATOM     37  C   UNL     1       7.386   5.210  14.192  0.00  0.00    +0.000 A 
ENDBRANCH  26  32
ENDBRANCH  21  30
ENDBRANCH   1  21
TORSDOF 6
ENDMDL
MODEL 5
REMARK VINA RESULT:      -8.1      3.983     11.460
REMARK  Name = 
REMARK  7 active torsions:
REMARK  status: ('A' for Active; 'I' for Inactive)
REMARK    1  A    between atoms: C_1  and  C_2
REMARK    2  A    between atoms: C_3  and  C_4
REMARK    3  A    between atoms: N_13  and  S_14
REMARK    4  A    between atoms: S_14  and  C_17
REMARK    5  A    between atoms: C_20  and  N_21
REMARK    6  A    between atoms: C_22  and  C_24
REMARK    7  A    between atoms: C_27  and  N_28
REMARK                            x       y       z     vdW  Elec       q    Type
REMARK                         _______ _______ _______ _____ _____    ______ ____
ROOT
ATOM      1  C   UNL     1       0.913  11.090  19.385  0.00  0.00    +0.000 A 
ATOM      2  C   UNL     1       1.466  10.686  18.171  0.00  0.00    +0.000 A 
ATOM      3  C   UNL     1       1.896   9.368  18.007  0.00  0.00    +0.000 A 
ATOM      4  C   UNL     1       1.768   8.428  19.036  0.00  0.00    +0.000 A 
ATOM      5  C   UNL     1       1.168   8.844  20.240  0.00  0.00    +0.000 A 
ATOM      6 CL   UNL     1       0.927   7.727  21.542  0.00  0.00    +0.000 Cl
ATOM      7  C   UNL     1       0.721  10.163  20.412  0.00  0.00    +0.000 A 
ENDROOT
BRANCH   4   8
ATOM      8  N   UNL     1       2.224   7.088  18.897  0.00  0.00    +0.000 N 
ATOM      9  C   UNL     1       3.289   6.668  18.113  0.00  0.00    +0.000 C 
ATOM     10  O   UNL     1       4.002   7.390  17.420  0.00  0.00    +0.000 OA
ATOM     11  H   UNL     1       1.614   6.386  19.301  0.00  0.00    +0.000 HD
BRANCH   9  12
ATOM     12  C   UNL     1       3.522   5.199  18.031  0.00  0.00    +0.000 A 
ATOM     13  C   UNL     1       2.447   4.400  17.621  0.00  0.00    +0.000 A 
ATOM     14  C   UNL     1       2.547   3.008  17.647  0.00  0.00    +0.000 A 
ATOM     15  C   UNL     1       3.738   2.391  18.029  0.00  0.00    +0.000 A 
ATOM     16  C   UNL     1       4.820   3.194  18.410  0.00  0.00    +0.000 A 
ATOM     17  C   UNL     1       4.728   4.592  18.388  0.00  0.00    +0.000 A 
BRANCH  15  18
ATOM     18  N   UNL     1       3.765   1.014  18.269  0.00  0.00    +0.000 N 
ATOM     19  H   UNL     1       4.190   0.749  19.153  0.00  0.00    +0.000 HD
ATOM     20  H   UNL     1       2.888   0.535  18.095  0.00  0.00    +0.000 HD
ENDBRANCH  15  18
ENDBRANCH   9  12
ENDBRANCH   4   8
BRANCH   1  21
ATOM     21  S   UNL     1       0.381  12.784  19.565  0.00  0.00    +0.000 S 
ATOM     22  O   UNL     1       0.419  13.406  18.259  0.00  0.00    +0.000 OA
ATOM     23  O   UNL     1       1.161  13.325  20.659  0.00  0.00    +0.000 OA
BRANCH  21  30
ATOM     24  C   UNL     1      -1.127  14.302  22.017  0.00  0.00    +0.000 C 
ATOM     25  C   UNL     1      -1.702  13.037  21.407  0.00  0.00    +0.000 C 
ATOM     26  C   UNL     1      -3.212  13.230  21.068  0.00  0.00    +0.000 C 
ATOM     27  N   UNL     1      -3.425  12.362  19.933  0.00  0.00    +0.000 N 
ATOM     28  C   UNL     1      -2.260  12.251  19.219  0.00  0.00    +0.000 C 
ATOM     29  O   UNL     1      -2.187  11.872  18.064  0.00  0.00    +0.000 OA
ATOM     30  N   UNL     1      -1.208  12.664  20.046  0.00  0.00    +0.000 N 
ATOM     31  H   UNL     1      -4.291  12.324  19.417  0.00  0.00    +0.000 HD
BRANCH  26  32
ATOM     32  C   UNL     1      -4.204  13.015  22.183  0.00  0.00    +0.000 A 
ATOM     33  C   UNL     1      -5.571  13.243  21.945  0.00  0.00    +0.000 A 
ATOM     34  C   UNL     1      -6.508  13.124  22.972  0.00  0.00    +0.000 A 
ATOM     35  C   UNL     1      -6.095  12.757  24.251  0.00  0.00    +0.000 A 
ATOM     36  C   UNL     1      -4.747  12.489  24.492  0.00  0.00    +0.000 A 
ATOM     37  C   UNL     1      -3.807  12.614  23.466  0.00  0.00    +0.000 A 
ENDBRANCH  26  32
ENDBRANCH  21  30
ENDBRANCH   1  21
TORSDOF 6
ENDMDL
MODEL 6
REMARK VINA RESULT:      -8.1      4.034     11.372
REMARK  Name = 
REMARK  7 active torsions:
REMARK  status: ('A' for Active; 'I' for Inactive)
REMARK    1  A    between atoms: C_1  and  C_2
REMARK    2  A    between atoms: C_3  and  C_4
REMARK    3  A    between atoms: N_13  and  S_14
REMARK    4  A    between atoms: S_14  and  C_17
REMARK    5  A    between atoms: C_20  and  N_21
REMARK    6  A    between atoms: C_22  and  C_24
REMARK    7  A    between atoms: C_27  and  N_28
REMARK                            x       y       z     vdW  Elec       q    Type
REMARK                         _______ _______ _______ _____ _____    ______ ____
ROOT
ATOM      1  C   UNL     1       0.727  11.031  19.418  0.00  0.00    +0.000 A 
ATOM      2  C   UNL     1       1.294  10.592  18.222  0.00  0.00    +0.000 A 
ATOM      3  C   UNL     1       1.809   9.298  18.129  0.00  0.00    +0.000 A 
ATOM      4  C   UNL     1       1.753   8.414  19.213  0.00  0.00    +0.000 A 
ATOM      5  C   UNL     1       1.139   8.861  20.399  0.00  0.00    +0.000 A 
ATOM      6 CL   UNL     1       0.986   7.810  21.768  0.00  0.00    +0.000 Cl
ATOM      7  C   UNL     1       0.608  10.156  20.500  0.00  0.00    +0.000 A 
ENDROOT
BRANCH   4   8
ATOM      8  N   UNL     1       2.295   7.101  19.147  0.00  0.00    +0.000 N 
ATOM      9  C   UNL     1       3.262   6.664  18.251  0.00  0.00    +0.000 C 
ATOM     10  O   UNL     1       3.797   7.345  17.380  0.00  0.00    +0.000 OA
ATOM     11  H   UNL     1       1.816   6.412  19.716  0.00  0.00    +0.000 HD
BRANCH   9  12
ATOM     12  C   UNL     1       3.603   5.215  18.291  0.00  0.00    +0.000 A 
ATOM     13  C   UNL     1       2.964   4.377  17.366  0.00  0.00    +0.000 A 
ATOM     14  C   UNL     1       3.132   2.994  17.429  0.00  0.00    +0.000 A 
ATOM     15  C   UNL     1       3.982   2.425  18.377  0.00  0.00    +0.000 A 
ATOM     16  C   UNL     1       4.643   3.267  19.280  0.00  0.00    +0.000 A 
ATOM     17  C   UNL     1       4.479   4.658  19.226  0.00  0.00    +0.000 A 
BRANCH  15  18
ATOM     18  N   UNL     1       3.974   1.042  18.581  0.00  0.00    +0.000 N 
ATOM     19  H   UNL     1       4.131   0.492  17.741  0.00  0.00    +0.000 HD
ATOM     20  H   UNL     1       4.530   0.725  19.368  0.00  0.00    +0.000 HD
ENDBRANCH  15  18
ENDBRANCH   9  12
ENDBRANCH   4   8
BRANCH   1  21
ATOM     21  S   UNL     1       0.086  12.694  19.505  0.00  0.00    +0.000 S 
ATOM     22  O   UNL     1       0.399  13.360  18.259  0.00  0.00    +0.000 OA
ATOM     23  O   UNL     1       0.562  13.231  20.763  0.00  0.00    +0.000 OA
BRANCH  21  30
ATOM     24  C   UNL     1      -2.041  14.159  21.484  0.00  0.00    +0.000 C 
ATOM     25  C   UNL     1      -2.387  12.855  20.790  0.00  0.00    +0.000 C 
ATOM     26  C   UNL     1      -3.780  12.958  20.095  0.00  0.00    +0.000 C 
ATOM     27  N   UNL     1      -3.669  12.063  18.966  0.00  0.00    +0.000 N 
ATOM     28  C   UNL     1      -2.363  12.008  18.554  0.00  0.00    +0.000 C 
ATOM     29  O   UNL     1      -1.996  11.617  17.461  0.00  0.00    +0.000 OA
ATOM     30  N   UNL     1      -1.563  12.492  19.597  0.00  0.00    +0.000 N 
ATOM     31  H   UNL     1      -4.384  11.969  18.259  0.00  0.00    +0.000 HD
BRANCH  26  32
ATOM     32  C   UNL     1      -4.997  12.704  20.946  0.00  0.00    +0.000 A 
ATOM     33  C   UNL     1      -6.094  12.016  20.396  0.00  0.00    +0.000 A 
ATOM     34  C   UNL     1      -7.264  11.826  21.132  0.00  0.00    +0.000 A 
ATOM     35  C   UNL     1      -7.351  12.305  22.437  0.00  0.00    +0.000 A 
ATOM     36  C   UNL     1      -6.256  12.953  23.010  0.00  0.00    +0.000 A 
ATOM     37  C   UNL     1      -5.086  13.150  22.272  0.00  0.00    +0.000 A 
ENDBRANCH  26  32
ENDBRANCH  21  30
ENDBRANCH   1  21
TORSDOF 6
ENDMDL
MODEL 7
REMARK VINA RESULT:      -8.1      4.320     10.399
REMARK  Name = 
REMARK  7 active torsions:
REMARK  status: ('A' for Active; 'I' for Inactive)
REMARK    1  A    between atoms: C_1  and  C_2
REMARK    2  A    between atoms: C_3  and  C_4
REMARK    3  A    between atoms: N_13  and  S_14
REMARK    4  A    between atoms: S_14  and  C_17
REMARK    5  A    between atoms: C_20  and  N_21
REMARK    6  A    between atoms: C_22  and  C_24
REMARK    7  A    between atoms: C_27  and  N_28
REMARK                            x       y       z     vdW  Elec       q    Type
REMARK                         _______ _______ _______ _____ _____    ______ ____
ROOT
ATOM      1  C   UNL     1       0.003  10.804  21.470  0.00  0.00    +0.000 A 
ATOM      2  C   UNL     1       0.310   9.877  22.465  0.00  0.00    +0.000 A 
ATOM      3  C   UNL     1       1.008   8.713  22.141  0.00  0.00    +0.000 A 
ATOM      4  C   UNL     1       1.429   8.460  20.830  0.00  0.00    +0.000 A 
ATOM      5  C   UNL     1       1.147   9.427  19.847  0.00  0.00    +0.000 A 
ATOM      6 CL   UNL     1       1.678   9.209  18.212  0.00  0.00    +0.000 Cl
ATOM      7  C   UNL     1       0.456  10.606  20.163  0.00  0.00    +0.000 A 
ENDROOT
BRANCH   4   8
ATOM      8  N   UNL     1       2.119   7.268  20.475  0.00  0.00    +0.000 N 
ATOM      9  C   UNL     1       1.577   5.989  20.453  0.00  0.00    +0.000 C 
ATOM     10  O   UNL     1       0.419   5.694  20.735  0.00  0.00    +0.000 OA
ATOM     11  H   UNL     1       3.123   7.369  20.374  0.00  0.00    +0.000 HD
BRANCH   9  12
ATOM     12  C   UNL     1       2.515   4.871  20.155  0.00  0.00    +0.000 A 
ATOM     13  C   UNL     1       2.101   3.576  20.496  0.00  0.00    +0.000 A 
ATOM     14  C   UNL     1       2.975   2.497  20.370  0.00  0.00    +0.000 A 
ATOM     15  C   UNL     1       4.256   2.679  19.851  0.00  0.00    +0.000 A 
ATOM     16  C   UNL     1       4.656   3.969  19.483  0.00  0.00    +0.000 A 
ATOM     17  C   UNL     1       3.786   5.060  19.607  0.00  0.00    +0.000 A 
BRANCH  15  18
ATOM     18  N   UNL     1       5.197   1.648  19.935  0.00  0.00    +0.000 N 
ATOM     19  H   UNL     1       6.105   1.874  19.540  0.00  0.00    +0.000 HD
ATOM     20  H   UNL     1       5.263   1.206  20.846  0.00  0.00    +0.000 HD
ENDBRANCH  15  18
ENDBRANCH   9  12
ENDBRANCH   4   8
BRANCH   1  21
ATOM     21  S   UNL     1      -0.899  12.278  21.917  0.00  0.00    +0.000 S 
ATOM     22  O   UNL     1      -0.221  12.895  23.036  0.00  0.00    +0.000 OA
ATOM     23  O   UNL     1      -2.283  11.869  22.033  0.00  0.00    +0.000 OA
BRANCH  21  30
ATOM     24  C   UNL     1       1.558  14.263  21.134  0.00  0.00    +0.000 C 
ATOM     25  C   UNL     1       0.180  14.446  20.527  0.00  0.00    +0.000 C 
ATOM     26  C   UNL     1       0.279  14.588  18.977  0.00  0.00    +0.000 C 
ATOM     27  N   UNL     1      -0.971  14.042  18.500  0.00  0.00    +0.000 N 
ATOM     28  C   UNL     1      -1.415  13.087  19.376  0.00  0.00    +0.000 C 
ATOM     29  O   UNL     1      -2.240  12.231  19.111  0.00  0.00    +0.000 OA
ATOM     30  N   UNL     1      -0.742  13.270  20.591  0.00  0.00    +0.000 N 
ATOM     31  H   UNL     1      -1.182  13.910  17.522  0.00  0.00    +0.000 HD
BRANCH  26  32
ATOM     32  C   UNL     1       0.586  15.957  18.427  0.00  0.00    +0.000 A 
ATOM     33  C   UNL     1      -0.461  16.878  18.243  0.00  0.00    +0.000 A 
ATOM     34  C   UNL     1      -0.225  18.128  17.669  0.00  0.00    +0.000 A 
ATOM     35  C   UNL     1       1.067  18.485  17.287  0.00  0.00    +0.000 A 
ATOM     36  C   UNL     1       2.121  17.597  17.501  0.00  0.00    +0.000 A 
ATOM     37  C   UNL     1       1.885  16.344  18.069  0.00  0.00    +0.000 A 
ENDBRANCH  26  32
ENDBRANCH  21  30
ENDBRANCH   1  21
TORSDOF 6
ENDMDL
MODEL 8
REMARK VINA RESULT:      -8.1      4.181     10.910
REMARK  Name = 
REMARK  7 active torsions:
REMARK  status: ('A' for Active; 'I' for Inactive)
REMARK    1  A    between atoms: C_1  and  C_2
REMARK    2  A    between atoms: C_3  and  C_4
REMARK    3  A    between atoms: N_13  and  S_14
REMARK    4  A    between atoms: S_14  and  C_17
REMARK    5  A    between atoms: C_20  and  N_21
REMARK    6  A    between atoms: C_22  and  C_24
REMARK    7  A    between atoms: C_27  and  N_28
REMARK                            x       y       z     vdW  Elec       q    Type
REMARK                         _______ _______ _______ _____ _____    ______ ____
ROOT
ATOM      1  C   UNL     1       0.674  10.396  21.090  0.00  0.00    +0.000 A 
ATOM      2  C   UNL     1       0.947   9.376  22.001  0.00  0.00    +0.000 A 
ATOM      3  C   UNL     1       1.471   8.163  21.551  0.00  0.00    +0.000 A 
ATOM      4  C   UNL     1       1.750   7.950  20.196  0.00  0.00    +0.000 A 
ATOM      5  C   UNL     1       1.508   9.006  19.297  0.00  0.00    +0.000 A 
ATOM      6 CL   UNL     1       1.874   8.838  17.613  0.00  0.00    +0.000 Cl
ATOM      7  C   UNL     1       0.992  10.234  19.739  0.00  0.00    +0.000 A 
ENDROOT
BRANCH   4   8
ATOM      8  N   UNL     1       2.260   6.712  19.715  0.00  0.00    +0.000 N 
ATOM      9  C   UNL     1       1.708   5.460  19.945  0.00  0.00    +0.000 C 
ATOM     10  O   UNL     1       0.694   5.229  20.599  0.00  0.00    +0.000 OA
ATOM     11  H   UNL     1       3.181   6.765  19.294  0.00  0.00    +0.000 HD
BRANCH   9  12
ATOM     12  C   UNL     1       2.473   4.288  19.435  0.00  0.00    +0.000 A 
ATOM     13  C   UNL     1       2.035   3.705  18.239  0.00  0.00    +0.000 A 
ATOM     14  C   UNL     1       2.617   2.527  17.769  0.00  0.00    +0.000 A 
ATOM     15  C   UNL     1       3.682   1.941  18.453  0.00  0.00    +0.000 A 
ATOM     16  C   UNL     1       4.137   2.543  19.632  0.00  0.00    +0.000 A 
ATOM     17  C   UNL     1       3.558   3.725  20.113  0.00  0.00    +0.000 A 
BRANCH  15  18
ATOM     18  N   UNL     1       4.110   0.656  18.109  0.00  0.00    +0.000 N 
ATOM     19  H   UNL     1       4.410   0.557  17.143  0.00  0.00    +0.000 HD
ATOM     20  H   UNL     1       4.755   0.232  18.766  0.00  0.00    +0.000 HD
ENDBRANCH  15  18
ENDBRANCH   9  12
ENDBRANCH   4   8
BRANCH   1  21
ATOM     21  S   UNL     1      -0.004  11.930  21.697  0.00  0.00    +0.000 S 
ATOM     22  O   UNL     1       0.941  12.986  21.402  0.00  0.00    +0.000 OA
ATOM     23  O   UNL     1      -0.406  11.668  23.064  0.00  0.00    +0.000 OA
BRANCH  21  30
ATOM     24  C   UNL     1      -3.056  12.495  22.674  0.00  0.00    +0.000 C 
ATOM     25  C   UNL     1      -2.764  11.984  21.276  0.00  0.00    +0.000 C 
ATOM     26  C   UNL     1      -3.516  12.840  20.211  0.00  0.00    +0.000 C 
ATOM     27  N   UNL     1      -2.662  12.771  19.048  0.00  0.00    +0.000 N 
ATOM     28  C   UNL     1      -1.360  12.613  19.445  0.00  0.00    +0.000 C 
ATOM     29  O   UNL     1      -0.389  12.843  18.749  0.00  0.00    +0.000 OA
ATOM     30  N   UNL     1      -1.368  12.168  20.774  0.00  0.00    +0.000 N 
ATOM     31  H   UNL     1      -2.829  13.300  18.204  0.00  0.00    +0.000 HD
BRANCH  26  32
ATOM     32  C   UNL     1      -4.952  12.483  19.925  0.00  0.00    +0.000 A 
ATOM     33  C   UNL     1      -5.269  11.787  18.745  0.00  0.00    +0.000 A 
ATOM     34  C   UNL     1      -6.594  11.503  18.414  0.00  0.00    +0.000 A 
ATOM     35  C   UNL     1      -7.624  11.894  19.267  0.00  0.00    +0.000 A 
ATOM     36  C   UNL     1      -7.321  12.549  20.461  0.00  0.00    +0.000 A 
ATOM     37  C   UNL     1      -5.995  12.840  20.791  0.00  0.00    +0.000 A 
ENDBRANCH  26  32
ENDBRANCH  21  30
ENDBRANCH   1  21
TORSDOF 6
ENDMDL
MODEL 9
REMARK VINA RESULT:      -8.0      4.017     11.250
REMARK  Name = 
REMARK  7 active torsions:
REMARK  status: ('A' for Active; 'I' for Inactive)
REMARK    1  A    between atoms: C_1  and  C_2
REMARK    2  A    between atoms: C_3  and  C_4
REMARK    3  A    between atoms: N_13  and  S_14
REMARK    4  A    between atoms: S_14  and  C_17
REMARK    5  A    between atoms: C_20  and  N_21
REMARK    6  A    between atoms: C_22  and  C_24
REMARK    7  A    between atoms: C_27  and  N_28
REMARK                            x       y       z     vdW  Elec       q    Type
REMARK                         _______ _______ _______ _____ _____    ______ ____
ROOT
ATOM      1  C   UNL     1       1.016  11.241  19.054  0.00  0.00    +0.000 A 
ATOM      2  C   UNL     1       1.538  10.717  17.872  0.00  0.00    +0.000 A 
ATOM      3  C   UNL     1       1.958   9.386  17.827  0.00  0.00    +0.000 A 
ATOM      4  C   UNL     1       1.850   8.552  18.946  0.00  0.00    +0.000 A 
ATOM      5  C   UNL     1       1.281   9.087  20.117  0.00  0.00    +0.000 A 
ATOM      6 CL   UNL     1       1.067   8.104  21.527  0.00  0.00    +0.000 Cl
ATOM      7  C   UNL     1       0.845  10.419  20.170  0.00  0.00    +0.000 A 
ENDROOT
BRANCH   4   8
ATOM      8  N   UNL     1       2.297   7.202  18.927  0.00  0.00    +0.000 N 
ATOM      9  C   UNL     1       3.391   6.715  18.225  0.00  0.00    +0.000 C 
ATOM     10  O   UNL     1       4.141   7.378  17.513  0.00  0.00    +0.000 OA
ATOM     11  H   UNL     1       1.662   6.536  19.354  0.00  0.00    +0.000 HD
BRANCH   9  12
ATOM     12  C   UNL     1       3.610   5.243  18.264  0.00  0.00    +0.000 A 
ATOM     13  C   UNL     1       2.881   4.460  17.358  0.00  0.00    +0.000 A 
ATOM     14  C   UNL     1       2.932   3.067  17.423  0.00  0.00    +0.000 A 
ATOM     15  C   UNL     1       3.753   2.431  18.354  0.00  0.00    +0.000 A 
ATOM     16  C   UNL     1       4.504   3.217  19.237  0.00  0.00    +0.000 A 
ATOM     17  C   UNL     1       4.457   4.616  19.181  0.00  0.00    +0.000 A 
BRANCH  15  18
ATOM     18  N   UNL     1       3.633   1.055  18.565  0.00  0.00    +0.000 N 
ATOM     19  H   UNL     1       2.695   0.689  18.430  0.00  0.00    +0.000 HD
ATOM     20  H   UNL     1       4.344   0.491  18.111  0.00  0.00    +0.000 HD
ENDBRANCH  15  18
ENDBRANCH   9  12
ENDBRANCH   4   8
BRANCH   1  21
ATOM     21  S   UNL     1       0.496  12.948  19.080  0.00  0.00    +0.000 S 
ATOM     22  O   UNL     1      -0.357  13.174  17.934  0.00  0.00    +0.000 OA
ATOM     23  O   UNL     1       1.707  13.723  19.256  0.00  0.00    +0.000 OA
BRANCH  21  30
ATOM     24  C   UNL     1      -2.438  11.682  19.692  0.00  0.00    +0.000 C 
ATOM     25  C   UNL     1      -1.904  12.848  20.503  0.00  0.00    +0.000 C 
ATOM     26  C   UNL     1      -2.057  12.568  22.030  0.00  0.00    +0.000 C 
ATOM     27  N   UNL     1      -0.956  13.290  22.625  0.00  0.00    +0.000 N 
ATOM     28  C   UNL     1       0.083  13.353  21.733  0.00  0.00    +0.000 C 
ATOM     29  O   UNL     1       1.239  13.596  22.030  0.00  0.00    +0.000 OA
ATOM     30  N   UNL     1      -0.426  13.073  20.459  0.00  0.00    +0.000 N 
ATOM     31  H   UNL     1      -0.724  13.240  23.606  0.00  0.00    +0.000 HD
BRANCH  26  32
ATOM     32  C   UNL     1      -3.390  12.881  22.659  0.00  0.00    +0.000 A 
ATOM     33  C   UNL     1      -4.257  13.788  22.025  0.00  0.00    +0.000 A 
ATOM     34  C   UNL     1      -5.468  14.156  22.614  0.00  0.00    +0.000 A 
ATOM     35  C   UNL     1      -5.840  13.607  23.840  0.00  0.00    +0.000 A 
ATOM     36  C   UNL     1      -5.008  12.675  24.461  0.00  0.00    +0.000 A 
ATOM     37  C   UNL     1      -3.793  12.311  23.875  0.00  0.00    +0.000 A 
ENDBRANCH  26  32
ENDBRANCH  21  30
ENDBRANCH   1  21
TORSDOF 6
ENDMDL
