MODEL 1
REMARK VINA RESULT:      -8.5      0.000      0.000
REMARK  Name = 
REMARK  10 active torsions:
REMARK  status: ('A' for Active; 'I' for Inactive)
REMARK    1  A    between atoms: C_1  and  C_2
REMARK    2  A    between atoms: C_2  and  C_3
REMARK    3  A    between atoms: C_7  and  C_8
REMARK    4  A    between atoms: C_8  and  O_9
REMARK    5  A    between atoms: C_8  and  C_10
REMARK    6  A    between atoms: C_10  and  O_11
REMARK    7  A    between atoms: C_12  and  O_13
REMARK    8  A    between atoms: O_13  and  C_14
REMARK    9  A    between atoms: C_14  and  C_15
REMARK   10  A    between atoms: C_18  and  C_19
REMARK                            x       y       z     vdW  Elec       q    Type
REMARK                         _______ _______ _______ _____ _____    ______ ____
ROOT
ATOM      1  O   UNL     1       3.433   5.804  17.455  0.00  0.00    +0.000 OA
ENDROOT
BRANCH   1   9
ATOM      2  C   UNL     1       7.811   5.299  13.614  0.00  0.00    +0.000 C 
ATOM      3  C   UNL     1       6.579   4.631  14.206  0.00  0.00    +0.000 C 
ATOM      4  C   UNL     1       5.951   3.689  13.171  0.00  0.00    +0.000 C 
ATOM      5  O   UNL     1       6.946   3.884  15.364  0.00  0.00    +0.000 OA
ATOM      6  C   UNL     1       5.844   3.983  16.261  0.00  0.00    +0.000 C 
ATOM      7  O   UNL     1       6.275   4.346  17.569  0.00  0.00    +0.000 OA
ATOM      8  C   UNL     1       5.800   5.671  17.871  0.00  0.00    +0.000 C 
ATOM      9  C   UNL     1       4.721   6.038  16.835  0.00  0.00    +0.000 C 
ATOM     10  C   UNL     1       4.936   5.054  15.703  0.00  0.00    +0.000 C 
ATOM     11  O   UNL     1       5.624   5.624  14.586  0.00  0.00    +0.000 OA
BRANCH   8  12
ATOM     12  C   UNL     1       7.005   6.629  17.938  0.00  0.00    +0.000 C 
BRANCH  12  13
ATOM     13  O   UNL     1       7.679   6.706  16.685  0.00  0.00    +0.000 OA
ATOM     14  H   UNL     1       7.679   7.644  16.417  0.00  0.00    +0.000 HD
ENDBRANCH  12  13
BRANCH  12  15
ATOM     15  C   UNL     1       8.003   6.182  19.029  0.00  0.00    +0.000 C 
BRANCH  15  16
ATOM     16  O   UNL     1       7.365   5.390  20.032  0.00  0.00    +0.000 OA
ATOM     17  H   UNL     1       7.665   5.704  20.901  0.00  0.00    +0.000 HD
ENDBRANCH  15  16
ENDBRANCH  12  15
ENDBRANCH   8  12
ENDBRANCH   1   9
BRANCH   1  18
ATOM     18  C   UNL     1       3.446   5.977  18.874  0.00  0.00    +0.000 C 
BRANCH  18  19
ATOM     19  C   UNL     1       2.585   7.155  19.272  0.00  0.00    +0.000 A 
ATOM     20  C   UNL     1       2.291   8.192  18.377  0.00  0.00    +0.000 A 
ATOM     21  C   UNL     1       1.437   9.243  18.747  0.00  0.00    +0.000 A 
ATOM     22  C   UNL     1       0.847   9.278  20.020  0.00  0.00    +0.000 A 
ATOM     23  C   UNL     1       1.142   8.231  20.908  0.00  0.00    +0.000 A 
ATOM     24  C   UNL     1       1.997   7.186  20.541  0.00  0.00    +0.000 A 
BRANCH  22  25
ATOM     25  C   UNL     1      -0.115  10.312  20.448  0.00  0.00    +0.000 A 
ATOM     26  N   UNL     1      -0.411  10.541  21.712  0.00  0.00    +0.000 NA
ATOM     27  C   UNL     1      -1.373  11.525  21.819  0.00  0.00    +0.000 A 
ATOM     28  C   UNL     1      -1.958  11.977  23.021  0.00  0.00    +0.000 A 
ATOM     29  C   UNL     1      -2.944  12.967  22.983  0.00  0.00    +0.000 A 
ATOM     30  C   UNL     1      -3.328  13.510  21.768  0.00  0.00    +0.000 A 
ATOM     31  F   UNL     1      -4.281  14.456  21.749  0.00  0.00    +0.000 F 
ATOM     32  C   UNL     1      -2.761  13.100  20.562  0.00  0.00    +0.000 A 
ATOM     33  C   UNL     1      -1.785  12.092  20.612  0.00  0.00    +0.000 A 
ATOM     34  S   UNL     1      -0.917  11.341  19.325  0.00  0.00    +0.000 S 
ENDBRANCH  22  25
ENDBRANCH  18  19
ENDBRANCH   1  18
TORSDOF 8
ENDMDL
MODEL 2
REMARK VINA RESULT:      -8.3      1.900      3.416
REMARK  Name = 
REMARK  10 active torsions:
REMARK  status: ('A' for Active; 'I' for Inactive)
REMARK    1  A    between atoms: C_1  and  C_2
REMARK    2  A    between atoms: C_2  and  C_3
REMARK    3  A    between atoms: C_7  and  C_8
REMARK    4  A    between atoms: C_8  and  O_9
REMARK    5  A    between atoms: C_8  and  C_10
REMARK    6  A    between atoms: C_10  and  O_11
REMARK    7  A    between atoms: C_12  and  O_13
REMARK    8  A    between atoms: O_13  and  C_14
REMARK    9  A    between atoms: C_14  and  C_15
REMARK   10  A    between atoms: C_18  and  C_19
REMARK                            x       y       z     vdW  Elec       q    Type
REMARK                         _______ _______ _______ _____ _____    ______ ____
ROOT
ATOM      1  O   UNL     1       4.377   6.982  18.010  0.00  0.00    +0.000 OA
ENDROOT
BRANCH   1   9
ATOM      2  C   UNL     1       3.700   1.187  18.383  0.00  0.00    +0.000 C 
ATOM      3  C   UNL     1       3.550   2.517  19.108  0.00  0.00    +0.000 C 
ATOM      4  C   UNL     1       2.418   2.422  20.138  0.00  0.00    +0.000 C 
ATOM      5  O   UNL     1       4.769   2.843  19.773  0.00  0.00    +0.000 OA
ATOM      6  C   UNL     1       4.884   4.261  19.710  0.00  0.00    +0.000 C 
ATOM      7  O   UNL     1       6.175   4.655  19.259  0.00  0.00    +0.000 OA
ATOM      8  C   UNL     1       6.056   5.259  17.958  0.00  0.00    +0.000 C 
ATOM      9  C   UNL     1       4.569   5.578  17.715  0.00  0.00    +0.000 C 
ATOM     10  C   UNL     1       3.832   4.730  18.733  0.00  0.00    +0.000 C 
ATOM     11  O   UNL     1       3.252   3.552  18.168  0.00  0.00    +0.000 OA
BRANCH   8  12
ATOM     12  C   UNL     1       6.713   4.333  16.916  0.00  0.00    +0.000 C 
BRANCH  12  13
ATOM     13  O   UNL     1       8.101   4.153  17.181  0.00  0.00    +0.000 OA
ATOM     14  H   UNL     1       8.533   5.017  17.047  0.00  0.00    +0.000 HD
ENDBRANCH  12  13
BRANCH  12  15
ATOM     15  C   UNL     1       6.534   4.896  15.489  0.00  0.00    +0.000 C 
BRANCH  15  16
ATOM     16  O   UNL     1       7.673   5.650  15.075  0.00  0.00    +0.000 OA
ATOM     17  H   UNL     1       8.372   5.531  15.740  0.00  0.00    +0.000 HD
ENDBRANCH  15  16
ENDBRANCH  12  15
ENDBRANCH   8  12
ENDBRANCH   1   9
BRANCH   1  18
ATOM     18  C   UNL     1       3.337   7.587  17.238  0.00  0.00    +0.000 C 
BRANCH  18  19
ATOM     19  C   UNL     1       2.342   8.283  18.139  0.00  0.00    +0.000 A 
ATOM     20  C   UNL     1       2.137   7.878  19.465  0.00  0.00    +0.000 A 
ATOM     21  C   UNL     1       1.255   8.579  20.303  0.00  0.00    +0.000 A 
ATOM     22  C   UNL     1       0.564   9.709  19.840  0.00  0.00    +0.000 A 
ATOM     23  C   UNL     1       0.781  10.111  18.512  0.00  0.00    +0.000 A 
ATOM     24  C   UNL     1       1.656   9.410  17.675  0.00  0.00    +0.000 A 
BRANCH  22  25
ATOM     25  C   UNL     1      -0.319  10.532  20.688  0.00  0.00    +0.000 A 
ATOM     26  N   UNL     1      -1.091  11.489  20.209  0.00  0.00    +0.000 NA
ATOM     27  C   UNL     1      -1.769  12.126  21.228  0.00  0.00    +0.000 A 
ATOM     28  C   UNL     1      -2.636  13.230  21.075  0.00  0.00    +0.000 A 
ATOM     29  C   UNL     1      -3.241  13.797  22.199  0.00  0.00    +0.000 A 
ATOM     30  C   UNL     1      -3.001  13.263  23.455  0.00  0.00    +0.000 A 
ATOM     31  F   UNL     1      -3.586  13.823  24.525  0.00  0.00    +0.000 F 
ATOM     32  C   UNL     1      -2.163  12.163  23.643  0.00  0.00    +0.000 A 
ATOM     33  C   UNL     1      -1.546  11.614  22.507  0.00  0.00    +0.000 A 
ATOM     34  S   UNL     1      -0.445  10.292  22.388  0.00  0.00    +0.000 S 
ENDBRANCH  22  25
ENDBRANCH  18  19
ENDBRANCH   1  18
TORSDOF 8
ENDMDL
MODEL 3
REMARK VINA RESULT:      -8.3      1.725      2.965
REMARK  Name = 
REMARK  10 active torsions:
REMARK  status: ('A' for Active; 'I' for Inactive)
REMARK    1  A    between atoms: C_1  and  C_2
REMARK    2  A    between atoms: C_2  and  C_3
REMARK    3  A    between atoms: C_7  and  C_8
REMARK    4  A    between atoms: C_8  and  O_9
REMARK    5  A    between atoms: C_8  and  C_10
REMARK    6  A    between atoms: C_10  and  O_11
REMARK    7  A    between atoms: C_12  and  O_13
REMARK    8  A    between atoms: O_13  and  C_14
REMARK    9  A    between atoms: C_14  and  C_15
REMARK   10  A    between atoms: C_18  and  C_19
REMARK                            x       y       z     vdW  Elec       q    Type
REMARK                         _______ _______ _______ _____ _____    ______ ____
ROOT
ATOM      1  O   UNL     1       2.359   6.305  18.693  0.00  0.00    +0.000 OA
ENDROOT
BRANCH   1   9
ATOM      2  C   UNL     1       7.917   4.584  18.133  0.00  0.00    +0.000 C 
ATOM      3  C   UNL     1       6.804   5.440  17.546  0.00  0.00    +0.000 C 
ATOM      4  C   UNL     1       7.407   6.639  16.805  0.00  0.00    +0.000 C 
ATOM      5  O   UNL     1       6.028   4.662  16.636  0.00  0.00    +0.000 OA
ATOM      6  C   UNL     1       4.689   5.135  16.758  0.00  0.00    +0.000 C 
ATOM      7  O   UNL     1       3.775   4.056  16.919  0.00  0.00    +0.000 OA
ATOM      8  C   UNL     1       3.220   4.103  18.247  0.00  0.00    +0.000 C 
ATOM      9  C   UNL     1       3.541   5.483  18.848  0.00  0.00    +0.000 C 
ATOM     10  C   UNL     1       4.661   6.022  17.980  0.00  0.00    +0.000 C 
ATOM     11  O   UNL     1       5.949   5.908  18.592  0.00  0.00    +0.000 OA
BRANCH   8  12
ATOM     12  C   UNL     1       3.742   2.895  19.048  0.00  0.00    +0.000 C 
BRANCH  12  13
ATOM     13  O   UNL     1       5.150   2.976  19.253  0.00  0.00    +0.000 OA
ATOM     14  H   UNL     1       5.324   3.813  19.723  0.00  0.00    +0.000 HD
ENDBRANCH  12  13
BRANCH  12  15
ATOM     15  C   UNL     1       3.406   1.571  18.328  0.00  0.00    +0.000 C 
BRANCH  15  16
ATOM     16  O   UNL     1       4.404   0.577  18.562  0.00  0.00    +0.000 OA
ATOM     17  H   UNL     1       5.134   0.728  17.938  0.00  0.00    +0.000 HD
ENDBRANCH  15  16
ENDBRANCH  12  15
ENDBRANCH   8  12
ENDBRANCH   1   9
BRANCH   1  18
ATOM     18  C   UNL     1       2.639   7.613  18.187  0.00  0.00    +0.000 C 
BRANCH  18  19
ATOM     19  C   UNL     1       1.713   8.633  18.811  0.00  0.00    +0.000 A 
ATOM     20  C   UNL     1       1.105   9.641  18.050  0.00  0.00    +0.000 A 
ATOM     21  C   UNL     1       0.197  10.538  18.638  0.00  0.00    +0.000 A 
ATOM     22  C   UNL     1      -0.132  10.443  19.999  0.00  0.00    +0.000 A 
ATOM     23  C   UNL     1       0.477   9.425  20.750  0.00  0.00    +0.000 A 
ATOM     24  C   UNL     1       1.385   8.534  20.167  0.00  0.00    +0.000 A 
BRANCH  22  25
ATOM     25  C   UNL     1      -1.130  11.304  20.661  0.00  0.00    +0.000 A 
ATOM     26  N   UNL     1      -1.364  11.269  21.958  0.00  0.00    +0.000 NA
ATOM     27  C   UNL     1      -2.379  12.142  22.296  0.00  0.00    +0.000 A 
ATOM     28  C   UNL     1      -2.918  12.315  23.589  0.00  0.00    +0.000 A 
ATOM     29  C   UNL     1      -3.965  13.220  23.787  0.00  0.00    +0.000 A 
ATOM     30  C   UNL     1      -4.455  13.953  22.718  0.00  0.00    +0.000 A 
ATOM     31  F   UNL     1      -5.464  14.813  22.925  0.00  0.00    +0.000 F 
ATOM     32  C   UNL     1      -3.935  13.820  21.430  0.00  0.00    +0.000 A 
ATOM     33  C   UNL     1      -2.897  12.894  21.240  0.00  0.00    +0.000 A 
ATOM     34  S   UNL     1      -2.061  12.465  19.794  0.00  0.00    +0.000 S 
ENDBRANCH  22  25
ENDBRANCH  18  19
ENDBRANCH   1  18
TORSDOF 8
ENDMDL
MODEL 4
REMARK VINA RESULT:      -8.2      1.963      3.161
REMARK  Name = 
REMARK  10 active torsions:
REMARK  status: ('A' for Active; 'I' for Inactive)
REMARK    1  A    between atoms: C_1  and  C_2
REMARK    2  A    between atoms: C_2  and  C_3
REMARK    3  A    between atoms: C_7  and  C_8
REMARK    4  A    between atoms: C_8  and  O_9
REMARK    5  A    between atoms: C_8  and  C_10
REMARK    6  A    between atoms: C_10  and  O_11
REMARK    7  A    between atoms: C_12  and  O_13
REMARK    8  A    between atoms: O_13  and  C_14
REMARK    9  A    between atoms: C_14  and  C_15
REMARK   10  A    between atoms: C_18  and  C_19
REMARK                            x       y       z     vdW  Elec       q    Type
REMARK                         _______ _______ _______ _____ _____    ______ ____
ROOT
ATOM      1  O   UNL     1       2.270   6.183  18.939  0.00  0.00    +0.000 OA
ENDROOT
BRANCH   1   9
ATOM      2  C   UNL     1       7.848   4.611  18.170  0.00  0.00    +0.000 C 
ATOM      3  C   UNL     1       6.694   5.445  17.632  0.00  0.00    +0.000 C 
ATOM      4  C   UNL     1       7.241   6.669  16.887  0.00  0.00    +0.000 C 
ATOM      5  O   UNL     1       5.907   4.659  16.738  0.00  0.00    +0.000 OA
ATOM      6  C   UNL     1       4.562   5.096  16.911  0.00  0.00    +0.000 C 
ATOM      7  O   UNL     1       3.681   3.993  17.089  0.00  0.00    +0.000 OA
ATOM      8  C   UNL     1       3.170   4.009  18.435  0.00  0.00    +0.000 C 
ATOM      9  C   UNL     1       3.477   5.389  19.043  0.00  0.00    +0.000 C 
ATOM     10  C   UNL     1       4.553   5.967  18.146  0.00  0.00    +0.000 C 
ATOM     11  O   UNL     1       5.863   5.878  18.712  0.00  0.00    +0.000 OA
BRANCH   8  12
ATOM     12  C   UNL     1       3.750   2.805  19.202  0.00  0.00    +0.000 C 
BRANCH  12  13
ATOM     13  O   UNL     1       5.172   2.866  19.269  0.00  0.00    +0.000 OA
ATOM     14  H   UNL     1       5.504   1.955  19.156  0.00  0.00    +0.000 HD
ENDBRANCH  12  13
BRANCH  12  15
ATOM     15  C   UNL     1       3.325   1.475  18.540  0.00  0.00    +0.000 C 
BRANCH  15  16
ATOM     16  O   UNL     1       4.405   0.542  18.496  0.00  0.00    +0.000 OA
ATOM     17  H   UNL     1       4.058  -0.307  18.175  0.00  0.00    +0.000 HD
ENDBRANCH  15  16
ENDBRANCH  12  15
ENDBRANCH   8  12
ENDBRANCH   1   9
BRANCH   1  18
ATOM     18  C   UNL     1       2.481   7.461  18.332  0.00  0.00    +0.000 C 
BRANCH  18  19
ATOM     19  C   UNL     1       1.813   8.549  19.142  0.00  0.00    +0.000 A 
ATOM     20  C   UNL     1       1.403   9.756  18.560  0.00  0.00    +0.000 A 
ATOM     21  C   UNL     1       0.726  10.727  19.317  0.00  0.00    +0.000 A 
ATOM     22  C   UNL     1       0.434  10.510  20.673  0.00  0.00    +0.000 A 
ATOM     23  C   UNL     1       0.844   9.295  21.245  0.00  0.00    +0.000 A 
ATOM     24  C   UNL     1       1.522   8.329  20.492  0.00  0.00    +0.000 A 
BRANCH  22  25
ATOM     25  C   UNL     1      -0.335  11.454  21.505  0.00  0.00    +0.000 A 
ATOM     26  N   UNL     1      -1.384  11.095  22.220  0.00  0.00    +0.000 NA
ATOM     27  C   UNL     1      -1.938  12.187  22.858  0.00  0.00    +0.000 A 
ATOM     28  C   UNL     1      -3.100  12.169  23.659  0.00  0.00    +0.000 A 
ATOM     29  C   UNL     1      -3.567  13.356  24.228  0.00  0.00    +0.000 A 
ATOM     30  C   UNL     1      -2.878  14.540  24.018  0.00  0.00    +0.000 A 
ATOM     31  F   UNL     1      -3.344  15.672  24.568  0.00  0.00    +0.000 F 
ATOM     32  C   UNL     1      -1.717  14.592  23.246  0.00  0.00    +0.000 A 
ATOM     33  C   UNL     1      -1.269  13.396  22.664  0.00  0.00    +0.000 A 
ATOM     34  S   UNL     1       0.092  13.116  21.643  0.00  0.00    +0.000 S 
ENDBRANCH  22  25
ENDBRANCH  18  19
ENDBRANCH   1  18
TORSDOF 8
ENDMDL
MODEL 5
REMARK VINA RESULT:      -8.2      2.650      4.547
REMARK  Name = 
REMARK  10 active torsions:
REMARK  status: ('A' for Active; 'I' for Inactive)
REMARK    1  A    between atoms: C_1  and  C_2
REMARK    2  A    between atoms: C_2  and  C_3
REMARK    3  A    between atoms: C_7  and  C_8
REMARK    4  A    between atoms: C_8  and  O_9
REMARK    5  A    between atoms: C_8  and  C_10
REMARK    6  A    between atoms: C_10  and  O_11
REMARK    7  A    between atoms: C_12  and  O_13
REMARK    8  A    between atoms: O_13  and  C_14
REMARK    9  A    between atoms: C_14  and  C_15
REMARK   10  A    between atoms: C_18  and  C_19
REMARK                            x       y       z     vdW  Elec       q    Type
REMARK                         _______ _______ _______ _____ _____    ______ ____
ROOT
ATOM      1  O   UNL     1       1.216   6.663  20.842  0.00  0.00    +0.000 OA
ENDROOT
BRANCH   1   9
ATOM      2  C   UNL     1       5.670   4.064  18.089  0.00  0.00    +0.000 C 
ATOM      3  C   UNL     1       4.641   5.183  18.030  0.00  0.00    +0.000 C 
ATOM      4  C   UNL     1       5.187   6.349  17.197  0.00  0.00    +0.000 C 
ATOM      5  O   UNL     1       3.438   4.700  17.435  0.00  0.00    +0.000 OA
ATOM      6  C   UNL     1       2.373   5.384  18.090  0.00  0.00    +0.000 C 
ATOM      7  O   UNL     1       1.362   4.477  18.516  0.00  0.00    +0.000 OA
ATOM      8  C   UNL     1       1.346   4.430  19.955  0.00  0.00    +0.000 C 
ATOM      9  C   UNL     1       2.160   5.627  20.479  0.00  0.00    +0.000 C 
ATOM     10  C   UNL     1       2.984   6.074  19.287  0.00  0.00    +0.000 C 
ATOM     11  O   UNL     1       4.345   5.641  19.352  0.00  0.00    +0.000 OA
BRANCH   8  12
ATOM     12  C   UNL     1       1.839   3.044  20.413  0.00  0.00    +0.000 C 
BRANCH  12  13
ATOM     13  O   UNL     1       3.244   3.044  20.652  0.00  0.00    +0.000 OA
ATOM     14  H   UNL     1       3.370   3.006  21.619  0.00  0.00    +0.000 HD
ENDBRANCH  12  13
BRANCH  12  15
ATOM     15  C   UNL     1       1.499   1.964  19.363  0.00  0.00    +0.000 C 
BRANCH  15  16
ATOM     16  O   UNL     1       2.540   1.825  18.396  0.00  0.00    +0.000 OA
ATOM     17  H   UNL     1       3.306   2.341  18.700  0.00  0.00    +0.000 HD
ENDBRANCH  15  16
ENDBRANCH  12  15
ENDBRANCH   8  12
ENDBRANCH   1   9
BRANCH   1  18
ATOM     18  C   UNL     1       1.583   7.960  20.362  0.00  0.00    +0.000 C 
BRANCH  18  19
ATOM     19  C   UNL     1       0.740   9.028  21.022  0.00  0.00    +0.000 A 
ATOM     20  C   UNL     1       0.549   9.067  22.409  0.00  0.00    +0.000 A 
ATOM     21  C   UNL     1      -0.184  10.105  23.007  0.00  0.00    +0.000 A 
ATOM     22  C   UNL     1      -0.737  11.136  22.232  0.00  0.00    +0.000 A 
ATOM     23  C   UNL     1      -0.535  11.091  20.843  0.00  0.00    +0.000 A 
ATOM     24  C   UNL     1       0.191  10.054  20.247  0.00  0.00    +0.000 A 
BRANCH  22  25
ATOM     25  C   UNL     1      -1.455  12.292  22.800  0.00  0.00    +0.000 A 
ATOM     26  N   UNL     1      -0.868  13.211  23.542  0.00  0.00    +0.000 NA
ATOM     27  C   UNL     1      -1.784  14.146  23.979  0.00  0.00    +0.000 A 
ATOM     28  C   UNL     1      -1.505  15.233  24.836  0.00  0.00    +0.000 A 
ATOM     29  C   UNL     1      -2.537  16.093  25.222  0.00  0.00    +0.000 A 
ATOM     30  C   UNL     1      -3.823  15.883  24.749  0.00  0.00    +0.000 A 
ATOM     31  F   UNL     1      -4.803  16.716  25.135  0.00  0.00    +0.000 F 
ATOM     32  C   UNL     1      -4.132  14.830  23.889  0.00  0.00    +0.000 A 
ATOM     33  C   UNL     1      -3.090  13.962  23.523  0.00  0.00    +0.000 A 
ATOM     34  S   UNL     1      -3.132  12.563  22.517  0.00  0.00    +0.000 S 
ENDBRANCH  22  25
ENDBRANCH  18  19
ENDBRANCH   1  18
TORSDOF 8
ENDMDL
MODEL 6
REMARK VINA RESULT:      -8.1      1.927      3.277
REMARK  Name = 
REMARK  10 active torsions:
REMARK  status: ('A' for Active; 'I' for Inactive)
REMARK    1  A    between atoms: C_1  and  C_2
REMARK    2  A    between atoms: C_2  and  C_3
REMARK    3  A    between atoms: C_7  and  C_8
REMARK    4  A    between atoms: C_8  and  O_9
REMARK    5  A    between atoms: C_8  and  C_10
REMARK    6  A    between atoms: C_10  and  O_11
REMARK    7  A    between atoms: C_12  and  O_13
REMARK    8  A    between atoms: O_13  and  C_14
REMARK    9  A    between atoms: C_14  and  C_15
REMARK   10  A    between atoms: C_18  and  C_19
REMARK                            x       y       z     vdW  Elec       q    Type
REMARK                         _______ _______ _______ _____ _____    ______ ____
ROOT
ATOM      1  O   UNL     1       2.376   6.243  19.100  0.00  0.00    +0.000 OA
ENDROOT
BRANCH   1   9
ATOM      2  C   UNL     1       7.900   4.615  18.096  0.00  0.00    +0.000 C 
ATOM      3  C   UNL     1       6.737   5.471  17.615  0.00  0.00    +0.000 C 
ATOM      4  C   UNL     1       7.271   6.698  16.866  0.00  0.00    +0.000 C 
ATOM      5  O   UNL     1       5.907   4.707  16.741  0.00  0.00    +0.000 OA
ATOM      6  C   UNL     1       4.576   5.157  16.971  0.00  0.00    +0.000 C 
ATOM      7  O   UNL     1       3.687   4.063  17.168  0.00  0.00    +0.000 OA
ATOM      8  C   UNL     1       3.229   4.066  18.532  0.00  0.00    +0.000 C 
ATOM      9  C   UNL     1       3.576   5.434  19.148  0.00  0.00    +0.000 C 
ATOM     10  C   UNL     1       4.624   6.011  18.217  0.00  0.00    +0.000 C 
ATOM     11  O   UNL     1       5.954   5.898  18.731  0.00  0.00    +0.000 OA
BRANCH   8  12
ATOM     12  C   UNL     1       3.822   2.844  19.260  0.00  0.00    +0.000 C 
BRANCH  12  13
ATOM     13  O   UNL     1       5.243   2.924  19.339  0.00  0.00    +0.000 OA
ATOM     14  H   UNL     1       5.456   3.517  20.083  0.00  0.00    +0.000 HD
ENDBRANCH  12  13
BRANCH  12  15
ATOM     15  C   UNL     1       3.422   1.533  18.549  0.00  0.00    +0.000 C 
BRANCH  15  16
ATOM     16  O   UNL     1       2.003   1.400  18.452  0.00  0.00    +0.000 OA
ATOM     17  H   UNL     1       1.765   1.382  17.510  0.00  0.00    +0.000 HD
ENDBRANCH  15  16
ENDBRANCH  12  15
ENDBRANCH   8  12
ENDBRANCH   1   9
BRANCH   1  18
ATOM     18  C   UNL     1       2.580   7.527  18.502  0.00  0.00    +0.000 C 
BRANCH  18  19
ATOM     19  C   UNL     1       1.695   8.564  19.157  0.00  0.00    +0.000 A 
ATOM     20  C   UNL     1       1.063   9.570  18.415  0.00  0.00    +0.000 A 
ATOM     21  C   UNL     1       0.195  10.484  19.034  0.00  0.00    +0.000 A 
ATOM     22  C   UNL     1      -0.072  10.407  20.410  0.00  0.00    +0.000 A 
ATOM     23  C   UNL     1       0.562   9.391  21.144  0.00  0.00    +0.000 A 
ATOM     24  C   UNL     1       1.431   8.483  20.528  0.00  0.00    +0.000 A 
BRANCH  22  25
ATOM     25  C   UNL     1      -1.027  11.287  21.109  0.00  0.00    +0.000 A 
ATOM     26  N   UNL     1      -1.801  12.152  20.482  0.00  0.00    +0.000 NA
ATOM     27  C   UNL     1      -2.555  12.876  21.384  0.00  0.00    +0.000 A 
ATOM     28  C   UNL     1      -3.447  13.920  21.058  0.00  0.00    +0.000 A 
ATOM     29  C   UNL     1      -4.132  14.589  22.076  0.00  0.00    +0.000 A 
ATOM     30  C   UNL     1      -3.946  14.211  23.396  0.00  0.00    +0.000 A 
ATOM     31  F   UNL     1      -4.608  14.868  24.361  0.00  0.00    +0.000 F 
ATOM     32  C   UNL     1      -3.085  13.174  23.754  0.00  0.00    +0.000 A 
ATOM     33  C   UNL     1      -2.388  12.522  22.723  0.00  0.00    +0.000 A 
ATOM     34  S   UNL     1      -1.240  11.239  22.817  0.00  0.00    +0.000 S 
ENDBRANCH  22  25
ENDBRANCH  18  19
ENDBRANCH   1  18
TORSDOF 8
ENDMDL
MODEL 7
REMARK VINA RESULT:      -8.1      1.842      3.121
REMARK  Name = 
REMARK  10 active torsions:
REMARK  status: ('A' for Active; 'I' for Inactive)
REMARK    1  A    between atoms: C_1  and  C_2
REMARK    2  A    between atoms: C_2  and  C_3
REMARK    3  A    between atoms: C_7  and  C_8
REMARK    4  A    between atoms: C_8  and  O_9
REMARK    5  A    between atoms: C_8  and  C_10
REMARK    6  A    between atoms: C_10  and  O_11
REMARK    7  A    between atoms: C_12  and  O_13
REMARK    8  A    between atoms: O_13  and  C_14
REMARK    9  A    between atoms: C_14  and  C_15
REMARK   10  A    between atoms: C_18  and  C_19
REMARK                            x       y       z     vdW  Elec       q    Type
REMARK                         _______ _______ _______ _____ _____    ______ ____
ROOT
ATOM      1  O   UNL     1       2.292   6.195  18.462  0.00  0.00    +0.000 OA
ENDROOT
BRANCH   1   9
ATOM      2  C   UNL     1       7.878   4.506  18.119  0.00  0.00    +0.000 C 
ATOM      3  C   UNL     1       6.850   5.536  17.675  0.00  0.00    +0.000 C 
ATOM      4  C   UNL     1       7.543   6.876  17.400  0.00  0.00    +0.000 C 
ATOM      5  O   UNL     1       6.199   5.087  16.488  0.00  0.00    +0.000 OA
ATOM      6  C   UNL     1       4.856   5.553  16.575  0.00  0.00    +0.000 C 
ATOM      7  O   UNL     1       3.929   4.509  16.297  0.00  0.00    +0.000 OA
ATOM      8  C   UNL     1       3.206   4.188  17.500  0.00  0.00    +0.000 C 
ATOM      9  C   UNL     1       3.445   5.320  18.515  0.00  0.00    +0.000 C 
ATOM     10  C   UNL     1       4.668   6.046  17.990  0.00  0.00    +0.000 C 
ATOM     11  O   UNL     1       5.865   5.711  18.697  0.00  0.00    +0.000 OA
BRANCH   8  12
ATOM     12  C   UNL     1       3.621   2.781  17.969  0.00  0.00    +0.000 C 
BRANCH  12  13
ATOM     13  O   UNL     1       2.622   1.813  17.659  0.00  0.00    +0.000 OA
ATOM     14  H   UNL     1       2.048   2.203  16.974  0.00  0.00    +0.000 HD
ENDBRANCH  12  13
BRANCH  12  15
ATOM     15  C   UNL     1       3.893   2.765  19.490  0.00  0.00    +0.000 C 
BRANCH  15  16
ATOM     16  O   UNL     1       5.291   2.710  19.773  0.00  0.00    +0.000 OA
ATOM     17  H   UNL     1       5.583   3.602  20.028  0.00  0.00    +0.000 HD
ENDBRANCH  15  16
ENDBRANCH  12  15
ENDBRANCH   8  12
ENDBRANCH   1   9
BRANCH   1  18
ATOM     18  C   UNL     1       2.608   7.526  18.044  0.00  0.00    +0.000 C 
BRANCH  18  19
ATOM     19  C   UNL     1       1.739   8.530  18.767  0.00  0.00    +0.000 A 
ATOM     20  C   UNL     1       1.096   9.574  18.089  0.00  0.00    +0.000 A 
ATOM     21  C   UNL     1       0.241  10.456  18.770  0.00  0.00    +0.000 A 
ATOM     22  C   UNL     1       0.001  10.311  20.146  0.00  0.00    +0.000 A 
ATOM     23  C   UNL     1       0.645   9.258  20.815  0.00  0.00    +0.000 A 
ATOM     24  C   UNL     1       1.500   8.381  20.137  0.00  0.00    +0.000 A 
BRANCH  22  25
ATOM     25  C   UNL     1      -0.939  11.156  20.906  0.00  0.00    +0.000 A 
ATOM     26  N   UNL     1      -1.820  11.951  20.331  0.00  0.00    +0.000 NA
ATOM     27  C   UNL     1      -2.532  12.658  21.279  0.00  0.00    +0.000 A 
ATOM     28  C   UNL     1      -3.513  13.636  21.009  0.00  0.00    +0.000 A 
ATOM     29  C   UNL     1      -4.142  14.297  22.068  0.00  0.00    +0.000 A 
ATOM     30  C   UNL     1      -3.810  13.977  23.375  0.00  0.00    +0.000 A 
ATOM     31  F   UNL     1      -4.420  14.626  24.379  0.00  0.00    +0.000 F 
ATOM     32  C   UNL     1      -2.857  13.006  23.679  0.00  0.00    +0.000 A 
ATOM     33  C   UNL     1      -2.219  12.362  22.606  0.00  0.00    +0.000 A 
ATOM     34  S   UNL     1      -0.990  11.153  22.628  0.00  0.00    +0.000 S 
ENDBRANCH  22  25
ENDBRANCH  18  19
ENDBRANCH   1  18
TORSDOF 8
ENDMDL
MODEL 8
REMARK VINA RESULT:      -8.0      2.673      4.567
REMARK  Name = 
REMARK  10 active torsions:
REMARK  status: ('A' for Active; 'I' for Inactive)
REMARK    1  A    between atoms: C_1  and  C_2
REMARK    2  A    between atoms: C_2  and  C_3
REMARK    3  A    between atoms: C_7  and  C_8
REMARK    4  A    between atoms: C_8  and  O_9
REMARK    5  A    between atoms: C_8  and  C_10
REMARK    6  A    between atoms: C_10  and  O_11
REMARK    7  A    between atoms: C_12  and  O_13
REMARK    8  A    between atoms: O_13  and  C_14
REMARK    9  A    between atoms: C_14  and  C_15
REMARK   10  A    between atoms: C_18  and  C_19
REMARK                            x       y       z     vdW  Elec       q    Type
REMARK                         _______ _______ _______ _____ _____    ______ ____
ROOT
ATOM      1  O   UNL     1       1.095   6.589  20.770  0.00  0.00    +0.000 OA
ENDROOT
BRANCH   1   9
ATOM      2  C   UNL     1       5.604   3.937  18.161  0.00  0.00    +0.000 C 
ATOM      3  C   UNL     1       4.587   5.065  18.067  0.00  0.00    +0.000 C 
ATOM      4  C   UNL     1       5.169   6.222  17.245  0.00  0.00    +0.000 C 
ATOM      5  O   UNL     1       3.398   4.590  17.439  0.00  0.00    +0.000 OA
ATOM      6  C   UNL     1       2.321   5.287  18.059  0.00  0.00    +0.000 C 
ATOM      7  O   UNL     1       1.289   4.391  18.459  0.00  0.00    +0.000 OA
ATOM      8  C   UNL     1       1.231   4.351  19.896  0.00  0.00    +0.000 C 
ATOM      9  C   UNL     1       2.040   5.543  20.439  0.00  0.00    +0.000 C 
ATOM     10  C   UNL     1       2.902   5.977  19.270  0.00  0.00    +0.000 C 
ATOM     11  O   UNL     1       4.257   5.532  19.377  0.00  0.00    +0.000 OA
BRANCH   8  12
ATOM     12  C   UNL     1       1.697   2.963  20.375  0.00  0.00    +0.000 C 
BRANCH  12  13
ATOM     13  O   UNL     1       3.072   2.976  20.750  0.00  0.00    +0.000 OA
ATOM     14  H   UNL     1       3.480   3.748  20.316  0.00  0.00    +0.000 HD
ENDBRANCH  12  13
BRANCH  12  15
ATOM     15  C   UNL     1       1.476   1.899  19.277  0.00  0.00    +0.000 C 
BRANCH  15  16
ATOM     16  O   UNL     1       2.608   1.793  18.413  0.00  0.00    +0.000 OA
ATOM     17  H   UNL     1       3.153   2.589  18.531  0.00  0.00    +0.000 HD
ENDBRANCH  15  16
ENDBRANCH  12  15
ENDBRANCH   8  12
ENDBRANCH   1   9
BRANCH   1  18
ATOM     18  C   UNL     1       1.669   7.899  20.750  0.00  0.00    +0.000 C 
BRANCH  18  19
ATOM     19  C   UNL     1       0.695   8.913  21.307  0.00  0.00    +0.000 A 
ATOM     20  C   UNL     1       0.445   9.020  22.681  0.00  0.00    +0.000 A 
ATOM     21  C   UNL     1      -0.414  10.012  23.182  0.00  0.00    +0.000 A 
ATOM     22  C   UNL     1      -1.037  10.929  22.321  0.00  0.00    +0.000 A 
ATOM     23  C   UNL     1      -0.775  10.818  20.946  0.00  0.00    +0.000 A 
ATOM     24  C   UNL     1       0.078   9.827  20.446  0.00  0.00    +0.000 A 
BRANCH  22  25
ATOM     25  C   UNL     1      -1.892  12.038  22.786  0.00  0.00    +0.000 A 
ATOM     26  N   UNL     1      -3.185  11.907  23.006  0.00  0.00    +0.000 NA
ATOM     27  C   UNL     1      -3.741  13.113  23.384  0.00  0.00    +0.000 A 
ATOM     28  C   UNL     1      -5.110  13.341  23.643  0.00  0.00    +0.000 A 
ATOM     29  C   UNL     1      -5.543  14.622  23.995  0.00  0.00    +0.000 A 
ATOM     30  C   UNL     1      -4.626  15.655  24.104  0.00  0.00    +0.000 A 
ATOM     31  F   UNL     1      -5.061  16.881  24.438  0.00  0.00    +0.000 F 
ATOM     32  C   UNL     1      -3.264  15.462  23.872  0.00  0.00    +0.000 A 
ATOM     33  C   UNL     1      -2.844  14.175  23.500  0.00  0.00    +0.000 A 
ATOM     34  S   UNL     1      -1.262  13.606  23.115  0.00  0.00    +0.000 S 
ENDBRANCH  22  25
ENDBRANCH  18  19
ENDBRANCH   1  18
TORSDOF 8
ENDMDL
MODEL 9
REMARK VINA RESULT:      -8.0      2.238      3.399
REMARK  Name = 
REMARK  10 active torsions:
REMARK  status: ('A' for Active; 'I' for Inactive)
REMARK    1  A    between atoms: C_1  and  C_2
REMARK    2  A    between atoms: C_2  and  C_3
REMARK    3  A    between atoms: C_7  and  C_8
REMARK    4  A    between atoms: C_8  and  O_9
REMARK    5  A    between atoms: C_8  and  C_10
REMARK    6  A    between atoms: C_10  and  O_11
REMARK    7  A    between atoms: C_12  and  O_13
REMARK    8  A    between atoms: O_13  and  C_14
REMARK    9  A    between atoms: C_14  and  C_15
REMARK   10  A    between atoms: C_18  and  C_19
REMARK                            x       y       z     vdW  Elec       q    Type
REMARK                         _______ _______ _______ _____ _____    ______ ____
ROOT
ATOM      1  O   UNL     1       3.656   7.627  17.826  0.00  0.00    +0.000 OA
ENDROOT
BRANCH   1   9
ATOM      2  C   UNL     1       2.915   1.837  18.145  0.00  0.00    +0.000 C 
ATOM      3  C   UNL     1       2.536   3.185  18.742  0.00  0.00    +0.000 C 
ATOM      4  C   UNL     1       1.135   3.104  19.358  0.00  0.00    +0.000 C 
ATOM      5  O   UNL     1       3.478   3.545  19.751  0.00  0.00    +0.000 OA
ATOM      6  C   UNL     1       3.602   4.963  19.684  0.00  0.00    +0.000 C 
ATOM      7  O   UNL     1       4.969   5.360  19.656  0.00  0.00    +0.000 OA
ATOM      8  C   UNL     1       5.270   5.925  18.367  0.00  0.00    +0.000 C 
ATOM      9  C   UNL     1       3.938   6.217  17.652  0.00  0.00    +0.000 C 
ATOM     10  C   UNL     1       2.916   5.390  18.407  0.00  0.00    +0.000 C 
ATOM     11  O   UNL     1       2.551   4.188  17.724  0.00  0.00    +0.000 OA
BRANCH   8  12
ATOM     12  C   UNL     1       6.228   4.978  17.619  0.00  0.00    +0.000 C 
BRANCH  12  13
ATOM     13  O   UNL     1       5.698   3.657  17.541  0.00  0.00    +0.000 OA
ATOM     14  H   UNL     1       4.844   3.718  17.073  0.00  0.00    +0.000 HD
ENDBRANCH  12  13
BRANCH  12  15
ATOM     15  C   UNL     1       7.609   4.936  18.308  0.00  0.00    +0.000 C 
BRANCH  15  16
ATOM     16  O   UNL     1       8.471   3.974  17.699  0.00  0.00    +0.000 OA
ATOM     17  H   UNL     1       8.856   3.425  18.403  0.00  0.00    +0.000 HD
ENDBRANCH  15  16
ENDBRANCH  12  15
ENDBRANCH   8  12
ENDBRANCH   1   9
BRANCH   1  18
ATOM     18  C   UNL     1       2.320   7.988  17.466  0.00  0.00    +0.000 C 
BRANCH  18  19
ATOM     19  C   UNL     1       1.764   9.003  18.438  0.00  0.00    +0.000 A 
ATOM     20  C   UNL     1       1.640  10.358  18.102  0.00  0.00    +0.000 A 
ATOM     21  C   UNL     1       1.061  11.272  18.998  0.00  0.00    +0.000 A 
ATOM     22  C   UNL     1       0.581  10.852  20.248  0.00  0.00    +0.000 A 
ATOM     23  C   UNL     1       0.705   9.491  20.573  0.00  0.00    +0.000 A 
ATOM     24  C   UNL     1       1.286   8.581  19.683  0.00  0.00    +0.000 A 
BRANCH  22  25
ATOM     25  C   UNL     1      -0.102  11.743  21.204  0.00  0.00    +0.000 A 
ATOM     26  N   UNL     1      -1.163  11.379  21.897  0.00  0.00    +0.000 NA
ATOM     27  C   UNL     1      -1.623  12.424  22.673  0.00  0.00    +0.000 A 
ATOM     28  C   UNL     1      -2.771  12.395  23.494  0.00  0.00    +0.000 A 
ATOM     29  C   UNL     1      -3.139  13.537  24.211  0.00  0.00    +0.000 A 
ATOM     30  C   UNL     1      -2.366  14.684  24.124  0.00  0.00    +0.000 A 
ATOM     31  F   UNL     1      -2.737  15.773  24.815  0.00  0.00    +0.000 F 
ATOM     32  C   UNL     1      -1.217  14.744  23.336  0.00  0.00    +0.000 A 
ATOM     33  C   UNL     1      -0.868  13.596  22.606  0.00  0.00    +0.000 A 
ATOM     34  S   UNL     1       0.452  13.342  21.526  0.00  0.00    +0.000 S 
ENDBRANCH  22  25
ENDBRANCH  18  19
ENDBRANCH   1  18
TORSDOF 8
ENDMDL
