MODEL 1
REMARK VINA RESULT:      -6.3      0.000      0.000
REMARK  Name = 
REMARK  6 active torsions:
REMARK  status: ('A' for Active; 'I' for Inactive)
REMARK    1  A    between atoms: C_1  and  C_2
REMARK    2  A    between atoms: C_2  and  C_8
REMARK    3  A    between atoms: N_3  and  N_4
REMARK    4  A    between atoms: N_4  and  C_5
REMARK    5  A    between atoms: C_5  and  N_6
REMARK    6  A    between atoms: C_11  and  N_12
REMARK                            x       y       z     vdW  Elec       q    Type
REMARK                         _______ _______ _______ _____ _____    ______ ____
ROOT
ATOM      1  C   UNL     1       2.987   5.799  18.544  0.00  0.00    +0.000 A 
ATOM      2  C   UNL     1       2.873   7.096  18.031  0.00  0.00    +0.000 A 
ATOM      3  C   UNL     1       2.234   8.104  18.764  0.00  0.00    +0.000 A 
ATOM      4  C   UNL     1       1.693   7.838  20.027  0.00  0.00    +0.000 A 
ATOM      5  C   UNL     1       1.791   6.535  20.536  0.00  0.00    +0.000 A 
ATOM      6  C   UNL     1       2.431   5.527  19.800  0.00  0.00    +0.000 A 
ENDROOT
BRANCH   4   7
ATOM      7  N   UNL     1       1.059   8.876  20.776  0.00  0.00    +0.000 N 
ATOM      8  C   UNL     1       0.680  10.121  20.303  0.00  0.00    +0.000 A 
ATOM      9  C   UNL     1       0.103  10.846  21.321  0.00  0.00    +0.000 A 
ATOM     10  C   UNL     1       0.124  10.035  22.471  0.00  0.00    +0.000 A 
ATOM     11  C   UNL     1       0.713   8.841  22.115  0.00  0.00    +0.000 A 
ENDBRANCH   4   7
BRANCH   1  13
ATOM     12  C   UNL     1       2.845   3.543  17.314  0.00  0.00    +0.000 C 
ATOM     13  C   UNL     1       3.697   4.710  17.782  0.00  0.00    +0.000 C 
ATOM     14  N   UNL     1       4.979   4.840  17.574  0.00  0.00    +0.000 NA
BRANCH  14  15
ATOM     15  N   UNL     1       5.655   3.871  16.893  0.00  0.00    +0.000 N 
ATOM     16  H   UNL     1       5.528   2.889  17.095  0.00  0.00    +0.000 HD
BRANCH  15  17
ATOM     17  C   UNL     1       6.565   4.178  15.923  0.00  0.00    +0.000 C 
ATOM     18  S   UNL     1       6.186   4.107  14.310  0.00  0.00    +0.000 S 
BRANCH  17  19
ATOM     19  N   UNL     1       7.790   4.550  16.356  0.00  0.00    +0.000 N 
ATOM     20  H   UNL     1       8.085   4.192  17.256  0.00  0.00    +0.000 HD
ATOM     21  H   UNL     1       8.443   5.013  15.742  0.00  0.00    +0.000 HD
ENDBRANCH  17  19
ENDBRANCH  15  17
ENDBRANCH  14  15
ENDBRANCH   1  13
TORSDOF 5
ENDMDL
MODEL 2
REMARK VINA RESULT:      -6.3      1.267      1.557
REMARK  Name = 
REMARK  6 active torsions:
REMARK  status: ('A' for Active; 'I' for Inactive)
REMARK    1  A    between atoms: C_1  and  C_2
REMARK    2  A    between atoms: C_2  and  C_8
REMARK    3  A    between atoms: N_3  and  N_4
REMARK    4  A    between atoms: N_4  and  C_5
REMARK    5  A    between atoms: C_5  and  N_6
REMARK    6  A    between atoms: C_11  and  N_12
REMARK                            x       y       z     vdW  Elec       q    Type
REMARK                         _______ _______ _______ _____ _____    ______ ____
ROOT
ATOM      1  C   UNL     1       2.907   6.661  18.371  0.00  0.00    +0.000 A 
ATOM      2  C   UNL     1       2.535   7.933  17.926  0.00  0.00    +0.000 A 
ATOM      3  C   UNL     1       1.814   8.802  18.753  0.00  0.00    +0.000 A 
ATOM      4  C   UNL     1       1.445   8.416  20.048  0.00  0.00    +0.000 A 
ATOM      5  C   UNL     1       1.800   7.134  20.491  0.00  0.00    +0.000 A 
ATOM      6  C   UNL     1       2.524   6.266  19.659  0.00  0.00    +0.000 A 
ENDROOT
BRANCH   4   7
ATOM      7  N   UNL     1       0.724   9.315  20.893  0.00  0.00    +0.000 N 
ATOM      8  C   UNL     1       0.464   9.148  22.243  0.00  0.00    +0.000 A 
ATOM      9  C   UNL     1      -0.258  10.223  22.710  0.00  0.00    +0.000 A 
ATOM     10  C   UNL     1      -0.462  11.090  21.620  0.00  0.00    +0.000 A 
ATOM     11  C   UNL     1       0.143  10.515  20.524  0.00  0.00    +0.000 A 
ENDBRANCH   4   7
BRANCH   1  13
ATOM     12  C   UNL     1       3.310   4.260  17.538  0.00  0.00    +0.000 C 
ATOM     13  C   UNL     1       3.709   5.725  17.504  0.00  0.00    +0.000 C 
ATOM     14  N   UNL     1       4.677   6.227  16.789  0.00  0.00    +0.000 NA
BRANCH  14  15
ATOM     15  N   UNL     1       5.428   5.409  15.998  0.00  0.00    +0.000 N 
ATOM     16  H   UNL     1       5.021   4.874  15.243  0.00  0.00    +0.000 HD
BRANCH  15  17
ATOM     17  C   UNL     1       6.767   5.244  16.203  0.00  0.00    +0.000 C 
ATOM     18  S   UNL     1       7.383   4.812  17.682  0.00  0.00    +0.000 S 
BRANCH  17  19
ATOM     19  N   UNL     1       7.561   5.446  15.129  0.00  0.00    +0.000 N 
ATOM     20  H   UNL     1       7.505   4.763  14.383  0.00  0.00    +0.000 HD
ATOM     21  H   UNL     1       8.053   6.318  14.998  0.00  0.00    +0.000 HD
ENDBRANCH  17  19
ENDBRANCH  15  17
ENDBRANCH  14  15
ENDBRANCH   1  13
TORSDOF 5
ENDMDL
MODEL 3
REMARK VINA RESULT:      -6.3      1.237      1.681
REMARK  Name = 
REMARK  6 active torsions:
REMARK  status: ('A' for Active; 'I' for Inactive)
REMARK    1  A    between atoms: C_1  and  C_2
REMARK    2  A    between atoms: C_2  and  C_8
REMARK    3  A    between atoms: N_3  and  N_4
REMARK    4  A    between atoms: N_4  and  C_5
REMARK    5  A    between atoms: C_5  and  N_6
REMARK    6  A    between atoms: C_11  and  N_12
REMARK                            x       y       z     vdW  Elec       q    Type
REMARK                         _______ _______ _______ _____ _____    ______ ____
ROOT
ATOM      1  C   UNL     1       3.018   6.568  18.348  0.00  0.00    +0.000 A 
ATOM      2  C   UNL     1       2.626   6.156  19.626  0.00  0.00    +0.000 A 
ATOM      3  C   UNL     1       1.885   7.003  20.458  0.00  0.00    +0.000 A 
ATOM      4  C   UNL     1       1.521   8.286  20.032  0.00  0.00    +0.000 A 
ATOM      5  C   UNL     1       1.927   8.709  18.758  0.00  0.00    +0.000 A 
ATOM      6  C   UNL     1       2.669   7.857  17.926  0.00  0.00    +0.000 A 
ENDROOT
BRANCH   4   7
ATOM      7  N   UNL     1       0.749   9.139  20.880  0.00  0.00    +0.000 N 
ATOM      8  C   UNL     1      -0.126  10.133  20.475  0.00  0.00    +0.000 A 
ATOM      9  C   UNL     1      -0.680  10.738  21.579  0.00  0.00    +0.000 A 
ATOM     10  C   UNL     1      -0.133  10.111  22.714  0.00  0.00    +0.000 A 
ATOM     11  C   UNL     1       0.736   9.141  22.263  0.00  0.00    +0.000 A 
ENDBRANCH   4   7
BRANCH   1  13
ATOM     12  C   UNL     1       3.396   4.190  17.439  0.00  0.00    +0.000 C 
ATOM     13  C   UNL     1       3.789   5.657  17.428  0.00  0.00    +0.000 C 
ATOM     14  N   UNL     1       4.728   6.181  16.689  0.00  0.00    +0.000 NA
BRANCH  14  15
ATOM     15  N   UNL     1       5.451   5.386  15.849  0.00  0.00    +0.000 N 
ATOM     16  H   UNL     1       5.023   4.899  15.074  0.00  0.00    +0.000 HD
BRANCH  15  17
ATOM     17  C   UNL     1       6.788   5.180  16.030  0.00  0.00    +0.000 C 
ATOM     18  S   UNL     1       7.413   4.696  17.489  0.00  0.00    +0.000 S 
BRANCH  17  19
ATOM     19  N   UNL     1       7.571   5.386  14.948  0.00  0.00    +0.000 N 
ATOM     20  H   UNL     1       7.246   6.064  14.271  0.00  0.00    +0.000 HD
ATOM     21  H   UNL     1       8.509   5.016  14.904  0.00  0.00    +0.000 HD
ENDBRANCH  17  19
ENDBRANCH  15  17
ENDBRANCH  14  15
ENDBRANCH   1  13
TORSDOF 5
ENDMDL
MODEL 4
REMARK VINA RESULT:      -6.2      1.146      1.216
REMARK  Name = 
REMARK  6 active torsions:
REMARK  status: ('A' for Active; 'I' for Inactive)
REMARK    1  A    between atoms: C_1  and  C_2
REMARK    2  A    between atoms: C_2  and  C_8
REMARK    3  A    between atoms: N_3  and  N_4
REMARK    4  A    between atoms: N_4  and  C_5
REMARK    5  A    between atoms: C_5  and  N_6
REMARK    6  A    between atoms: C_11  and  N_12
REMARK                            x       y       z     vdW  Elec       q    Type
REMARK                         _______ _______ _______ _____ _____    ______ ____
ROOT
ATOM      1  C   UNL     1       3.858   5.936  17.883  0.00  0.00    +0.000 A 
ATOM      2  C   UNL     1       3.599   7.217  17.386  0.00  0.00    +0.000 A 
ATOM      3  C   UNL     1       2.761   8.100  18.079  0.00  0.00    +0.000 A 
ATOM      4  C   UNL     1       2.161   7.719  19.285  0.00  0.00    +0.000 A 
ATOM      5  C   UNL     1       2.404   6.429  19.776  0.00  0.00    +0.000 A 
ATOM      6  C   UNL     1       3.244   5.547  19.080  0.00  0.00    +0.000 A 
ENDROOT
BRANCH   4   7
ATOM      7  N   UNL     1       1.322   8.632  19.995  0.00  0.00    +0.000 N 
ATOM      8  C   UNL     1       0.684   9.745  19.472  0.00  0.00    +0.000 A 
ATOM      9  C   UNL     1      -0.032  10.375  20.464  0.00  0.00    +0.000 A 
ATOM     10  C   UNL     1       0.165   9.641  21.648  0.00  0.00    +0.000 A 
ATOM     11  C   UNL     1       0.995   8.585  21.339  0.00  0.00    +0.000 A 
ENDBRANCH   4   7
BRANCH   1  13
ATOM     12  C   UNL     1       4.342   3.531  17.104  0.00  0.00    +0.000 C 
ATOM     13  C   UNL     1       4.781   4.984  17.165  0.00  0.00    +0.000 C 
ATOM     14  N   UNL     1       5.878   5.464  16.648  0.00  0.00    +0.000 NA
BRANCH  14  15
ATOM     15  N   UNL     1       6.739   4.631  15.997  0.00  0.00    +0.000 N 
ATOM     16  H   UNL     1       7.288   3.939  16.489  0.00  0.00    +0.000 HD
BRANCH  15  17
ATOM     17  C   UNL     1       6.930   4.708  14.648  0.00  0.00    +0.000 C 
ATOM     18  S   UNL     1       5.988   3.861  13.577  0.00  0.00    +0.000 S 
BRANCH  17  19
ATOM     19  N   UNL     1       7.928   5.521  14.236  0.00  0.00    +0.000 N 
ATOM     20  H   UNL     1       7.719   6.510  14.183  0.00  0.00    +0.000 HD
ATOM     21  H   UNL     1       8.876   5.186  14.154  0.00  0.00    +0.000 HD
ENDBRANCH  17  19
ENDBRANCH  15  17
ENDBRANCH  14  15
ENDBRANCH   1  13
TORSDOF 5
ENDMDL
MODEL 5
REMARK VINA RESULT:      -6.2      2.680      4.096
REMARK  Name = 
REMARK  6 active torsions:
REMARK  status: ('A' for Active; 'I' for Inactive)
REMARK    1  A    between atoms: C_1  and  C_2
REMARK    2  A    between atoms: C_2  and  C_8
REMARK    3  A    between atoms: N_3  and  N_4
REMARK    4  A    between atoms: N_4  and  C_5
REMARK    5  A    between atoms: C_5  and  N_6
REMARK    6  A    between atoms: C_11  and  N_12
REMARK                            x       y       z     vdW  Elec       q    Type
REMARK                         _______ _______ _______ _____ _____    ______ ____
ROOT
ATOM      1  C   UNL     1       5.153   5.027  15.896  0.00  0.00    +0.000 A 
ATOM      2  C   UNL     1       4.364   4.159  16.659  0.00  0.00    +0.000 A 
ATOM      3  C   UNL     1       3.570   4.643  17.706  0.00  0.00    +0.000 A 
ATOM      4  C   UNL     1       3.550   6.008  18.016  0.00  0.00    +0.000 A 
ATOM      5  C   UNL     1       4.353   6.878  17.265  0.00  0.00    +0.000 A 
ATOM      6  C   UNL     1       5.147   6.390  16.216  0.00  0.00    +0.000 A 
ENDROOT
BRANCH   4   7
ATOM      7  N   UNL     1       2.724   6.497  19.074  0.00  0.00    +0.000 N 
ATOM      8  C   UNL     1       2.296   7.803  19.252  0.00  0.00    +0.000 A 
ATOM      9  C   UNL     1       1.519   7.884  20.385  0.00  0.00    +0.000 A 
ATOM     10  C   UNL     1       1.459   6.592  20.940  0.00  0.00    +0.000 A 
ATOM     11  C   UNL     1       2.202   5.765  20.126  0.00  0.00    +0.000 A 
ENDBRANCH   4   7
BRANCH   1  13
ATOM     12  C   UNL     1       7.407   5.063  14.656  0.00  0.00    +0.000 C 
ATOM     13  C   UNL     1       5.989   4.526  14.747  0.00  0.00    +0.000 C 
ATOM     14  N   UNL     1       5.450   3.674  13.919  0.00  0.00    +0.000 NA
BRANCH  14  15
ATOM     15  N   UNL     1       6.176   3.205  12.864  0.00  0.00    +0.000 N 
ATOM     16  H   UNL     1       7.179   3.317  12.813  0.00  0.00    +0.000 HD
BRANCH  15  17
ATOM     17  C   UNL     1       5.581   2.586  11.803  0.00  0.00    +0.000 C 
ATOM     18  S   UNL     1       4.166   3.143  11.140  0.00  0.00    +0.000 S 
BRANCH  17  19
ATOM     19  N   UNL     1       6.217   1.495  11.320  0.00  0.00    +0.000 N 
ATOM     20  H   UNL     1       5.812   1.054  10.505  0.00  0.00    +0.000 HD
ATOM     21  H   UNL     1       7.137   1.239  11.647  0.00  0.00    +0.000 HD
ENDBRANCH  17  19
ENDBRANCH  15  17
ENDBRANCH  14  15
ENDBRANCH   1  13
TORSDOF 5
ENDMDL
MODEL 6
REMARK VINA RESULT:      -6.2      1.568      1.757
REMARK  Name = 
REMARK  6 active torsions:
REMARK  status: ('A' for Active; 'I' for Inactive)
REMARK    1  A    between atoms: C_1  and  C_2
REMARK    2  A    between atoms: C_2  and  C_8
REMARK    3  A    between atoms: N_3  and  N_4
REMARK    4  A    between atoms: N_4  and  C_5
REMARK    5  A    between atoms: C_5  and  N_6
REMARK    6  A    between atoms: C_11  and  N_12
REMARK                            x       y       z     vdW  Elec       q    Type
REMARK                         _______ _______ _______ _____ _____    ______ ____
ROOT
ATOM      1  C   UNL     1       2.604   7.123  18.707  0.00  0.00    +0.000 A 
ATOM      2  C   UNL     1       2.156   8.376  18.275  0.00  0.00    +0.000 A 
ATOM      3  C   UNL     1       1.390   9.194  19.115  0.00  0.00    +0.000 A 
ATOM      4  C   UNL     1       1.052   8.775  20.407  0.00  0.00    +0.000 A 
ATOM      5  C   UNL     1       1.484   7.513  20.837  0.00  0.00    +0.000 A 
ATOM      6  C   UNL     1       2.252   6.696  19.993  0.00  0.00    +0.000 A 
ENDROOT
BRANCH   4   7
ATOM      7  N   UNL     1       0.285   9.623  21.264  0.00  0.00    +0.000 N 
ATOM      8  C   UNL     1      -0.252  10.857  20.939  0.00  0.00    +0.000 A 
ATOM      9  C   UNL     1      -0.922  11.371  22.026  0.00  0.00    +0.000 A 
ATOM     10  C   UNL     1      -0.800  10.433  23.069  0.00  0.00    +0.000 A 
ATOM     11  C   UNL     1      -0.058   9.378  22.582  0.00  0.00    +0.000 A 
ENDBRANCH   4   7
BRANCH   1  13
ATOM     12  C   UNL     1       3.005   4.801  17.674  0.00  0.00    +0.000 C 
ATOM     13  C   UNL     1       3.454   6.243  17.827  0.00  0.00    +0.000 C 
ATOM     14  N   UNL     1       4.503   6.772  17.259  0.00  0.00    +0.000 NA
BRANCH  14  15
ATOM     15  N   UNL     1       5.299   6.004  16.462  0.00  0.00    +0.000 N 
ATOM     16  H   UNL     1       4.933   5.505  15.662  0.00  0.00    +0.000 HD
BRANCH  15  17
ATOM     17  C   UNL     1       6.629   5.842  16.719  0.00  0.00    +0.000 C 
ATOM     18  S   UNL     1       7.216   5.708  18.265  0.00  0.00    +0.000 S 
BRANCH  17  19
ATOM     19  N   UNL     1       7.440   5.790  15.639  0.00  0.00    +0.000 N 
ATOM     20  H   UNL     1       8.128   5.047  15.619  0.00  0.00    +0.000 HD
ATOM     21  H   UNL     1       7.256   6.350  14.820  0.00  0.00    +0.000 HD
ENDBRANCH  17  19
ENDBRANCH  15  17
ENDBRANCH  14  15
ENDBRANCH   1  13
TORSDOF 5
ENDMDL
MODEL 7
REMARK VINA RESULT:      -6.2      1.027      1.765
REMARK  Name = 
REMARK  6 active torsions:
REMARK  status: ('A' for Active; 'I' for Inactive)
REMARK    1  A    between atoms: C_1  and  C_2
REMARK    2  A    between atoms: C_2  and  C_8
REMARK    3  A    between atoms: N_3  and  N_4
REMARK    4  A    between atoms: N_4  and  C_5
REMARK    5  A    between atoms: C_5  and  N_6
REMARK    6  A    between atoms: C_11  and  N_12
REMARK                            x       y       z     vdW  Elec       q    Type
REMARK                         _______ _______ _______ _____ _____    ______ ____
ROOT
ATOM      1  C   UNL     1       3.565   5.588  17.998  0.00  0.00    +0.000 A 
ATOM      2  C   UNL     1       2.966   5.273  19.222  0.00  0.00    +0.000 A 
ATOM      3  C   UNL     1       2.261   6.242  19.948  0.00  0.00    +0.000 A 
ATOM      4  C   UNL     1       2.141   7.550  19.465  0.00  0.00    +0.000 A 
ATOM      5  C   UNL     1       2.755   7.874  18.247  0.00  0.00    +0.000 A 
ATOM      6  C   UNL     1       3.460   6.901  17.522  0.00  0.00    +0.000 A 
ENDROOT
BRANCH   4   7
ATOM      7  N   UNL     1       1.404   8.528  20.201  0.00  0.00    +0.000 N 
ATOM      8  C   UNL     1       1.125   8.501  21.558  0.00  0.00    +0.000 A 
ATOM      9  C   UNL     1       0.392   9.615  21.900  0.00  0.00    +0.000 A 
ATOM     10  C   UNL     1       0.199  10.362  20.724  0.00  0.00    +0.000 A 
ATOM     11  C   UNL     1       0.823   9.680  19.702  0.00  0.00    +0.000 A 
ENDBRANCH   4   7
BRANCH   1  13
ATOM     12  C   UNL     1       3.825   3.116  17.333  0.00  0.00    +0.000 C 
ATOM     13  C   UNL     1       4.302   4.551  17.191  0.00  0.00    +0.000 C 
ATOM     14  N   UNL     1       5.284   4.948  16.429  0.00  0.00    +0.000 NA
BRANCH  14  15
ATOM     15  N   UNL     1       5.977   4.036  15.690  0.00  0.00    +0.000 N 
ATOM     16  H   UNL     1       6.098   3.080  15.996  0.00  0.00    +0.000 HD
BRANCH  15  17
ATOM     17  C   UNL     1       6.572   4.373  14.509  0.00  0.00    +0.000 C 
ATOM     18  S   UNL     1       6.131   3.673  13.071  0.00  0.00    +0.000 S 
BRANCH  17  19
ATOM     19  N   UNL     1       7.537   5.317  14.579  0.00  0.00    +0.000 N 
ATOM     20  H   UNL     1       7.341   6.129  15.151  0.00  0.00    +0.000 HD
ATOM     21  H   UNL     1       8.465   5.143  14.224  0.00  0.00    +0.000 HD
ENDBRANCH  17  19
ENDBRANCH  15  17
ENDBRANCH  14  15
ENDBRANCH   1  13
TORSDOF 5
ENDMDL
MODEL 8
REMARK VINA RESULT:      -6.2      1.346      1.765
REMARK  Name = 
REMARK  6 active torsions:
REMARK  status: ('A' for Active; 'I' for Inactive)
REMARK    1  A    between atoms: C_1  and  C_2
REMARK    2  A    between atoms: C_2  and  C_8
REMARK    3  A    between atoms: N_3  and  N_4
REMARK    4  A    between atoms: N_4  and  C_5
REMARK    5  A    between atoms: C_5  and  N_6
REMARK    6  A    between atoms: C_11  and  N_12
REMARK                            x       y       z     vdW  Elec       q    Type
REMARK                         _______ _______ _______ _____ _____    ______ ____
ROOT
ATOM      1  C   UNL     1       4.100   6.016  17.976  0.00  0.00    +0.000 A 
ATOM      2  C   UNL     1       3.761   7.244  17.398  0.00  0.00    +0.000 A 
ATOM      3  C   UNL     1       2.835   8.096  18.013  0.00  0.00    +0.000 A 
ATOM      4  C   UNL     1       2.225   7.737  19.221  0.00  0.00    +0.000 A 
ATOM      5  C   UNL     1       2.550   6.500  19.794  0.00  0.00    +0.000 A 
ATOM      6  C   UNL     1       3.479   5.648  19.175  0.00  0.00    +0.000 A 
ENDROOT
BRANCH   4   7
ATOM      7  N   UNL     1       1.296   8.620  19.852  0.00  0.00    +0.000 N 
ATOM      8  C   UNL     1       0.827   8.533  21.153  0.00  0.00    +0.000 A 
ATOM      9  C   UNL     1      -0.056   9.560  21.395  0.00  0.00    +0.000 A 
ATOM     10  C   UNL     1      -0.150  10.314  20.211  0.00  0.00    +0.000 A 
ATOM     11  C   UNL     1       0.680   9.721  19.284  0.00  0.00    +0.000 A 
ENDBRANCH   4   7
BRANCH   1  13
ATOM     12  C   UNL     1       6.295   4.693  18.209  0.00  0.00    +0.000 C 
ATOM     13  C   UNL     1       5.116   5.101  17.342  0.00  0.00    +0.000 C 
ATOM     14  N   UNL     1       4.919   4.722  16.110  0.00  0.00    +0.000 NA
BRANCH  14  15
ATOM     15  N   UNL     1       5.821   3.899  15.503  0.00  0.00    +0.000 N 
ATOM     16  H   UNL     1       6.034   2.980  15.865  0.00  0.00    +0.000 HD
BRANCH  15  17
ATOM     17  C   UNL     1       6.510   4.287  14.390  0.00  0.00    +0.000 C 
ATOM     18  S   UNL     1       6.182   3.657  12.890  0.00  0.00    +0.000 S 
BRANCH  17  19
ATOM     19  N   UNL     1       7.469   5.219  14.581  0.00  0.00    +0.000 N 
ATOM     20  H   UNL     1       7.335   5.861  15.352  0.00  0.00    +0.000 HD
ATOM     21  H   UNL     1       8.351   5.169  14.093  0.00  0.00    +0.000 HD
ENDBRANCH  17  19
ENDBRANCH  15  17
ENDBRANCH  14  15
ENDBRANCH   1  13
TORSDOF 5
ENDMDL
MODEL 9
REMARK VINA RESULT:      -6.2      0.974      1.603
REMARK  Name = 
REMARK  6 active torsions:
REMARK  status: ('A' for Active; 'I' for Inactive)
REMARK    1  A    between atoms: C_1  and  C_2
REMARK    2  A    between atoms: C_2  and  C_8
REMARK    3  A    between atoms: N_3  and  N_4
REMARK    4  A    between atoms: N_4  and  C_5
REMARK    5  A    between atoms: C_5  and  N_6
REMARK    6  A    between atoms: C_11  and  N_12
REMARK                            x       y       z     vdW  Elec       q    Type
REMARK                         _______ _______ _______ _____ _____    ______ ____
ROOT
ATOM      1  C   UNL     1       2.961   6.486  18.564  0.00  0.00    +0.000 A 
ATOM      2  C   UNL     1       2.428   6.528  19.856  0.00  0.00    +0.000 A 
ATOM      3  C   UNL     1       1.714   7.646  20.303  0.00  0.00    +0.000 A 
ATOM      4  C   UNL     1       1.518   8.751  19.466  0.00  0.00    +0.000 A 
ATOM      5  C   UNL     1       2.065   8.719  18.176  0.00  0.00    +0.000 A 
ATOM      6  C   UNL     1       2.780   7.597  17.730  0.00  0.00    +0.000 A 
ENDROOT
BRANCH   4   7
ATOM      7  N   UNL     1       0.773   9.881  19.922  0.00  0.00    +0.000 N 
ATOM      8  C   UNL     1      -0.124  10.633  19.181  0.00  0.00    +0.000 A 
ATOM      9  C   UNL     1      -0.641  11.640  19.964  0.00  0.00    +0.000 A 
ATOM     10  C   UNL     1      -0.048  11.522  21.235  0.00  0.00    +0.000 A 
ATOM     11  C   UNL     1       0.811  10.445  21.185  0.00  0.00    +0.000 A 
ENDBRANCH   4   7
BRANCH   1  13
ATOM     12  C   UNL     1       2.860   4.121  17.554  0.00  0.00    +0.000 C 
ATOM     13  C   UNL     1       3.706   5.277  18.057  0.00  0.00    +0.000 C 
ATOM     14  N   UNL     1       5.010   5.305  18.079  0.00  0.00    +0.000 NA
BRANCH  14  15
ATOM     15  N   UNL     1       5.716   4.228  17.634  0.00  0.00    +0.000 N 
ATOM     16  H   UNL     1       5.525   3.290  17.961  0.00  0.00    +0.000 HD
BRANCH  15  17
ATOM     17  C   UNL     1       6.743   4.360  16.744  0.00  0.00    +0.000 C 
ATOM     18  S   UNL     1       6.477   4.567  15.120  0.00  0.00    +0.000 S 
BRANCH  17  19
ATOM     19  N   UNL     1       7.989   4.321  17.266  0.00  0.00    +0.000 N 
ATOM     20  H   UNL     1       8.388   3.405  17.428  0.00  0.00    +0.000 HD
ATOM     21  H   UNL     1       8.556   5.154  17.329  0.00  0.00    +0.000 HD
ENDBRANCH  17  19
ENDBRANCH  15  17
ENDBRANCH  14  15
ENDBRANCH   1  13
TORSDOF 5
ENDMDL
