MODEL 1
REMARK VINA RESULT:      -7.3      0.000      0.000
REMARK  Name = 
REMARK  2 active torsions:
REMARK  status: ('A' for Active; 'I' for Inactive)
REMARK    1  A    between atoms: O_1  and  C_2
REMARK    2  A    between atoms: C_7  and  C_8
REMARK                            x       y       z     vdW  Elec       q    Type
REMARK                         _______ _______ _______ _____ _____    ______ ____
ROOT
ATOM      1  C   UNL     1       2.184   2.723  18.528  0.00  0.00    +0.000 A 
ATOM      2  C   UNL     1       1.024   2.488  19.271  0.00  0.00    +0.000 A 
ATOM      3  C   UNL     1       0.651   3.374  20.280  0.00  0.00    +0.000 A 
ATOM      4  C   UNL     1       1.433   4.496  20.545  0.00  0.00    +0.000 A 
ATOM      5  C   UNL     1       2.589   4.737  19.797  0.00  0.00    +0.000 A 
ATOM      6  C   UNL     1       2.979   3.851  18.779  0.00  0.00    +0.000 A 
ENDROOT
BRANCH   6   7
ATOM      7  C   UNL     1       4.192   4.118  17.968  0.00  0.00    +0.000 A 
ATOM      8  N   UNL     1       4.277   3.921  16.677  0.00  0.00    +0.000 NA
ATOM      9  N   UNL     1       5.541   4.253  16.331  0.00  0.00    +0.000 N 
ATOM     10  C   UNL     1       6.236   4.228  15.165  0.00  0.00    +0.000 A 
ATOM     11  N   UNL     1       7.464   4.670  15.386  0.00  0.00    +0.000 NA
ATOM     12  N   UNL     1       7.575   4.981  16.743  0.00  0.00    +0.000 NA
ATOM     13  C   UNL     1       6.410   4.707  17.258  0.00  0.00    +0.000 A 
ATOM     14  S   UNL     1       5.663   4.751  18.789  0.00  0.00    +0.000 S 
ENDBRANCH   6   7
BRANCH   1  15
ATOM     15  O   UNL     1       2.549   1.811  17.577  0.00  0.00    +0.000 OA
ATOM     16  H   UNL     1       3.448   2.003  17.265  0.00  0.00    +0.000 HD
ENDBRANCH   1  15
TORSDOF 2
ENDMDL
MODEL 2
REMARK VINA RESULT:      -7.2      1.334      1.375
REMARK  Name = 
REMARK  2 active torsions:
REMARK  status: ('A' for Active; 'I' for Inactive)
REMARK    1  A    between atoms: O_1  and  C_2
REMARK    2  A    between atoms: C_7  and  C_8
REMARK                            x       y       z     vdW  Elec       q    Type
REMARK                         _______ _______ _______ _____ _____    ______ ____
ROOT
ATOM      1  C   UNL     1       3.766   2.899  19.718  0.00  0.00    +0.000 A 
ATOM      2  C   UNL     1       2.783   2.493  20.624  0.00  0.00    +0.000 A 
ATOM      3  C   UNL     1       1.543   3.129  20.638  0.00  0.00    +0.000 A 
ATOM      4  C   UNL     1       1.282   4.167  19.746  0.00  0.00    +0.000 A 
ATOM      5  C   UNL     1       2.261   4.568  18.833  0.00  0.00    +0.000 A 
ATOM      6  C   UNL     1       3.517   3.938  18.809  0.00  0.00    +0.000 A 
ENDROOT
BRANCH   6   7
ATOM      7  C   UNL     1       4.549   4.346  17.824  0.00  0.00    +0.000 A 
ATOM      8  N   UNL     1       4.804   3.706  16.712  0.00  0.00    +0.000 NA
ATOM      9  N   UNL     1       5.820   4.374  16.121  0.00  0.00    +0.000 N 
ATOM     10  C   UNL     1       6.539   4.183  14.986  0.00  0.00    +0.000 A 
ATOM     11  N   UNL     1       7.435   5.152  14.875  0.00  0.00    +0.000 NA
ATOM     12  N   UNL     1       7.301   5.994  15.981  0.00  0.00    +0.000 NA
ATOM     13  C   UNL     1       6.336   5.483  16.692  0.00  0.00    +0.000 A 
ATOM     14  S   UNL     1       5.536   5.813  18.159  0.00  0.00    +0.000 S 
ENDBRANCH   6   7
BRANCH   1  15
ATOM     15  O   UNL     1       4.989   2.288  19.760  0.00  0.00    +0.000 OA
ATOM     16  H   UNL     1       5.383   2.282  18.874  0.00  0.00    +0.000 HD
ENDBRANCH   1  15
TORSDOF 2
ENDMDL
MODEL 3
REMARK VINA RESULT:      -7.2      1.849      2.030
REMARK  Name = 
REMARK  2 active torsions:
REMARK  status: ('A' for Active; 'I' for Inactive)
REMARK    1  A    between atoms: O_1  and  C_2
REMARK    2  A    between atoms: C_7  and  C_8
REMARK                            x       y       z     vdW  Elec       q    Type
REMARK                         _______ _______ _______ _____ _____    ______ ____
ROOT
ATOM      1  C   UNL     1       3.526   2.663  20.641  0.00  0.00    +0.000 A 
ATOM      2  C   UNL     1       2.497   2.402  21.549  0.00  0.00    +0.000 A 
ATOM      3  C   UNL     1       1.294   3.099  21.457  0.00  0.00    +0.000 A 
ATOM      4  C   UNL     1       1.115   4.052  20.458  0.00  0.00    +0.000 A 
ATOM      5  C   UNL     1       2.140   4.308  19.543  0.00  0.00    +0.000 A 
ATOM      6  C   UNL     1       3.360   3.616  19.624  0.00  0.00    +0.000 A 
ENDROOT
BRANCH   6   7
ATOM      7  C   UNL     1       4.441   3.869  18.640  0.00  0.00    +0.000 A 
ATOM      8  N   UNL     1       5.687   4.116  18.956  0.00  0.00    +0.000 NA
ATOM      9  N   UNL     1       6.335   4.317  17.787  0.00  0.00    +0.000 N 
ATOM     10  C   UNL     1       7.612   4.642  17.462  0.00  0.00    +0.000 A 
ATOM     11  N   UNL     1       7.716   4.715  16.144  0.00  0.00    +0.000 NA
ATOM     12  N   UNL     1       6.463   4.440  15.595  0.00  0.00    +0.000 NA
ATOM     13  C   UNL     1       5.679   4.219  16.612  0.00  0.00    +0.000 A 
ATOM     14  S   UNL     1       4.039   3.847  16.886  0.00  0.00    +0.000 S 
ENDBRANCH   6   7
BRANCH   1  15
ATOM     15  O   UNL     1       4.712   1.998  20.785  0.00  0.00    +0.000 OA
ATOM     16  H   UNL     1       5.443   2.635  20.830  0.00  0.00    +0.000 HD
ENDBRANCH   1  15
TORSDOF 2
ENDMDL
MODEL 4
REMARK VINA RESULT:      -7.1      1.025      1.032
REMARK  Name = 
REMARK  2 active torsions:
REMARK  status: ('A' for Active; 'I' for Inactive)
REMARK    1  A    between atoms: O_1  and  C_2
REMARK    2  A    between atoms: C_7  and  C_8
REMARK                            x       y       z     vdW  Elec       q    Type
REMARK                         _______ _______ _______ _____ _____    ______ ____
ROOT
ATOM      1  C   UNL     1       1.921   3.439  18.670  0.00  0.00    +0.000 A 
ATOM      2  C   UNL     1       0.880   3.095  19.537  0.00  0.00    +0.000 A 
ATOM      3  C   UNL     1       1.157   2.769  20.863  0.00  0.00    +0.000 A 
ATOM      4  C   UNL     1       2.471   2.789  21.326  0.00  0.00    +0.000 A 
ATOM      5  C   UNL     1       3.512   3.142  20.463  0.00  0.00    +0.000 A 
ATOM      6  C   UNL     1       3.249   3.470  19.122  0.00  0.00    +0.000 A 
ENDROOT
BRANCH   6   7
ATOM      7  C   UNL     1       4.349   3.868  18.210  0.00  0.00    +0.000 A 
ATOM      8  N   UNL     1       4.426   3.523  16.950  0.00  0.00    +0.000 NA
ATOM      9  N   UNL     1       5.580   4.055  16.488  0.00  0.00    +0.000 N 
ATOM     10  C   UNL     1       6.222   4.018  15.292  0.00  0.00    +0.000 A 
ATOM     11  N   UNL     1       7.339   4.724  15.381  0.00  0.00    +0.000 NA
ATOM     12  N   UNL     1       7.431   5.227  16.680  0.00  0.00    +0.000 NA
ATOM     13  C   UNL     1       6.368   4.794  17.297  0.00  0.00    +0.000 A 
ATOM     14  S   UNL     1       5.685   4.887  18.855  0.00  0.00    +0.000 S 
ENDBRANCH   6   7
BRANCH   1  15
ATOM     15  O   UNL     1       1.623   3.707  17.363  0.00  0.00    +0.000 OA
ATOM     16  H   UNL     1       1.768   2.913  16.824  0.00  0.00    +0.000 HD
ENDBRANCH   1  15
TORSDOF 2
ENDMDL
MODEL 5
REMARK VINA RESULT:      -7.0      2.000      2.241
REMARK  Name = 
REMARK  2 active torsions:
REMARK  status: ('A' for Active; 'I' for Inactive)
REMARK    1  A    between atoms: O_1  and  C_2
REMARK    2  A    between atoms: C_7  and  C_8
REMARK                            x       y       z     vdW  Elec       q    Type
REMARK                         _______ _______ _______ _____ _____    ______ ____
ROOT
ATOM      1  C   UNL     1       3.693   2.872  20.238  0.00  0.00    +0.000 A 
ATOM      2  C   UNL     1       2.705   2.253  21.009  0.00  0.00    +0.000 A 
ATOM      3  C   UNL     1       1.498   2.906  21.249  0.00  0.00    +0.000 A 
ATOM      4  C   UNL     1       1.273   4.174  20.716  0.00  0.00    +0.000 A 
ATOM      5  C   UNL     1       2.255   4.791  19.937  0.00  0.00    +0.000 A 
ATOM      6  C   UNL     1       3.479   4.146  19.689  0.00  0.00    +0.000 A 
ENDROOT
BRANCH   6   7
ATOM      7  C   UNL     1       4.514   4.789  18.843  0.00  0.00    +0.000 A 
ATOM      8  N   UNL     1       5.664   5.231  19.287  0.00  0.00    +0.000 NA
ATOM      9  N   UNL     1       6.295   5.766  18.219  0.00  0.00    +0.000 N 
ATOM     10  C   UNL     1       7.482   6.404  18.049  0.00  0.00    +0.000 A 
ATOM     11  N   UNL     1       7.617   6.729  16.772  0.00  0.00    +0.000 NA
ATOM     12  N   UNL     1       6.475   6.298  16.093  0.00  0.00    +0.000 NA
ATOM     13  C   UNL     1       5.721   5.743  16.998  0.00  0.00    +0.000 A 
ATOM     14  S   UNL     1       4.193   4.994  17.084  0.00  0.00    +0.000 S 
ENDBRANCH   6   7
BRANCH   1  15
ATOM     15  O   UNL     1       4.885   2.228  20.060  0.00  0.00    +0.000 OA
ATOM     16  H   UNL     1       4.769   1.488  19.443  0.00  0.00    +0.000 HD
ENDBRANCH   1  15
TORSDOF 2
ENDMDL
MODEL 6
REMARK VINA RESULT:      -7.0      1.092      1.092
REMARK  Name = 
REMARK  2 active torsions:
REMARK  status: ('A' for Active; 'I' for Inactive)
REMARK    1  A    between atoms: O_1  and  C_2
REMARK    2  A    between atoms: C_7  and  C_8
REMARK                            x       y       z     vdW  Elec       q    Type
REMARK                         _______ _______ _______ _____ _____    ______ ____
ROOT
ATOM      1  C   UNL     1       2.014   3.087  18.302  0.00  0.00    +0.000 A 
ATOM      2  C   UNL     1       0.912   2.650  19.042  0.00  0.00    +0.000 A 
ATOM      3  C   UNL     1       0.596   3.267  20.251  0.00  0.00    +0.000 A 
ATOM      4  C   UNL     1       1.376   4.322  20.720  0.00  0.00    +0.000 A 
ATOM      5  C   UNL     1       2.473   4.766  19.977  0.00  0.00    +0.000 A 
ATOM      6  C   UNL     1       2.806   4.152  18.758  0.00  0.00    +0.000 A 
ENDROOT
BRANCH   6   7
ATOM      7  C   UNL     1       3.956   4.638  17.956  0.00  0.00    +0.000 A 
ATOM      8  N   UNL     1       4.835   3.859  17.378  0.00  0.00    +0.000 NA
ATOM      9  N   UNL     1       5.725   4.683  16.780  0.00  0.00    +0.000 N 
ATOM     10  C   UNL     1       6.864   4.482  16.069  0.00  0.00    +0.000 A 
ATOM     11  N   UNL     1       7.359   5.655  15.707  0.00  0.00    +0.000 NA
ATOM     12  N   UNL     1       6.520   6.652  16.210  0.00  0.00    +0.000 NA
ATOM     13  C   UNL     1       5.573   6.022  16.845  0.00  0.00    +0.000 A 
ATOM     14  S   UNL     1       4.185   6.411  17.753  0.00  0.00    +0.000 S 
ENDBRANCH   6   7
BRANCH   1  15
ATOM     15  O   UNL     1       2.327   2.432  17.144  0.00  0.00    +0.000 OA
ATOM     16  H   UNL     1       2.226   3.033  16.389  0.00  0.00    +0.000 HD
ENDBRANCH   1  15
TORSDOF 2
ENDMDL
MODEL 7
REMARK VINA RESULT:      -6.9      1.885      2.232
REMARK  Name = 
REMARK  2 active torsions:
REMARK  status: ('A' for Active; 'I' for Inactive)
REMARK    1  A    between atoms: O_1  and  C_2
REMARK    2  A    between atoms: C_7  and  C_8
REMARK                            x       y       z     vdW  Elec       q    Type
REMARK                         _______ _______ _______ _____ _____    ______ ____
ROOT
ATOM      1  C   UNL     1       3.650   2.776  19.187  0.00  0.00    +0.000 A 
ATOM      2  C   UNL     1       2.555   2.036  19.642  0.00  0.00    +0.000 A 
ATOM      3  C   UNL     1       1.272   2.344  19.196  0.00  0.00    +0.000 A 
ATOM      4  C   UNL     1       1.080   3.387  18.293  0.00  0.00    +0.000 A 
ATOM      5  C   UNL     1       2.174   4.123  17.829  0.00  0.00    +0.000 A 
ATOM      6  C   UNL     1       3.474   3.826  18.273  0.00  0.00    +0.000 A 
ENDROOT
BRANCH   6   7
ATOM      7  C   UNL     1       4.639   4.591  17.764  0.00  0.00    +0.000 A 
ATOM      8  N   UNL     1       5.233   5.556  18.419  0.00  0.00    +0.000 NA
ATOM      9  N   UNL     1       6.216   6.007  17.608  0.00  0.00    +0.000 N 
ATOM     10  C   UNL     1       7.135   7.001  17.704  0.00  0.00    +0.000 A 
ATOM     11  N   UNL     1       7.874   7.012  16.606  0.00  0.00    +0.000 NA
ATOM     12  N   UNL     1       7.413   6.000  15.763  0.00  0.00    +0.000 NA
ATOM     13  C   UNL     1       6.424   5.440  16.400  0.00  0.00    +0.000 A 
ATOM     14  S   UNL     1       5.298   4.188  16.139  0.00  0.00    +0.000 S 
ENDBRANCH   6   7
BRANCH   1  15
ATOM     15  O   UNL     1       4.891   2.482  19.680  0.00  0.00    +0.000 OA
ATOM     16  H   UNL     1       5.099   1.550  19.510  0.00  0.00    +0.000 HD
ENDBRANCH   1  15
TORSDOF 2
ENDMDL
MODEL 8
REMARK VINA RESULT:      -6.9      1.943      2.479
REMARK  Name = 
REMARK  2 active torsions:
REMARK  status: ('A' for Active; 'I' for Inactive)
REMARK    1  A    between atoms: O_1  and  C_2
REMARK    2  A    between atoms: C_7  and  C_8
REMARK                            x       y       z     vdW  Elec       q    Type
REMARK                         _______ _______ _______ _____ _____    ______ ____
ROOT
ATOM      1  C   UNL     1       2.498   4.885  19.918  0.00  0.00    +0.000 A 
ATOM      2  C   UNL     1       1.408   4.322  20.587  0.00  0.00    +0.000 A 
ATOM      3  C   UNL     1       0.998   3.025  20.283  0.00  0.00    +0.000 A 
ATOM      4  C   UNL     1       1.677   2.289  19.315  0.00  0.00    +0.000 A 
ATOM      5  C   UNL     1       2.773   2.847  18.651  0.00  0.00    +0.000 A 
ATOM      6  C   UNL     1       3.197   4.154  18.945  0.00  0.00    +0.000 A 
ENDROOT
BRANCH   6   7
ATOM      7  C   UNL     1       4.374   4.739  18.258  0.00  0.00    +0.000 A 
ATOM      8  N   UNL     1       5.197   5.598  18.805  0.00  0.00    +0.000 NA
ATOM      9  N   UNL     1       6.104   5.904  17.850  0.00  0.00    +0.000 N 
ATOM     10  C   UNL     1       7.167   6.747  17.796  0.00  0.00    +0.000 A 
ATOM     11  N   UNL     1       7.727   6.659  16.600  0.00  0.00    +0.000 NA
ATOM     12  N   UNL     1       6.997   5.736  15.848  0.00  0.00    +0.000 NA
ATOM     13  C   UNL     1       6.042   5.325  16.633  0.00  0.00    +0.000 A 
ATOM     14  S   UNL     1       4.715   4.260  16.558  0.00  0.00    +0.000 S 
ENDBRANCH   6   7
BRANCH   1  15
ATOM     15  O   UNL     1       2.848   6.176  20.204  0.00  0.00    +0.000 OA
ATOM     16  H   UNL     1       2.334   6.494  20.963  0.00  0.00    +0.000 HD
ENDBRANCH   1  15
TORSDOF 2
ENDMDL
MODEL 9
REMARK VINA RESULT:      -6.8      1.484      1.531
REMARK  Name = 
REMARK  2 active torsions:
REMARK  status: ('A' for Active; 'I' for Inactive)
REMARK    1  A    between atoms: O_1  and  C_2
REMARK    2  A    between atoms: C_7  and  C_8
REMARK                            x       y       z     vdW  Elec       q    Type
REMARK                         _______ _______ _______ _____ _____    ______ ____
ROOT
ATOM      1  C   UNL     1       1.595   3.711  18.629  0.00  0.00    +0.000 A 
ATOM      2  C   UNL     1       0.743   3.262  19.642  0.00  0.00    +0.000 A 
ATOM      3  C   UNL     1       1.271   2.836  20.859  0.00  0.00    +0.000 A 
ATOM      4  C   UNL     1       2.648   2.861  21.068  0.00  0.00    +0.000 A 
ATOM      5  C   UNL     1       3.501   3.318  20.059  0.00  0.00    +0.000 A 
ATOM      6  C   UNL     1       2.984   3.748  18.826  0.00  0.00    +0.000 A 
ENDROOT
BRANCH   6   7
ATOM      7  C   UNL     1       3.886   4.255  17.763  0.00  0.00    +0.000 A 
ATOM      8  N   UNL     1       4.555   3.494  16.935  0.00  0.00    +0.000 NA
ATOM      9  N   UNL     1       5.272   4.332  16.154  0.00  0.00    +0.000 N 
ATOM     10  C   UNL     1       6.170   4.150  15.152  0.00  0.00    +0.000 A 
ATOM     11  N   UNL     1       6.579   5.333  14.720  0.00  0.00    +0.000 NA
ATOM     12  N   UNL     1       5.934   6.316  15.473  0.00  0.00    +0.000 NA
ATOM     13  C   UNL     1       5.178   5.669  16.314  0.00  0.00    +0.000 A 
ATOM     14  S   UNL     1       4.098   6.033  17.580  0.00  0.00    +0.000 S 
ENDBRANCH   6   7
BRANCH   1  15
ATOM     15  O   UNL     1       1.051   4.077  17.429  0.00  0.00    +0.000 OA
ATOM     16  H   UNL     1       1.319   4.983  17.210  0.00  0.00    +0.000 HD
ENDBRANCH   1  15
TORSDOF 2
ENDMDL
